MODEL 1
REMARK VINA RESULT:      -4.8      0.000      0.000
REMARK  Name = 75537002
REMARK  2 active torsions:
REMARK  status: ('A' for Active; 'I' for Inactive)
REMARK    1  A    between atoms: N_6  and  C_14
REMARK    2  A    between atoms: C_15  and  C_16
REMARK                            x       y       z     vdW  Elec       q    Type
REMARK                         _______ _______ _______ _____ _____    ______ ____
ROOT
ATOM      1  O   UNL     1      -6.683   1.790  25.453  0.00  0.00    -0.252 OA
ATOM      2  O   UNL     1      -0.959  -1.999  24.150  0.00  0.00    -0.267 OA
ATOM      4  N   UNL     1      -4.478   1.275  24.825  0.00  0.00    -0.278 N 
ATOM      5  N   UNL     1      -2.040  -0.056  24.872  0.00  0.00    -0.292 N 
ATOM      6  N   UNL     1      -5.019   3.432  25.148  0.00  0.00    -0.287 N 
ATOM      8  C   UNL     1      -3.286   2.013  24.446  0.00  0.00    +0.112 C 
ATOM      9  C   UNL     1      -2.055   1.400  25.107  0.00  0.00    +0.132 C 
ATOM     10  C   UNL     1      -3.594   3.446  24.871  0.00  0.00    +0.133 C 
ATOM     11  C   UNL     1      -4.499  -0.173  24.714  0.00  0.00    +0.128 C 
ATOM     12  C   UNL     1      -3.238  -0.765  25.343  0.00  0.00    +0.127 C 
ATOM     13  C   UNL     1      -5.539   2.123  25.174  0.00  0.00    +0.305 C 
ATOM     14  C   UNL     1      -5.745   4.636  25.485  0.00  0.00    +0.133 C 
ATOM     15  C   UNL     1      -0.989  -0.779  24.304  0.00  0.00    +0.285 C 
ENDROOT
BRANCH  15  16
ATOM      3  O   UNL     1       1.001  -0.628  22.925  0.00  0.00    -0.350 OA
ATOM      7  N   UNL     1       2.046   0.233  22.613  0.00  0.00    -0.086 NA
ATOM     16  C   UNL     1       0.186  -0.035  23.834  0.00  0.00    +0.222 A 
ATOM     17  C   UNL     1       0.668   1.211  24.140  0.00  0.00    +0.077 A 
ATOM     18  C   UNL     1       1.826   1.325  23.351  0.00  0.00    +0.157 A 
ENDBRANCH  15  16
TORSDOF 1
ENDMDL
MODEL 2
REMARK VINA RESULT:      -3.9     14.544     15.674
REMARK  Name = 75537002
REMARK  2 active torsions:
REMARK  status: ('A' for Active; 'I' for Inactive)
REMARK    1  A    between atoms: N_6  and  C_14
REMARK    2  A    between atoms: C_15  and  C_16
REMARK                            x       y       z     vdW  Elec       q    Type
REMARK                         _______ _______ _______ _____ _____    ______ ____
ROOT
ATOM      1  O   UNL     1      -9.338  -9.540  17.868  0.00  0.00    -0.252 OA
ATOM      2  O   UNL     1      -6.929  -9.280  11.314  0.00  0.00    -0.267 OA
ATOM      4  N   UNL     1      -7.823  -9.619  16.073  0.00  0.00    -0.278 N 
ATOM      5  N   UNL     1      -6.924 -10.126  13.493  0.00  0.00    -0.292 N 
ATOM      6  N   UNL     1      -7.142 -10.374  18.077  0.00  0.00    -0.287 N 
ATOM      8  C   UNL     1      -6.419  -9.940  15.886  0.00  0.00    +0.112 C 
ATOM      9  C   UNL     1      -6.233 -10.776  14.623  0.00  0.00    +0.132 C 
ATOM     10  C   UNL     1      -6.030 -10.646  17.182  0.00  0.00    +0.133 C 
ATOM     11  C   UNL     1      -8.593  -9.069  14.971  0.00  0.00    +0.128 C 
ATOM     12  C   UNL     1      -8.360  -9.894  13.705  0.00  0.00    +0.127 C 
ATOM     13  C   UNL     1      -8.239  -9.808  17.399  0.00  0.00    +0.305 C 
ATOM     14  C   UNL     1      -7.125 -10.781  19.464  0.00  0.00    +0.133 C 
ATOM     15  C   UNL     1      -6.342  -9.780  12.272  0.00  0.00    +0.285 C 
ENDROOT
BRANCH  15  16
ATOM      3  O   UNL     1      -4.124 -10.067  13.213  0.00  0.00    -0.350 OA
ATOM      7  N   UNL     1      -2.805 -10.297  12.840  0.00  0.00    -0.086 NA
ATOM     16  C   UNL     1      -4.903 -10.017  12.102  0.00  0.00    +0.222 A 
ATOM     17  C   UNL     1      -4.129 -10.208  10.988  0.00  0.00    +0.077 A 
ATOM     18  C   UNL     1      -2.832 -10.377  11.506  0.00  0.00    +0.157 A 
ENDBRANCH  15  16
TORSDOF 1
ENDMDL
MODEL 3
REMARK VINA RESULT:      -3.8      2.490      3.870
REMARK  Name = 75537002
REMARK  2 active torsions:
REMARK  status: ('A' for Active; 'I' for Inactive)
REMARK    1  A    between atoms: N_6  and  C_14
REMARK    2  A    between atoms: C_15  and  C_16
REMARK                            x       y       z     vdW  Elec       q    Type
REMARK                         _______ _______ _______ _____ _____    ______ ____
ROOT
ATOM      1  O   UNL     1      -1.527   5.286  25.363  0.00  0.00    -0.252 OA
ATOM      2  O   UNL     1      -0.068  -1.540  25.678  0.00  0.00    -0.267 OA
ATOM      4  N   UNL     1      -1.834   2.959  25.239  0.00  0.00    -0.278 N 
ATOM      5  N   UNL     1      -1.171   0.304  24.759  0.00  0.00    -0.292 N 
ATOM      6  N   UNL     1      -3.421   4.293  24.369  0.00  0.00    -0.287 N 
ATOM      8  C   UNL     1      -2.891   2.052  24.826  0.00  0.00    +0.112 C 
ATOM      9  C   UNL     1      -2.306   0.894  24.023  0.00  0.00    +0.132 C 
ATOM     10  C   UNL     1      -3.856   2.945  24.050  0.00  0.00    +0.133 C 
ATOM     11  C   UNL     1      -0.641   2.437  25.880  0.00  0.00    +0.128 C 
ATOM     12  C   UNL     1      -0.095   1.251  25.085  0.00  0.00    +0.127 C 
ATOM     13  C   UNL     1      -2.180   4.303  25.035  0.00  0.00    +0.305 C 
ATOM     14  C   UNL     1      -4.145   5.458  23.914  0.00  0.00    +0.133 C 
ATOM     15  C   UNL     1      -1.035  -1.041  25.104  0.00  0.00    +0.285 C 
ENDROOT
BRANCH  15  16
ATOM      3  O   UNL     1      -1.902  -2.943  23.872  0.00  0.00    -0.350 OA
ATOM      7  N   UNL     1      -3.060  -3.690  23.697  0.00  0.00    -0.086 NA
ATOM     16  C   UNL     1      -2.136  -1.954  24.772  0.00  0.00    +0.222 A 
ATOM     17  C   UNL     1      -3.434  -2.024  25.204  0.00  0.00    +0.077 A 
ATOM     18  C   UNL     1      -3.963  -3.122  24.503  0.00  0.00    +0.157 A 
ENDBRANCH  15  16
TORSDOF 1
ENDMDL
MODEL 4
REMARK VINA RESULT:      -3.7     15.607     16.625
REMARK  Name = 75537002
REMARK  2 active torsions:
REMARK  status: ('A' for Active; 'I' for Inactive)
REMARK    1  A    between atoms: N_6  and  C_14
REMARK    2  A    between atoms: C_15  and  C_16
REMARK                            x       y       z     vdW  Elec       q    Type
REMARK                         _______ _______ _______ _____ _____    ______ ____
ROOT
ATOM      1  O   UNL     1      -9.244 -10.303  14.758  0.00  0.00    -0.252 OA
ATOM      2  O   UNL     1      -4.794  -9.987   9.381  0.00  0.00    -0.267 OA
ATOM      4  N   UNL     1      -7.227 -10.047  13.580  0.00  0.00    -0.278 N 
ATOM      5  N   UNL     1      -5.338 -10.504  11.595  0.00  0.00    -0.292 N 
ATOM      6  N   UNL     1      -7.137 -10.255  15.816  0.00  0.00    -0.287 N 
ATOM      8  C   UNL     1      -5.825  -9.859  13.910  0.00  0.00    +0.112 C 
ATOM      9  C   UNL     1      -4.950 -10.718  13.002  0.00  0.00    +0.132 C 
ATOM     10  C   UNL     1      -5.749 -10.214  15.393  0.00  0.00    +0.133 C 
ATOM     11  C   UNL     1      -7.664  -9.950  12.199  0.00  0.00    +0.128 C 
ATOM     12  C   UNL     1      -6.750 -10.781  11.299  0.00  0.00    +0.127 C 
ATOM     13  C   UNL     1      -8.024 -10.210  14.722  0.00  0.00    +0.305 C 
ATOM     14  C   UNL     1      -7.511 -10.458  17.198  0.00  0.00    +0.133 C 
ATOM     15  C   UNL     1      -4.478 -10.121  10.562  0.00  0.00    +0.285 C 
ENDROOT
BRANCH  15  16
ATOM      3  O   UNL     1      -2.481 -10.601  11.853  0.00  0.00    -0.350 OA
ATOM      7  N   UNL     1      -1.168 -10.179  12.021  0.00  0.00    -0.086 NA
ATOM     16  C   UNL     1      -3.077  -9.841  10.898  0.00  0.00    +0.222 A 
ATOM     17  C   UNL     1      -2.186  -8.915  10.424  0.00  0.00    +0.077 A 
ATOM     18  C   UNL     1      -1.014  -9.171  11.158  0.00  0.00    +0.157 A 
ENDBRANCH  15  16
TORSDOF 1
ENDMDL
MODEL 5
REMARK VINA RESULT:      -3.4      2.500      5.007
REMARK  Name = 75537002
REMARK  2 active torsions:
REMARK  status: ('A' for Active; 'I' for Inactive)
REMARK    1  A    between atoms: N_6  and  C_14
REMARK    2  A    between atoms: C_15  and  C_16
REMARK                            x       y       z     vdW  Elec       q    Type
REMARK                         _______ _______ _______ _____ _____    ______ ____
ROOT
ATOM      1  O   UNL     1      -3.879  -2.987  24.908  0.00  0.00    -0.252 OA
ATOM      2  O   UNL     1      -4.738   3.918  25.535  0.00  0.00    -0.267 OA
ATOM      4  N   UNL     1      -3.342  -0.703  25.032  0.00  0.00    -0.278 N 
ATOM      5  N   UNL     1      -3.662   2.033  24.668  0.00  0.00    -0.292 N 
ATOM      6  N   UNL     1      -1.755  -2.136  24.338  0.00  0.00    -0.287 N 
ATOM      8  C   UNL     1      -2.150   0.114  24.882  0.00  0.00    +0.112 C 
ATOM      9  C   UNL     1      -2.474   1.377  24.090  0.00  0.00    +0.132 C 
ATOM     10  C   UNL     1      -1.149  -0.822  24.211  0.00  0.00    +0.133 C 
ATOM     11  C   UNL     1      -4.577  -0.101  25.501  0.00  0.00    +0.128 C 
ATOM     12  C   UNL     1      -4.862   1.185  24.726  0.00  0.00    +0.127 C 
ATOM     13  C   UNL     1      -3.091  -2.059  24.779  0.00  0.00    +0.305 C 
ATOM     14  C   UNL     1      -1.072  -3.338  23.918  0.00  0.00    +0.133 C 
ATOM     15  C   UNL     1      -3.733   3.360  25.096  0.00  0.00    +0.285 C 
ENDROOT
BRANCH  15  16
ATOM      3  O   UNL     1      -1.316   3.531  24.988  0.00  0.00    -0.350 OA
ATOM      7  N   UNL     1      -0.293   4.470  24.934  0.00  0.00    -0.086 NA
ATOM     16  C   UNL     1      -2.512   4.172  25.034  0.00  0.00    +0.222 A 
ATOM     17  C   UNL     1      -2.310   5.527  25.013  0.00  0.00    +0.077 A 
ATOM     18  C   UNL     1      -0.911   5.655  24.951  0.00  0.00    +0.157 A 
ENDBRANCH  15  16
TORSDOF 1
ENDMDL
MODEL 6
REMARK VINA RESULT:      -3.1      1.876      6.421
REMARK  Name = 75537002
REMARK  2 active torsions:
REMARK  status: ('A' for Active; 'I' for Inactive)
REMARK    1  A    between atoms: N_6  and  C_14
REMARK    2  A    between atoms: C_15  and  C_16
REMARK                            x       y       z     vdW  Elec       q    Type
REMARK                         _______ _______ _______ _____ _____    ______ ____
ROOT
ATOM      1  O   UNL     1       1.377  -0.514  23.405  0.00  0.00    -0.252 OA
ATOM      2  O   UNL     1      -3.794   4.171  23.778  0.00  0.00    -0.267 OA
ATOM      4  N   UNL     1      -0.720   0.417  23.916  0.00  0.00    -0.278 N 
ATOM      5  N   UNL     1      -2.551   2.382  24.626  0.00  0.00    -0.292 N 
ATOM      6  N   UNL     1      -0.153  -1.531  24.884  0.00  0.00    -0.287 N 
ATOM      8  C   UNL     1      -1.905   0.016  24.654  0.00  0.00    +0.112 C 
ATOM      9  C   UNL     1      -2.431   1.185  25.481  0.00  0.00    +0.132 C 
ATOM     10  C   UNL     1      -1.436  -1.185  25.471  0.00  0.00    +0.133 C 
ATOM     11  C   UNL     1      -0.734   1.639  23.132  0.00  0.00    +0.128 C 
ATOM     12  C   UNL     1      -1.305   2.788  23.963  0.00  0.00    +0.127 C 
ATOM     13  C   UNL     1       0.302  -0.540  23.992  0.00  0.00    +0.305 C 
ATOM     14  C   UNL     1       0.591  -2.696  25.304  0.00  0.00    +0.133 C 
ATOM     15  C   UNL     1      -3.706   3.147  24.455  0.00  0.00    +0.285 C 
ENDROOT
BRANCH  15  16
ATOM      3  O   UNL     1      -5.211   3.198  26.358  0.00  0.00    -0.350 OA
ATOM      7  N   UNL     1      -6.407   2.657  26.813  0.00  0.00    -0.086 NA
ATOM     16  C   UNL     1      -4.935   2.703  25.124  0.00  0.00    +0.222 A 
ATOM     17  C   UNL     1      -5.926   1.836  24.744  0.00  0.00    +0.077 A 
ATOM     18  C   UNL     1      -6.816   1.847  25.833  0.00  0.00    +0.157 A 
ENDBRANCH  15  16
TORSDOF 1
ENDMDL
MODEL 7
REMARK VINA RESULT:      -3.1      2.884      4.901
REMARK  Name = 75537002
REMARK  2 active torsions:
REMARK  status: ('A' for Active; 'I' for Inactive)
REMARK    1  A    between atoms: N_6  and  C_14
REMARK    2  A    between atoms: C_15  and  C_16
REMARK                            x       y       z     vdW  Elec       q    Type
REMARK                         _______ _______ _______ _____ _____    ______ ____
ROOT
ATOM      1  O   UNL     1      -2.306  -3.447  24.207  0.00  0.00    -0.252 OA
ATOM      2  O   UNL     1       0.750   2.472  26.314  0.00  0.00    -0.267 OA
ATOM      4  N   UNL     1      -1.957  -1.149  24.548  0.00  0.00    -0.278 N 
ATOM      5  N   UNL     1      -1.127   1.155  25.861  0.00  0.00    -0.292 N 
ATOM      6  N   UNL     1      -3.978  -1.827  23.835  0.00  0.00    -0.287 N 
ATOM      8  C   UNL     1      -2.694   0.080  24.310  0.00  0.00    +0.112 C 
ATOM      9  C   UNL     1      -2.552   1.019  25.504  0.00  0.00    +0.132 C 
ATOM     10  C   UNL     1      -4.118  -0.395  24.036  0.00  0.00    +0.133 C 
ATOM     11  C   UNL     1      -0.578  -1.090  24.998  0.00  0.00    +0.128 C 
ATOM     12  C   UNL     1      -0.449  -0.113  26.166  0.00  0.00    +0.127 C 
ATOM     13  C   UNL     1      -2.696  -2.287  24.195  0.00  0.00    +0.305 C 
ATOM     14  C   UNL     1      -5.094  -2.657  23.441  0.00  0.00    +0.133 C 
ATOM     15  C   UNL     1      -0.427   2.357  25.972  0.00  0.00    +0.285 C 
ENDROOT
BRANCH  15  16
ATOM      3  O   UNL     1      -2.359   3.807  26.198  0.00  0.00    -0.350 OA
ATOM      7  N   UNL     1      -2.856   5.031  25.769  0.00  0.00    -0.086 NA
ATOM     16  C   UNL     1      -1.135   3.602  25.648  0.00  0.00    +0.222 A 
ATOM     17  C   UNL     1      -0.802   4.668  24.854  0.00  0.00    +0.077 A 
ATOM     18  C   UNL     1      -1.909   5.528  24.967  0.00  0.00    +0.157 A 
ENDBRANCH  15  16
TORSDOF 1
ENDMDL
MODEL 8
REMARK VINA RESULT:      -2.9      1.218      5.962
REMARK  Name = 75537002
REMARK  2 active torsions:
REMARK  status: ('A' for Active; 'I' for Inactive)
REMARK    1  A    between atoms: N_6  and  C_14
REMARK    2  A    between atoms: C_15  and  C_16
REMARK                            x       y       z     vdW  Elec       q    Type
REMARK                         _______ _______ _______ _____ _____    ______ ____
ROOT
ATOM      1  O   UNL     1      -0.055  -2.061  24.473  0.00  0.00    -0.252 OA
ATOM      2  O   UNL     1      -6.101   0.998  26.179  0.00  0.00    -0.267 OA
ATOM      4  N   UNL     1      -1.643  -0.366  24.828  0.00  0.00    -0.278 N 
ATOM      5  N   UNL     1      -4.150   0.829  24.902  0.00  0.00    -0.292 N 
ATOM      6  N   UNL     1       0.235   0.149  23.705  0.00  0.00    -0.287 N 
ATOM      8  C   UNL     1      -1.727   1.068  24.610  0.00  0.00    +0.112 C 
ATOM      9  C   UNL     1      -3.101   1.438  24.062  0.00  0.00    +0.132 C 
ATOM     10  C   UNL     1      -0.562   1.363  23.669  0.00  0.00    +0.133 C 
ATOM     11  C   UNL     1      -2.693  -1.049  25.562  0.00  0.00    +0.128 C 
ATOM     12  C   UNL     1      -4.063  -0.633  25.026  0.00  0.00    +0.127 C 
ATOM     13  C   UNL     1      -0.438  -0.905  24.353  0.00  0.00    +0.305 C 
ATOM     14  C   UNL     1       1.504   0.047  23.021  0.00  0.00    +0.133 C 
ATOM     15  C   UNL     1      -5.201   1.513  25.516  0.00  0.00    +0.285 C 
ENDROOT
BRANCH  15  16
ATOM      3  O   UNL     1      -6.324   3.632  25.882  0.00  0.00    -0.350 OA
ATOM      7  N   UNL     1      -6.178   4.995  25.652  0.00  0.00    -0.086 NA
ATOM     16  C   UNL     1      -5.248   2.974  25.379  0.00  0.00    +0.222 A 
ATOM     17  C   UNL     1      -4.383   3.872  24.812  0.00  0.00    +0.077 A 
ATOM     18  C   UNL     1      -5.011   5.114  25.011  0.00  0.00    +0.157 A 
ENDBRANCH  15  16
TORSDOF 1
ENDMDL
MODEL 9
REMARK VINA RESULT:      -2.8     16.727     17.687
REMARK  Name = 75537002
REMARK  2 active torsions:
REMARK  status: ('A' for Active; 'I' for Inactive)
REMARK    1  A    between atoms: N_6  and  C_14
REMARK    2  A    between atoms: C_15  and  C_16
REMARK                            x       y       z     vdW  Elec       q    Type
REMARK                         _______ _______ _______ _____ _____    ______ ____
ROOT
ATOM      1  O   UNL     1     -10.155  -9.610  15.251  0.00  0.00    -0.252 OA
ATOM      2  O   UNL     1      -8.239 -10.414   8.580  0.00  0.00    -0.267 OA
ATOM      4  N   UNL     1      -8.785  -9.651  13.342  0.00  0.00    -0.278 N 
ATOM      5  N   UNL     1      -7.838 -10.523  10.880  0.00  0.00    -0.292 N 
ATOM      6  N   UNL     1      -7.803  -9.482  15.357  0.00  0.00    -0.287 N 
ATOM      8  C   UNL     1      -7.373  -9.475  13.048  0.00  0.00    +0.112 C 
ATOM      9  C   UNL     1      -6.914 -10.515  12.031  0.00  0.00    +0.132 C 
ATOM     10  C   UNL     1      -6.702  -9.578  14.415  0.00  0.00    +0.133 C 
ATOM     11  C   UNL     1      -9.741  -9.768  12.255  0.00  0.00    +0.128 C 
ATOM     12  C   UNL     1      -9.243 -10.781  11.225  0.00  0.00    +0.127 C 
ATOM     13  C   UNL     1      -9.054  -9.581  14.717  0.00  0.00    +0.305 C 
ATOM     14  C   UNL     1      -7.587  -9.431  16.785  0.00  0.00    +0.133 C 
ATOM     15  C   UNL     1      -7.474 -10.361   9.542  0.00  0.00    +0.285 C 
ENDROOT
BRANCH  15  16
ATOM      3  O   UNL     1      -5.493  -8.978   9.761  0.00  0.00    -0.350 OA
ATOM      7  N   UNL     1      -4.165  -8.908   9.358  0.00  0.00    -0.086 NA
ATOM     16  C   UNL     1      -6.062 -10.094   9.238  0.00  0.00    +0.222 A 
ATOM     17  C   UNL     1      -5.140 -10.773   8.488  0.00  0.00    +0.077 A 
ATOM     18  C   UNL     1      -3.977  -9.990   8.597  0.00  0.00    +0.157 A 
ENDBRANCH  15  16
TORSDOF 1
ENDMDL
MODEL 10
REMARK VINA RESULT:      -2.7      1.905      2.893
REMARK  Name = 75537002
REMARK  2 active torsions:
REMARK  status: ('A' for Active; 'I' for Inactive)
REMARK    1  A    between atoms: N_6  and  C_14
REMARK    2  A    between atoms: C_15  and  C_16
REMARK                            x       y       z     vdW  Elec       q    Type
REMARK                         _______ _______ _______ _____ _____    ______ ____
ROOT
ATOM      1  O   UNL     1      -6.057   4.098  26.120  0.00  0.00    -0.252 OA
ATOM      2  O   UNL     1       0.838   3.294  25.326  0.00  0.00    -0.267 OA
ATOM      4  N   UNL     1      -4.006   3.100  25.552  0.00  0.00    -0.278 N 
ATOM      5  N   UNL     1      -1.378   2.963  24.661  0.00  0.00    -0.292 N 
ATOM      6  N   UNL     1      -5.899   2.149  24.802  0.00  0.00    -0.287 N 
ATOM      8  C   UNL     1      -3.568   1.883  24.891  0.00  0.00    +0.112 C 
ATOM      9  C   UNL     1      -2.408   2.184  23.947  0.00  0.00    +0.132 C 
ATOM     10  C   UNL     1      -4.831   1.364  24.208  0.00  0.00    +0.133 C 
ATOM     11  C   UNL     1      -3.033   3.968  26.190  0.00  0.00    +0.128 C 
ATOM     12  C   UNL     1      -1.858   4.223  25.245  0.00  0.00    +0.127 C 
ATOM     13  C   UNL     1      -5.403   3.224  25.564  0.00  0.00    +0.305 C 
ATOM     14  C   UNL     1      -7.291   1.896  24.503  0.00  0.00    +0.133 C 
ATOM     15  C   UNL     1      -0.029   2.621  24.769  0.00  0.00    +0.285 C 
ENDROOT
BRANCH  15  16
ATOM      3  O   UNL     1       1.554   1.340  23.450  0.00  0.00    -0.350 OA
ATOM      7  N   UNL     1       1.794   0.052  22.988  0.00  0.00    -0.086 NA
ATOM     16  C   UNL     1       0.411   1.349  24.183  0.00  0.00    +0.222 A 
ATOM     17  C   UNL     1      -0.122   0.088  24.219  0.00  0.00    +0.077 A 
ATOM     18  C   UNL     1       0.779  -0.679  23.459  0.00  0.00    +0.157 A 
ENDBRANCH  15  16
TORSDOF 1
ENDMDL
