MODEL 1
REMARK VINA RESULT:      -5.0      0.000      0.000
REMARK  Name = 51137866
REMARK  7 active torsions:
REMARK  status: ('A' for Active; 'I' for Inactive)
REMARK    1  A    between atoms: N_2  and  C_12
REMARK    2  A    between atoms: N_5  and  C_22
REMARK    3  A    between atoms: N_5  and  C_26
REMARK    4  A    between atoms: N_5  and  C_27
REMARK    5  A    between atoms: C_7  and  C_11
REMARK    6  A    between atoms: C_12  and  C_13
REMARK    7  A    between atoms: C_18  and  C_25
REMARK                            x       y       z     vdW  Elec       q    Type
REMARK                         _______ _______ _______ _____ _____    ______ ____
ROOT
ATOM      2  N   UNL     1      16.896  -8.169  25.883  0.00  0.00    -0.297 NA
ATOM      7  C   UNL     1      16.376  -7.716  28.125  0.00  0.00    +0.070 C 
ATOM      8  C   UNL     1      15.145  -8.315  27.422  0.00  0.00    +0.028 C 
ATOM      9  C   UNL     1      17.309  -7.292  26.981  0.00  0.00    +0.096 C 
ATOM     10  C   UNL     1      15.434  -8.173  25.933  0.00  0.00    +0.085 C 
ENDROOT
BRANCH   7  11
ATOM      3  N   UNL     1      16.847  -5.463  29.128  0.00  0.00    -0.342 N 
ATOM      4  N   UNL     1      15.089  -6.542  29.955  0.00  0.00    -0.231 NA
ATOM     11  C   UNL     1      16.073  -6.589  29.085  0.00  0.00    +0.113 A 
ATOM     14  C   UNL     1      16.329  -4.634  30.088  0.00  0.00    +0.067 A 
ATOM     15  C   UNL     1      15.232  -5.329  30.590  0.00  0.00    +0.101 A 
ATOM     18  C   UNL     1      14.461  -4.748  31.611  0.00  0.00    +0.064 A 
ATOM     19  C   UNL     1      16.713  -3.373  30.547  0.00  0.00    +0.028 A 
ATOM     23  C   UNL     1      14.828  -3.483  32.088  0.00  0.00    +0.015 A 
ATOM     24  C   UNL     1      15.934  -2.810  31.563  0.00  0.00    +0.003 A 
ATOM     28  H   UNL     1      17.658  -5.273  28.554  0.00  0.00    +0.167 HD
BRANCH  18  25
ATOM      1  O   UNL     1      12.161  -4.974  32.067  0.00  0.00    -0.270 OA
ATOM      6  N   UNL     1      13.531  -6.661  32.799  0.00  0.00    -0.325 N 
ATOM     25  C   UNL     1      13.312  -5.440  32.165  0.00  0.00    +0.244 C 
ATOM     29  H   UNL     1      12.751  -7.178  33.193  0.00  0.00    +0.145 HD
ATOM     30  H   UNL     1      14.444  -7.090  32.902  0.00  0.00    +0.145 HD
ENDBRANCH  18  25
ENDBRANCH   7  11
BRANCH   2  12
ATOM     12  C   UNL     1      17.405  -7.723  24.595  0.00  0.00    +0.119 C 
BRANCH  12  13
ATOM     13  C   UNL     1      17.293  -6.230  24.434  0.00  0.00    -0.033 A 
ATOM     16  C   UNL     1      17.177  -5.672  23.161  0.00  0.00    +0.007 A 
ATOM     17  C   UNL     1      17.303  -5.405  25.559  0.00  0.00    +0.007 A 
ATOM     20  C   UNL     1      17.073  -4.289  23.012  0.00  0.00    +0.023 A 
ATOM     21  C   UNL     1      17.198  -4.022  25.411  0.00  0.00    +0.023 A 
ATOM     22  C   UNL     1      17.083  -3.465  24.137  0.00  0.00    +0.029 A 
BRANCH  22   5
ATOM      5  N   UNL     1      16.977  -2.066  23.987  0.00  0.00    -0.336 N 
ATOM     26  C   UNL     1      16.990  -1.465  22.668  0.00  0.00    +0.129 C 
ATOM     27  C   UNL     1      16.863  -1.210  25.152  0.00  0.00    +0.129 C 
ENDBRANCH  22   5
ENDBRANCH  12  13
ENDBRANCH   2  12
TORSDOF 5
ENDMDL
MODEL 2
REMARK VINA RESULT:      -3.6      1.439      2.567
REMARK  Name = 51137866
REMARK  7 active torsions:
REMARK  status: ('A' for Active; 'I' for Inactive)
REMARK    1  A    between atoms: N_2  and  C_12
REMARK    2  A    between atoms: N_5  and  C_22
REMARK    3  A    between atoms: N_5  and  C_26
REMARK    4  A    between atoms: N_5  and  C_27
REMARK    5  A    between atoms: C_7  and  C_11
REMARK    6  A    between atoms: C_12  and  C_13
REMARK    7  A    between atoms: C_18  and  C_25
REMARK                            x       y       z     vdW  Elec       q    Type
REMARK                         _______ _______ _______ _____ _____    ______ ____
ROOT
ATOM      2  N   UNL     1      16.385  -9.124  26.272  0.00  0.00    -0.297 NA
ATOM      7  C   UNL     1      15.245  -8.836  28.303  0.00  0.00    +0.070 C 
ATOM      8  C   UNL     1      14.229  -8.926  27.150  0.00  0.00    +0.028 C 
ATOM      9  C   UNL     1      16.592  -8.573  27.614  0.00  0.00    +0.096 C 
ATOM     10  C   UNL     1      15.045  -8.683  25.886  0.00  0.00    +0.085 C 
ENDROOT
BRANCH   7  11
ATOM      3  N   UNL     1      13.951  -8.044  30.303  0.00  0.00    -0.342 N 
ATOM      4  N   UNL     1      15.471  -6.629  29.511  0.00  0.00    -0.231 NA
ATOM     11  C   UNL     1      14.915  -7.810  29.361  0.00  0.00    +0.113 A 
ATOM     14  C   UNL     1      13.881  -6.942  31.114  0.00  0.00    +0.067 A 
ATOM     15  C   UNL     1      14.840  -6.073  30.601  0.00  0.00    +0.101 A 
ATOM     18  C   UNL     1      15.030  -4.822  31.213  0.00  0.00    +0.064 A 
ATOM     19  C   UNL     1      13.087  -6.639  32.220  0.00  0.00    +0.028 A 
ATOM     23  C   UNL     1      14.244  -4.497  32.325  0.00  0.00    +0.015 A 
ATOM     24  C   UNL     1      13.290  -5.391  32.819  0.00  0.00    +0.003 A 
ATOM     28  H   UNL     1      13.389  -8.880  30.388  0.00  0.00    +0.167 HD
BRANCH  18  25
ATOM      1  O   UNL     1      15.789  -2.662  30.658  0.00  0.00    -0.270 OA
ATOM      6  N   UNL     1      17.244  -4.396  30.292  0.00  0.00    -0.325 N 
ATOM     25  C   UNL     1      16.016  -3.886  30.708  0.00  0.00    +0.244 C 
ATOM     29  H   UNL     1      17.962  -3.771  29.938  0.00  0.00    +0.145 HD
ATOM     30  H   UNL     1      17.486  -5.380  30.315  0.00  0.00    +0.145 HD
ENDBRANCH  18  25
ENDBRANCH   7  11
BRANCH   2  12
ATOM     12  C   UNL     1      17.405  -8.690  25.331  0.00  0.00    +0.119 C 
BRANCH  12  13
ATOM     13  C   UNL     1      17.302  -7.218  25.032  0.00  0.00    -0.033 A 
ATOM     16  C   UNL     1      17.302  -6.292  26.077  0.00  0.00    +0.007 A 
ATOM     17  C   UNL     1      17.209  -6.778  23.712  0.00  0.00    +0.007 A 
ATOM     20  C   UNL     1      17.208  -4.928  25.800  0.00  0.00    +0.023 A 
ATOM     21  C   UNL     1      17.115  -5.414  23.435  0.00  0.00    +0.023 A 
ATOM     22  C   UNL     1      17.115  -4.490  24.480  0.00  0.00    +0.029 A 
BRANCH  22   5
ATOM      5  N   UNL     1      17.019  -3.111  24.199  0.00  0.00    -0.336 N 
ATOM     26  C   UNL     1      16.851  -2.648  22.836  0.00  0.00    +0.129 C 
ATOM     27  C   UNL     1      17.098  -2.137  25.270  0.00  0.00    +0.129 C 
ENDBRANCH  22   5
ENDBRANCH  12  13
ENDBRANCH   2  12
TORSDOF 5
ENDMDL
