MODEL 1
REMARK VINA RESULT:       4.9      0.000      0.000
REMARK  Name = 40777982
REMARK  10 active torsions:
REMARK  status: ('A' for Active; 'I' for Inactive)
REMARK    1  A    between atoms: O_2  and  C_11
REMARK    2  A    between atoms: O_3  and  C_12
REMARK    3  A    between atoms: O_6  and  C_33
REMARK    4  A    between atoms: O_6  and  C_34
REMARK    5  A    between atoms: N_8  and  C_21
REMARK    6  A    between atoms: N_9  and  C_15
REMARK    7  A    between atoms: C_10  and  C_14
REMARK    8  A    between atoms: C_13  and  C_15
REMARK    9  A    between atoms: C_14  and  C_16
REMARK   10  A    between atoms: C_22  and  C_25
REMARK                            x       y       z     vdW  Elec       q    Type
REMARK                         _______ _______ _______ _____ _____    ______ ____
ROOT
ATOM      1  O   UNL     1      -4.424   1.554  23.789  0.00  0.00    -0.366 OA
ATOM     10  C   UNL     1      -5.140   0.660  24.670  0.00  0.00    +0.159 C 
ATOM     11  C   UNL     1      -6.032   1.538  25.541  0.00  0.00    +0.175 C 
ATOM     12  C   UNL     1      -5.248   2.833  25.589  0.00  0.00    +0.176 C 
ATOM     13  C   UNL     1      -4.701   2.912  24.174  0.00  0.00    +0.167 C 
ENDROOT
BRANCH  11   2
ATOM      2  O   UNL     1      -7.268   1.733  24.853  0.00  0.00    -0.387 OA
ATOM     35  H   UNL     1      -7.062   2.148  23.999  0.00  0.00    +0.210 HD
ENDBRANCH  11   2
BRANCH  12   3
ATOM      3  O   UNL     1      -6.040   3.955  25.914  0.00  0.00    -0.387 OA
ATOM     36  H   UNL     1      -6.530   4.209  25.113  0.00  0.00    +0.210 HD
ENDBRANCH  12   3
BRANCH  10  14
ATOM     14  C   UNL     1      -4.112  -0.126  25.473  0.00  0.00    +0.130 C 
BRANCH  14  16
ATOM      4  O   UNL     1      -4.046  -2.027  24.052  0.00  0.00    -0.276 OA
ATOM      7  N   UNL     1      -2.034  -0.916  24.403  0.00  0.00    -0.298 N 
ATOM      8  N   UNL     1       0.763  -0.475  23.802  0.00  0.00    -0.327 N 
ATOM     16  C   UNL     1      -3.406  -1.112  24.577  0.00  0.00    +0.218 C 
ATOM     17  C   UNL     1      -1.276   0.171  25.028  0.00  0.00    +0.126 C 
ATOM     18  C   UNL     1      -1.280  -1.825  23.544  0.00  0.00    +0.126 C 
ATOM     19  C   UNL     1       0.220  -0.129  25.118  0.00  0.00    +0.124 C 
ATOM     20  C   UNL     1      -0.130  -1.116  22.832  0.00  0.00    +0.124 C 
BRANCH   8  21
ATOM     21  C   UNL     1       2.098  -0.235  23.489  0.00  0.00    +0.030 A 
ATOM     23  C   UNL     1       2.482   1.001  22.968  0.00  0.00    +0.023 A 
ATOM     24  C   UNL     1       3.053  -1.231  23.697  0.00  0.00    +0.023 A 
ATOM     26  C   UNL     1       3.820   1.241  22.656  0.00  0.00    +0.002 A 
ATOM     27  C   UNL     1       4.390  -0.991  23.384  0.00  0.00    +0.002 A 
ATOM     28  C   UNL     1       4.774   0.245  22.865  0.00  0.00    +0.000 A 
ENDBRANCH   8  21
ENDBRANCH  14  16
ENDBRANCH  10  14
BRANCH  13  15
ATOM     15  C   UNL     1      -3.436   3.744  24.063  0.00  0.00    +0.138 C 
BRANCH  15   9
ATOM      5  O   UNL     1      -0.575   3.525  23.947  0.00  0.00    -0.270 OA
ATOM      9  N   UNL     1      -2.551   3.490  25.161  0.00  0.00    -0.309 N 
ATOM     22  C   UNL     1      -1.170   3.400  25.014  0.00  0.00    +0.244 C 
ATOM     37  H   UNL     1      -2.973   3.430  26.083  0.00  0.00    +0.149 HD
BRANCH  22  25
ATOM     25  C   UNL     1      -0.395   3.105  26.247  0.00  0.00    +0.037 A 
ATOM     29  C   UNL     1       0.995   3.004  26.189  0.00  0.00    +0.016 A 
ATOM     30  C   UNL     1      -1.057   2.931  27.462  0.00  0.00    +0.016 A 
ATOM     31  C   UNL     1       1.722   2.728  27.347  0.00  0.00    +0.046 A 
ATOM     32  C   UNL     1      -0.330   2.655  28.620  0.00  0.00    +0.046 A 
ATOM     33  C   UNL     1       1.061   2.553  28.561  0.00  0.00    +0.120 A 
BRANCH  33   6
ATOM      6  O   UNL     1       1.771   2.283  29.692  0.00  0.00    -0.495 OA
ATOM     34  C   UNL     1       1.048   2.261  30.921  0.00  0.00    +0.277 C 
ENDBRANCH  33   6
ENDBRANCH  22  25
ENDBRANCH  15   9
ENDBRANCH  13  15
TORSDOF 9
ENDMDL
MODEL 2
REMARK VINA RESULT:       6.6      2.705      4.809
REMARK  Name = 40777982
REMARK  10 active torsions:
REMARK  status: ('A' for Active; 'I' for Inactive)
REMARK    1  A    between atoms: O_2  and  C_11
REMARK    2  A    between atoms: O_3  and  C_12
REMARK    3  A    between atoms: O_6  and  C_33
REMARK    4  A    between atoms: O_6  and  C_34
REMARK    5  A    between atoms: N_8  and  C_21
REMARK    6  A    between atoms: N_9  and  C_15
REMARK    7  A    between atoms: C_10  and  C_14
REMARK    8  A    between atoms: C_13  and  C_15
REMARK    9  A    between atoms: C_14  and  C_16
REMARK   10  A    between atoms: C_22  and  C_25
REMARK                            x       y       z     vdW  Elec       q    Type
REMARK                         _______ _______ _______ _____ _____    ______ ____
ROOT
ATOM      1  O   UNL     1      -3.626   2.480  25.421  0.00  0.00    -0.366 OA
ATOM     10  C   UNL     1      -2.973   3.680  24.949  0.00  0.00    +0.159 C 
ATOM     11  C   UNL     1      -3.927   4.833  25.243  0.00  0.00    +0.175 C 
ATOM     12  C   UNL     1      -5.276   4.146  25.184  0.00  0.00    +0.176 C 
ATOM     13  C   UNL     1      -4.966   2.807  25.830  0.00  0.00    +0.167 C 
ENDROOT
BRANCH  11   2
ATOM      2  O   UNL     1      -3.665   5.298  26.566  0.00  0.00    -0.387 OA
ATOM     35  H   UNL     1      -4.511   5.309  27.043  0.00  0.00    +0.210 HD
ENDBRANCH  11   2
BRANCH  12   3
ATOM      3  O   UNL     1      -6.289   4.846  25.875  0.00  0.00    -0.387 OA
ATOM     36  H   UNL     1      -5.863   5.570  26.364  0.00  0.00    +0.210 HD
ENDBRANCH  12   3
BRANCH  10  14
ATOM     14  C   UNL     1      -2.691   3.504  23.463  0.00  0.00    +0.130 C 
BRANCH  14  16
ATOM      4  O   UNL     1      -3.361   1.326  22.794  0.00  0.00    -0.276 OA
ATOM      7  N   UNL     1      -1.115   1.611  23.320  0.00  0.00    -0.298 N 
ATOM      8  N   UNL     1       1.614   0.650  23.412  0.00  0.00    -0.327 N 
ATOM     16  C   UNL     1      -2.431   2.049  23.159  0.00  0.00    +0.218 C 
ATOM     17  C   UNL     1      -0.011   2.471  23.753  0.00  0.00    +0.126 C 
ATOM     18  C   UNL     1      -0.781   0.217  23.038  0.00  0.00    +0.126 C 
ATOM     19  C   UNL     1       1.155   1.682  24.346  0.00  0.00    +0.124 C 
ATOM     20  C   UNL     1       0.636   0.070  22.488  0.00  0.00    +0.124 C 
BRANCH   8  21
ATOM     21  C   UNL     1       2.933   0.204  23.424  0.00  0.00    +0.030 A 
ATOM     23  C   UNL     1       3.969   1.083  23.104  0.00  0.00    +0.023 A 
ATOM     24  C   UNL     1       3.219  -1.120  23.757  0.00  0.00    +0.023 A 
ATOM     26  C   UNL     1       5.290   0.636  23.116  0.00  0.00    +0.002 A 
ATOM     27  C   UNL     1       4.540  -1.566  23.769  0.00  0.00    +0.002 A 
ATOM     28  C   UNL     1       5.576  -0.688  23.450  0.00  0.00    +0.000 A 
ENDBRANCH   8  21
ENDBRANCH  14  16
ENDBRANCH  10  14
BRANCH  13  15
ATOM     15  C   UNL     1      -5.915   1.700  25.407  0.00  0.00    +0.138 C 
BRANCH  15   9
ATOM      5  O   UNL     1      -4.377  -0.212  26.898  0.00  0.00    -0.270 OA
ATOM      9  N   UNL     1      -5.197   0.578  24.878  0.00  0.00    -0.309 N 
ATOM     22  C   UNL     1      -4.474  -0.303  25.677  0.00  0.00    +0.244 C 
ATOM     37  H   UNL     1      -5.280   0.412  23.879  0.00  0.00    +0.149 HD
BRANCH  22  25
ATOM     25  C   UNL     1      -3.764  -1.400  24.972  0.00  0.00    +0.037 A 
ATOM     29  C   UNL     1      -4.421  -2.137  23.986  0.00  0.00    +0.016 A 
ATOM     30  C   UNL     1      -2.439  -1.695  25.296  0.00  0.00    +0.016 A 
ATOM     31  C   UNL     1      -3.753  -3.167  23.325  0.00  0.00    +0.046 A 
ATOM     32  C   UNL     1      -1.771  -2.725  24.634  0.00  0.00    +0.046 A 
ATOM     33  C   UNL     1      -2.429  -3.461  23.649  0.00  0.00    +0.120 A 
BRANCH  33   6
ATOM      6  O   UNL     1      -1.777  -4.468  23.003  0.00  0.00    -0.495 OA
ATOM     34  C   UNL     1      -0.651  -4.104  22.206  0.00  0.00    +0.277 C 
ENDBRANCH  33   6
ENDBRANCH  22  25
ENDBRANCH  15   9
ENDBRANCH  13  15
TORSDOF 9
ENDMDL
MODEL 3
REMARK VINA RESULT:       6.8      1.840      5.105
REMARK  Name = 40777982
REMARK  10 active torsions:
REMARK  status: ('A' for Active; 'I' for Inactive)
REMARK    1  A    between atoms: O_2  and  C_11
REMARK    2  A    between atoms: O_3  and  C_12
REMARK    3  A    between atoms: O_6  and  C_33
REMARK    4  A    between atoms: O_6  and  C_34
REMARK    5  A    between atoms: N_8  and  C_21
REMARK    6  A    between atoms: N_9  and  C_15
REMARK    7  A    between atoms: C_10  and  C_14
REMARK    8  A    between atoms: C_13  and  C_15
REMARK    9  A    between atoms: C_14  and  C_16
REMARK   10  A    between atoms: C_22  and  C_25
REMARK                            x       y       z     vdW  Elec       q    Type
REMARK                         _______ _______ _______ _____ _____    ______ ____
ROOT
ATOM      1  O   UNL     1      -3.949   2.215  25.347  0.00  0.00    -0.366 OA
ATOM     10  C   UNL     1      -4.386   3.537  24.957  0.00  0.00    +0.159 C 
ATOM     11  C   UNL     1      -5.907   3.483  24.884  0.00  0.00    +0.175 C 
ATOM     12  C   UNL     1      -6.154   2.030  24.536  0.00  0.00    +0.176 C 
ATOM     13  C   UNL     1      -5.084   1.333  25.359  0.00  0.00    +0.167 C 
ENDROOT
BRANCH  11   2
ATOM      2  O   UNL     1      -6.423   3.776  26.181  0.00  0.00    -0.387 OA
ATOM     35  H   UNL     1      -5.932   3.232  26.819  0.00  0.00    +0.210 HD
ENDBRANCH  11   2
BRANCH  12   3
ATOM      3  O   UNL     1      -7.452   1.587  24.871  0.00  0.00    -0.387 OA
ATOM     36  H   UNL     1      -8.083   2.235  24.513  0.00  0.00    +0.210 HD
ENDBRANCH  12   3
BRANCH  10  14
ATOM     14  C   UNL     1      -3.736   3.865  23.619  0.00  0.00    +0.130 C 
BRANCH  14  16
ATOM      4  O   UNL     1      -2.202   2.575  22.346  0.00  0.00    -0.276 OA
ATOM      7  N   UNL     1      -1.680   2.906  24.587  0.00  0.00    -0.298 N 
ATOM      8  N   UNL     1       0.146   2.713  26.825  0.00  0.00    -0.327 N 
ATOM     16  C   UNL     1      -2.473   3.058  23.448  0.00  0.00    +0.218 C 
ATOM     17  C   UNL     1      -2.004   3.480  25.895  0.00  0.00    +0.126 C 
ATOM     18  C   UNL     1      -0.437   2.144  24.502  0.00  0.00    +0.126 C 
ATOM     19  C   UNL     1      -1.302   2.761  27.046  0.00  0.00    +0.124 C 
ATOM     20  C   UNL     1       0.634   2.690  25.443  0.00  0.00    +0.124 C 
BRANCH   8  21
ATOM     21  C   UNL     1       1.035   2.655  27.895  0.00  0.00    +0.030 A 
ATOM     23  C   UNL     1       2.368   3.029  27.715  0.00  0.00    +0.023 A 
ATOM     24  C   UNL     1       0.594   2.224  29.146  0.00  0.00    +0.023 A 
ATOM     26  C   UNL     1       3.258   2.971  28.787  0.00  0.00    +0.002 A 
ATOM     27  C   UNL     1       1.485   2.167  30.217  0.00  0.00    +0.002 A 
ATOM     28  C   UNL     1       2.817   2.541  30.038  0.00  0.00    +0.000 A 
ENDBRANCH   8  21
ENDBRANCH  14  16
ENDBRANCH  10  14
BRANCH  13  15
ATOM     15  C   UNL     1      -4.684  -0.023  24.805  0.00  0.00    +0.138 C 
BRANCH  15   9
ATOM      5  O   UNL     1      -2.943  -2.306  24.818  0.00  0.00    -0.270 OA
ATOM      9  N   UNL     1      -3.297  -0.045  24.444  0.00  0.00    -0.309 N 
ATOM     22  C   UNL     1      -2.526  -1.202  24.479  0.00  0.00    +0.244 C 
ATOM     37  H   UNL     1      -2.901   0.824  24.100  0.00  0.00    +0.149 HD
BRANCH  22  25
ATOM     25  C   UNL     1      -1.097  -1.053  24.100  0.00  0.00    +0.037 A 
ATOM     29  C   UNL     1      -0.102  -1.640  24.882  0.00  0.00    +0.016 A 
ATOM     30  C   UNL     1      -0.751  -0.326  22.960  0.00  0.00    +0.016 A 
ATOM     31  C   UNL     1       1.239  -1.499  24.525  0.00  0.00    +0.046 A 
ATOM     32  C   UNL     1       0.590  -0.186  22.603  0.00  0.00    +0.046 A 
ATOM     33  C   UNL     1       1.585  -0.773  23.386  0.00  0.00    +0.120 A 
BRANCH  33   6
ATOM      6  O   UNL     1       2.894  -0.635  23.037  0.00  0.00    -0.495 OA
ATOM     34  C   UNL     1       3.326   0.665  22.640  0.00  0.00    +0.277 C 
ENDBRANCH  33   6
ENDBRANCH  22  25
ENDBRANCH  15   9
ENDBRANCH  13  15
TORSDOF 9
ENDMDL
MODEL 4
REMARK VINA RESULT:       6.8      2.568      5.694
REMARK  Name = 40777982
REMARK  10 active torsions:
REMARK  status: ('A' for Active; 'I' for Inactive)
REMARK    1  A    between atoms: O_2  and  C_11
REMARK    2  A    between atoms: O_3  and  C_12
REMARK    3  A    between atoms: O_6  and  C_33
REMARK    4  A    between atoms: O_6  and  C_34
REMARK    5  A    between atoms: N_8  and  C_21
REMARK    6  A    between atoms: N_9  and  C_15
REMARK    7  A    between atoms: C_10  and  C_14
REMARK    8  A    between atoms: C_13  and  C_15
REMARK    9  A    between atoms: C_14  and  C_16
REMARK   10  A    between atoms: C_22  and  C_25
REMARK                            x       y       z     vdW  Elec       q    Type
REMARK                         _______ _______ _______ _____ _____    ______ ____
ROOT
ATOM      1  O   UNL     1      -3.419   4.154  24.115  0.00  0.00    -0.366 OA
ATOM     10  C   UNL     1      -3.382   5.003  25.284  0.00  0.00    +0.159 C 
ATOM     11  C   UNL     1      -1.912   5.305  25.550  0.00  0.00    +0.175 C 
ATOM     12  C   UNL     1      -1.232   4.074  24.988  0.00  0.00    +0.176 C 
ATOM     13  C   UNL     1      -2.074   3.796  23.755  0.00  0.00    +0.167 C 
ENDROOT
BRANCH  11   2
ATOM      2  O   UNL     1      -1.553   6.459  24.791  0.00  0.00    -0.387 OA
ATOM     35  H   UNL     1      -2.255   7.120  24.917  0.00  0.00    +0.210 HD
ENDBRANCH  11   2
BRANCH  12   3
ATOM      3  O   UNL     1       0.127   4.284  24.665  0.00  0.00    -0.387 OA
ATOM     36  H   UNL     1       0.221   5.210  24.385  0.00  0.00    +0.210 HD
ENDBRANCH  12   3
BRANCH  10  14
ATOM     14  C   UNL     1      -4.052   4.251  26.427  0.00  0.00    +0.130 C 
BRANCH  14  16
ATOM      4  O   UNL     1      -6.253   3.702  25.728  0.00  0.00    -0.276 OA
ATOM      7  N   UNL     1      -4.661   2.015  25.580  0.00  0.00    -0.298 N 
ATOM      8  N   UNL     1      -3.823  -0.619  24.721  0.00  0.00    -0.327 N 
ATOM     16  C   UNL     1      -5.095   3.308  25.880  0.00  0.00    +0.218 C 
ATOM     17  C   UNL     1      -3.284   1.549  25.761  0.00  0.00    +0.126 C 
ATOM     18  C   UNL     1      -5.610   1.045  25.039  0.00  0.00    +0.126 C 
ATOM     19  C   UNL     1      -3.185   0.028  25.870  0.00  0.00    +0.124 C 
ATOM     20  C   UNL     1      -4.942   0.071  24.071  0.00  0.00    +0.124 C 
BRANCH   8  21
ATOM     21  C   UNL     1      -3.406  -1.871  24.276  0.00  0.00    +0.030 A 
ATOM     23  C   UNL     1      -4.341  -2.785  23.789  0.00  0.00    +0.023 A 
ATOM     24  C   UNL     1      -2.053  -2.211  24.317  0.00  0.00    +0.023 A 
ATOM     26  C   UNL     1      -3.922  -4.039  23.344  0.00  0.00    +0.002 A 
ATOM     27  C   UNL     1      -1.636  -3.464  23.871  0.00  0.00    +0.002 A 
ATOM     28  C   UNL     1      -2.570  -4.378  23.384  0.00  0.00    +0.000 A 
ENDBRANCH   8  21
ENDBRANCH  14  16
ENDBRANCH  10  14
BRANCH  13  15
ATOM     15  C   UNL     1      -2.032   2.344  23.312  0.00  0.00    +0.138 C 
BRANCH  15   9
ATOM      5  O   UNL     1      -0.479   0.526  24.902  0.00  0.00    -0.270 OA
ATOM      9  N   UNL     1      -0.686   1.919  23.059  0.00  0.00    -0.309 N 
ATOM     22  C   UNL     1      -0.007   1.031  23.887  0.00  0.00    +0.244 C 
ATOM     37  H   UNL     1      -0.254   2.256  22.205  0.00  0.00    +0.149 HD
BRANCH  22  25
ATOM     25  C   UNL     1       1.392   0.711  23.502  0.00  0.00    +0.037 A 
ATOM     29  C   UNL     1       1.808  -0.619  23.424  0.00  0.00    +0.016 A 
ATOM     30  C   UNL     1       2.289   1.740  23.216  0.00  0.00    +0.016 A 
ATOM     31  C   UNL     1       3.121  -0.918  23.063  0.00  0.00    +0.046 A 
ATOM     32  C   UNL     1       3.602   1.440  22.853  0.00  0.00    +0.046 A 
ATOM     33  C   UNL     1       4.018   0.111  22.778  0.00  0.00    +0.120 A 
BRANCH  33   6
ATOM      6  O   UNL     1       5.301  -0.181  22.424  0.00  0.00    -0.495 OA
ATOM     34  C   UNL     1       6.261  -0.258  23.476  0.00  0.00    +0.277 C 
ENDBRANCH  33   6
ENDBRANCH  22  25
ENDBRANCH  15   9
ENDBRANCH  13  15
TORSDOF 9
ENDMDL
MODEL 5
REMARK VINA RESULT:       7.5      1.276      1.996
REMARK  Name = 40777982
REMARK  10 active torsions:
REMARK  status: ('A' for Active; 'I' for Inactive)
REMARK    1  A    between atoms: O_2  and  C_11
REMARK    2  A    between atoms: O_3  and  C_12
REMARK    3  A    between atoms: O_6  and  C_33
REMARK    4  A    between atoms: O_6  and  C_34
REMARK    5  A    between atoms: N_8  and  C_21
REMARK    6  A    between atoms: N_9  and  C_15
REMARK    7  A    between atoms: C_10  and  C_14
REMARK    8  A    between atoms: C_13  and  C_15
REMARK    9  A    between atoms: C_14  and  C_16
REMARK   10  A    between atoms: C_22  and  C_25
REMARK                            x       y       z     vdW  Elec       q    Type
REMARK                         _______ _______ _______ _____ _____    ______ ____
ROOT
ATOM      1  O   UNL     1      -3.926   3.386  23.620  0.00  0.00    -0.366 OA
ATOM     10  C   UNL     1      -4.950   2.430  23.981  0.00  0.00    +0.159 C 
ATOM     11  C   UNL     1      -5.144   2.558  25.488  0.00  0.00    +0.175 C 
ATOM     12  C   UNL     1      -3.776   3.020  25.943  0.00  0.00    +0.176 C 
ATOM     13  C   UNL     1      -3.381   3.963  24.819  0.00  0.00    +0.167 C 
ENDROOT
BRANCH  11   2
ATOM      2  O   UNL     1      -6.115   3.577  25.724  0.00  0.00    -0.387 OA
ATOM     35  H   UNL     1      -6.075   3.803  26.668  0.00  0.00    +0.210 HD
ENDBRANCH  11   2
BRANCH  12   3
ATOM      3  O   UNL     1      -3.793   3.669  27.197  0.00  0.00    -0.387 OA
ATOM     36  H   UNL     1      -3.557   4.601  27.047  0.00  0.00    +0.210 HD
ENDBRANCH  12   3
BRANCH  10  14
ATOM     14  C   UNL     1      -4.468   1.049  23.557  0.00  0.00    +0.130 C 
BRANCH  14  16
ATOM      4  O   UNL     1      -4.065   0.038  25.667  0.00  0.00    -0.276 OA
ATOM      7  N   UNL     1      -2.203   0.464  24.342  0.00  0.00    -0.298 N 
ATOM      8  N   UNL     1       0.623   0.205  23.774  0.00  0.00    -0.327 N 
ATOM     16  C   UNL     1      -3.571   0.469  24.622  0.00  0.00    +0.218 C 
ATOM     17  C   UNL     1      -1.619   0.975  23.100  0.00  0.00    +0.126 C 
ATOM     18  C   UNL     1      -1.270  -0.089  25.321  0.00  0.00    +0.126 C 
ATOM     19  C   UNL     1      -0.142   1.339  23.248  0.00  0.00    +0.124 C 
ATOM     20  C   UNL     1      -0.064  -0.746  24.652  0.00  0.00    +0.124 C 
BRANCH   8  21
ATOM     21  C   UNL     1       1.975   0.052  23.480  0.00  0.00    +0.030 A 
ATOM     23  C   UNL     1       2.624  -1.146  23.784  0.00  0.00    +0.023 A 
ATOM     24  C   UNL     1       2.682   1.094  22.879  0.00  0.00    +0.023 A 
ATOM     26  C   UNL     1       3.978  -1.300  23.488  0.00  0.00    +0.002 A 
ATOM     27  C   UNL     1       4.035   0.939  22.583  0.00  0.00    +0.002 A 
ATOM     28  C   UNL     1       4.683  -0.258  22.887  0.00  0.00    +0.000 A 
ENDBRANCH   8  21
ENDBRANCH  14  16
ENDBRANCH  10  14
BRANCH  13  15
ATOM     15  C   UNL     1      -1.880   4.129  24.670  0.00  0.00    +0.138 C 
BRANCH  15   9
ATOM      5  O   UNL     1       0.784   3.077  24.880  0.00  0.00    -0.270 OA
ATOM      9  N   UNL     1      -1.197   3.759  25.875  0.00  0.00    -0.309 N 
ATOM     22  C   UNL     1       0.100   3.255  25.884  0.00  0.00    +0.244 C 
ATOM     37  H   UNL     1      -1.685   3.932  26.748  0.00  0.00    +0.149 HD
BRANCH  22  25
ATOM     25  C   UNL     1       0.657   2.895  27.214  0.00  0.00    +0.037 A 
ATOM     29  C   UNL     1      -0.166   2.318  28.182  0.00  0.00    +0.016 A 
ATOM     30  C   UNL     1       2.003   3.132  27.494  0.00  0.00    +0.016 A 
ATOM     31  C   UNL     1       0.358   1.980  29.429  0.00  0.00    +0.046 A 
ATOM     32  C   UNL     1       2.526   2.793  28.741  0.00  0.00    +0.046 A 
ATOM     33  C   UNL     1       1.703   2.217  29.709  0.00  0.00    +0.120 A 
BRANCH  33   6
ATOM      6  O   UNL     1       2.214   1.887  30.928  0.00  0.00    -0.495 OA
ATOM     34  C   UNL     1       1.312   1.896  32.033  0.00  0.00    +0.277 C 
ENDBRANCH  33   6
ENDBRANCH  22  25
ENDBRANCH  15   9
ENDBRANCH  13  15
TORSDOF 9
ENDMDL
MODEL 6
REMARK VINA RESULT:       7.8      1.442      1.923
REMARK  Name = 40777982
REMARK  10 active torsions:
REMARK  status: ('A' for Active; 'I' for Inactive)
REMARK    1  A    between atoms: O_2  and  C_11
REMARK    2  A    between atoms: O_3  and  C_12
REMARK    3  A    between atoms: O_6  and  C_33
REMARK    4  A    between atoms: O_6  and  C_34
REMARK    5  A    between atoms: N_8  and  C_21
REMARK    6  A    between atoms: N_9  and  C_15
REMARK    7  A    between atoms: C_10  and  C_14
REMARK    8  A    between atoms: C_13  and  C_15
REMARK    9  A    between atoms: C_14  and  C_16
REMARK   10  A    between atoms: C_22  and  C_25
REMARK                            x       y       z     vdW  Elec       q    Type
REMARK                         _______ _______ _______ _____ _____    ______ ____
ROOT
ATOM      1  O   UNL     1      -4.891   2.686  24.027  0.00  0.00    -0.366 OA
ATOM     10  C   UNL     1      -5.014   1.247  24.097  0.00  0.00    +0.159 C 
ATOM     11  C   UNL     1      -5.888   0.949  25.310  0.00  0.00    +0.175 C 
ATOM     12  C   UNL     1      -5.595   2.134  26.207  0.00  0.00    +0.176 C 
ATOM     13  C   UNL     1      -5.493   3.264  25.197  0.00  0.00    +0.167 C 
ENDROOT
BRANCH  11   2
ATOM      2  O   UNL     1      -7.251   0.971  24.889  0.00  0.00    -0.387 OA
ATOM     35  H   UNL     1      -7.528   0.050  24.754  0.00  0.00    +0.210 HD
ENDBRANCH  11   2
BRANCH  12   3
ATOM      3  O   UNL     1      -6.602   2.370  27.168  0.00  0.00    -0.387 OA
ATOM     36  H   UNL     1      -7.459   2.198  26.741  0.00  0.00    +0.210 HD
ENDBRANCH  12   3
BRANCH  10  14
ATOM     14  C   UNL     1      -3.611   0.665  24.216  0.00  0.00    +0.130 C 
BRANCH  14  16
ATOM      4  O   UNL     1      -3.063   2.431  22.727  0.00  0.00    -0.276 OA
ATOM      7  N   UNL     1      -1.330   1.009  23.341  0.00  0.00    -0.298 N 
ATOM      8  N   UNL     1       1.476   0.303  23.401  0.00  0.00    -0.327 N 
ATOM     16  C   UNL     1      -2.653   1.455  23.360  0.00  0.00    +0.218 C 
ATOM     17  C   UNL     1      -0.845  -0.151  24.094  0.00  0.00    +0.126 C 
ATOM     18  C   UNL     1      -0.340   1.725  22.541  0.00  0.00    +0.126 C 
ATOM     19  C   UNL     1       0.445  -0.732  23.516  0.00  0.00    +0.124 C 
ATOM     20  C   UNL     1       1.047   1.686  23.180  0.00  0.00    +0.124 C 
BRANCH   8  21
ATOM     21  C   UNL     1       2.829  -0.020  23.463  0.00  0.00    +0.030 A 
ATOM     23  C   UNL     1       3.791   0.947  23.170  0.00  0.00    +0.023 A 
ATOM     24  C   UNL     1       3.223  -1.311  23.819  0.00  0.00    +0.023 A 
ATOM     26  C   UNL     1       5.147   0.623  23.233  0.00  0.00    +0.002 A 
ATOM     27  C   UNL     1       4.578  -1.633  23.882  0.00  0.00    +0.002 A 
ATOM     28  C   UNL     1       5.540  -0.666  23.590  0.00  0.00    +0.000 A 
ENDBRANCH   8  21
ENDBRANCH  14  16
ENDBRANCH  10  14
BRANCH  13  15
ATOM     15  C   UNL     1      -4.653   4.432  25.682  0.00  0.00    +0.138 C 
BRANCH  15   9
ATOM      5  O   UNL     1      -1.991   4.527  24.609  0.00  0.00    -0.270 OA
ATOM      9  N   UNL     1      -3.454   3.976  26.322  0.00  0.00    -0.309 N 
ATOM     22  C   UNL     1      -2.200   4.061  25.726  0.00  0.00    +0.244 C 
ATOM     37  H   UNL     1      -3.548   3.629  27.272  0.00  0.00    +0.149 HD
BRANCH  22  25
ATOM     25  C   UNL     1      -1.060   3.520  26.511  0.00  0.00    +0.037 A 
ATOM     29  C   UNL     1      -1.186   3.333  27.888  0.00  0.00    +0.016 A 
ATOM     30  C   UNL     1       0.137   3.198  25.871  0.00  0.00    +0.016 A 
ATOM     31  C   UNL     1      -0.116   2.825  28.623  0.00  0.00    +0.046 A 
ATOM     32  C   UNL     1       1.207   2.689  26.606  0.00  0.00    +0.046 A 
ATOM     33  C   UNL     1       1.080   2.503  27.983  0.00  0.00    +0.120 A 
BRANCH  33   6
ATOM      6  O   UNL     1       2.125   2.007  28.701  0.00  0.00    -0.495 OA
ATOM     34  C   UNL     1       1.956   1.917  30.115  0.00  0.00    +0.277 C 
ENDBRANCH  33   6
ENDBRANCH  22  25
ENDBRANCH  15   9
ENDBRANCH  13  15
TORSDOF 9
ENDMDL
MODEL 7
REMARK VINA RESULT:       8.0      2.304      4.685
REMARK  Name = 40777982
REMARK  10 active torsions:
REMARK  status: ('A' for Active; 'I' for Inactive)
REMARK    1  A    between atoms: O_2  and  C_11
REMARK    2  A    between atoms: O_3  and  C_12
REMARK    3  A    between atoms: O_6  and  C_33
REMARK    4  A    between atoms: O_6  and  C_34
REMARK    5  A    between atoms: N_8  and  C_21
REMARK    6  A    between atoms: N_9  and  C_15
REMARK    7  A    between atoms: C_10  and  C_14
REMARK    8  A    between atoms: C_13  and  C_15
REMARK    9  A    between atoms: C_14  and  C_16
REMARK   10  A    between atoms: C_22  and  C_25
REMARK                            x       y       z     vdW  Elec       q    Type
REMARK                         _______ _______ _______ _____ _____    ______ ____
ROOT
ATOM      1  O   UNL     1      -5.157   4.630  25.410  0.00  0.00    -0.366 OA
ATOM     10  C   UNL     1      -4.037   5.371  24.876  0.00  0.00    +0.159 C 
ATOM     11  C   UNL     1      -3.610   4.648  23.604  0.00  0.00    +0.175 C 
ATOM     12  C   UNL     1      -4.021   3.221  23.901  0.00  0.00    +0.176 C 
ATOM     13  C   UNL     1      -5.332   3.428  24.641  0.00  0.00    +0.167 C 
ENDROOT
BRANCH  11   2
ATOM      2  O   UNL     1      -4.378   5.169  22.520  0.00  0.00    -0.387 OA
ATOM     35  H   UNL     1      -3.756   5.568  21.888  0.00  0.00    +0.210 HD
ENDBRANCH  11   2
BRANCH  12   3
ATOM      3  O   UNL     1      -4.186   2.433  22.741  0.00  0.00    -0.387 OA
ATOM     36  H   UNL     1      -3.638   2.826  22.041  0.00  0.00    +0.210 HD
ENDBRANCH  12   3
BRANCH  10  14
ATOM     14  C   UNL     1      -2.947   5.399  25.940  0.00  0.00    +0.130 C 
BRANCH  14  16
ATOM      4  O   UNL     1      -3.233   3.464  27.285  0.00  0.00    -0.276 OA
ATOM      7  N   UNL     1      -1.571   3.370  25.663  0.00  0.00    -0.298 N 
ATOM      8  N   UNL     1       0.409   1.912  24.137  0.00  0.00    -0.327 N 
ATOM     16  C   UNL     1      -2.606   3.992  26.364  0.00  0.00    +0.218 C 
ATOM     17  C   UNL     1      -0.828   3.999  24.569  0.00  0.00    +0.126 C 
ATOM     18  C   UNL     1      -1.186   2.004  26.010  0.00  0.00    +0.126 C 
ATOM     19  C   UNL     1       0.540   3.357  24.338  0.00  0.00    +0.124 C 
ATOM     20  C   UNL     1      -0.705   1.220  24.791  0.00  0.00    +0.124 C 
BRANCH   8  21
ATOM     21  C   UNL     1       1.337   1.204  23.376  0.00  0.00    +0.030 A 
ATOM     23  C   UNL     1       0.927   0.102  22.625  0.00  0.00    +0.023 A 
ATOM     24  C   UNL     1       2.675   1.599  23.364  0.00  0.00    +0.023 A 
ATOM     26  C   UNL     1       1.856  -0.606  21.862  0.00  0.00    +0.002 A 
ATOM     27  C   UNL     1       3.603   0.891  22.601  0.00  0.00    +0.002 A 
ATOM     28  C   UNL     1       3.193  -0.210  21.849  0.00  0.00    +0.000 A 
ENDBRANCH   8  21
ENDBRANCH  14  16
ENDBRANCH  10  14
BRANCH  13  15
ATOM     15  C   UNL     1      -5.691   2.277  25.563  0.00  0.00    +0.138 C 
BRANCH  15   9
ATOM      5  O   UNL     1      -5.778  -0.277  24.254  0.00  0.00    -0.270 OA
ATOM      9  N   UNL     1      -4.665   1.277  25.567  0.00  0.00    -0.309 N 
ATOM     22  C   UNL     1      -4.791   0.061  24.902  0.00  0.00    +0.244 C 
ATOM     37  H   UNL     1      -3.798   1.515  26.039  0.00  0.00    +0.149 HD
BRANCH  22  25
ATOM     25  C   UNL     1      -3.647  -0.878  25.025  0.00  0.00    +0.037 A 
ATOM     29  C   UNL     1      -2.781  -0.785  26.115  0.00  0.00    +0.016 A 
ATOM     30  C   UNL     1      -3.439  -1.855  24.051  0.00  0.00    +0.016 A 
ATOM     31  C   UNL     1      -1.707  -1.668  26.230  0.00  0.00    +0.046 A 
ATOM     32  C   UNL     1      -2.365  -2.738  24.166  0.00  0.00    +0.046 A 
ATOM     33  C   UNL     1      -1.499  -2.643  25.256  0.00  0.00    +0.120 A 
BRANCH  33   6
ATOM      6  O   UNL     1      -0.451  -3.505  25.368  0.00  0.00    -0.495 OA
ATOM     34  C   UNL     1       0.855  -2.934  25.428  0.00  0.00    +0.277 C 
ENDBRANCH  33   6
ENDBRANCH  22  25
ENDBRANCH  15   9
ENDBRANCH  13  15
TORSDOF 9
ENDMDL
MODEL 8
REMARK VINA RESULT:       8.7      2.101      5.587
REMARK  Name = 40777982
REMARK  10 active torsions:
REMARK  status: ('A' for Active; 'I' for Inactive)
REMARK    1  A    between atoms: O_2  and  C_11
REMARK    2  A    between atoms: O_3  and  C_12
REMARK    3  A    between atoms: O_6  and  C_33
REMARK    4  A    between atoms: O_6  and  C_34
REMARK    5  A    between atoms: N_8  and  C_21
REMARK    6  A    between atoms: N_9  and  C_15
REMARK    7  A    between atoms: C_10  and  C_14
REMARK    8  A    between atoms: C_13  and  C_15
REMARK    9  A    between atoms: C_14  and  C_16
REMARK   10  A    between atoms: C_22  and  C_25
REMARK                            x       y       z     vdW  Elec       q    Type
REMARK                         _______ _______ _______ _____ _____    ______ ____
ROOT
ATOM      1  O   UNL     1      -4.014   0.015  25.413  0.00  0.00    -0.366 OA
ATOM     10  C   UNL     1      -4.485   0.164  24.054  0.00  0.00    +0.159 C 
ATOM     11  C   UNL     1      -4.482  -1.232  23.442  0.00  0.00    +0.175 C 
ATOM     12  C   UNL     1      -3.373  -1.912  24.218  0.00  0.00    +0.176 C 
ATOM     13  C   UNL     1      -3.579  -1.341  25.610  0.00  0.00    +0.167 C 
ENDROOT
BRANCH  11   2
ATOM      2  O   UNL     1      -5.737  -1.845  23.733  0.00  0.00    -0.387 OA
ATOM     35  H   UNL     1      -5.575  -2.545  24.388  0.00  0.00    +0.210 HD
ENDBRANCH  11   2
BRANCH  12   3
ATOM      3  O   UNL     1      -3.464  -3.321  24.205  0.00  0.00    -0.387 OA
ATOM     36  H   UNL     1      -4.269  -3.566  24.692  0.00  0.00    +0.210 HD
ENDBRANCH  12   3
BRANCH  10  14
ATOM     14  C   UNL     1      -3.549   1.130  23.339  0.00  0.00    +0.130 C 
BRANCH  14  16
ATOM      4  O   UNL     1      -4.256   3.294  24.012  0.00  0.00    -0.276 OA
ATOM      7  N   UNL     1      -2.311   2.481  24.991  0.00  0.00    -0.298 N 
ATOM      8  N   UNL     1      -0.183   2.663  26.944  0.00  0.00    -0.327 N 
ATOM     16  C   UNL     1      -3.414   2.402  24.139  0.00  0.00    +0.218 C 
ATOM     17  C   UNL     1      -1.312   1.420  25.141  0.00  0.00    +0.126 C 
ATOM     18  C   UNL     1      -2.114   3.679  25.804  0.00  0.00    +0.126 C 
ATOM     19  C   UNL     1       0.018   1.934  25.689  0.00  0.00    +0.124 C 
ATOM     20  C   UNL     1      -1.458   3.356  27.145  0.00  0.00    +0.124 C 
BRANCH   8  21
ATOM     21  C   UNL     1       0.821   2.728  27.907  0.00  0.00    +0.030 A 
ATOM     23  C   UNL     1       2.081   3.226  27.568  0.00  0.00    +0.023 A 
ATOM     24  C   UNL     1       0.568   2.298  29.210  0.00  0.00    +0.023 A 
ATOM     26  C   UNL     1       3.086   3.292  28.534  0.00  0.00    +0.002 A 
ATOM     27  C   UNL     1       1.574   2.365  30.173  0.00  0.00    +0.002 A 
ATOM     28  C   UNL     1       2.832   2.863  29.836  0.00  0.00    +0.000 A 
ENDBRANCH   8  21
ENDBRANCH  14  16
ENDBRANCH  10  14
BRANCH  13  15
ATOM     15  C   UNL     1      -2.320  -1.355  26.460  0.00  0.00    +0.138 C 
BRANCH  15   9
ATOM      5  O   UNL     1      -0.778  -2.983  24.667  0.00  0.00    -0.270 OA
ATOM      9  N   UNL     1      -1.178  -0.945  25.699  0.00  0.00    -0.309 N 
ATOM     22  C   UNL     1      -0.487  -1.804  24.849  0.00  0.00    +0.244 C 
ATOM     37  H   UNL     1      -0.916   0.034  25.761  0.00  0.00    +0.149 HD
BRANCH  22  25
ATOM     25  C   UNL     1       0.693  -1.231  24.151  0.00  0.00    +0.037 A 
ATOM     29  C   UNL     1       0.520  -0.229  23.195  0.00  0.00    +0.016 A 
ATOM     30  C   UNL     1       1.974  -1.694  24.451  0.00  0.00    +0.016 A 
ATOM     31  C   UNL     1       1.627   0.308  22.540  0.00  0.00    +0.046 A 
ATOM     32  C   UNL     1       3.082  -1.157  23.796  0.00  0.00    +0.046 A 
ATOM     33  C   UNL     1       2.908  -0.155  22.840  0.00  0.00    +0.120 A 
BRANCH  33   6
ATOM      6  O   UNL     1       3.990   0.369  22.200  0.00  0.00    -0.495 OA
ATOM     34  C   UNL     1       5.225   0.376  22.915  0.00  0.00    +0.277 C 
ENDBRANCH  33   6
ENDBRANCH  22  25
ENDBRANCH  15   9
ENDBRANCH  13  15
TORSDOF 9
ENDMDL
