MODEL 1
REMARK VINA RESULT:      -6.1      0.000      0.000
REMARK  Name = 75367736
REMARK  5 active torsions:
REMARK  status: ('A' for Active; 'I' for Inactive)
REMARK    1  A    between atoms: O_2  and  C_7
REMARK    2  A    between atoms: O_2  and  C_14
REMARK    3  A    between atoms: N_3  and  C_9
REMARK    4  A    between atoms: N_4  and  C_15
REMARK    5  A    between atoms: C_9  and  C_12
REMARK                            x       y       z     vdW  Elec       q    Type
REMARK                         _______ _______ _______ _____ _____    ______ ____
ROOT
ATOM      1  O   UNL     1      -0.132  -1.094  24.654  0.00  0.00    -0.376 OA
ATOM      3  N   UNL     1      -2.202   0.982  23.590  0.00  0.00    -0.291 NA
ATOM      6  C   UNL     1      -3.099   0.172  24.421  0.00  0.00    +0.118 C 
ATOM      7  C   UNL     1      -2.483  -0.987  25.222  0.00  0.00    +0.157 C 
ATOM      8  C   UNL     1      -0.880   1.212  24.176  0.00  0.00    +0.113 C 
ATOM     10  C   UNL     1      -1.387  -1.746  24.486  0.00  0.00    +0.192 C 
ATOM     11  C   UNL     1       0.053   0.049  23.832  0.00  0.00    +0.175 C 
ENDROOT
BRANCH   7   2
ATOM      2  O   UNL     1      -3.525  -1.911  25.536  0.00  0.00    -0.376 OA
ATOM     14  C   UNL     1      -3.687  -2.875  24.507  0.00  0.00    +0.194 C 
ENDBRANCH   7   2
BRANCH   3   9
ATOM      9  C   UNL     1      -2.853   2.242  23.227  0.00  0.00    +0.159 C 
BRANCH   9  12
ATOM      4  N   UNL     1      -3.465   3.613  25.246  0.00  0.00    -0.336 N 
ATOM      5  N   UNL     1      -5.061   2.302  24.429  0.00  0.00    -0.239 NA
ATOM     12  C   UNL     1      -3.816   2.701  24.289  0.00  0.00    +0.124 A 
ATOM     13  C   UNL     1      -4.556   3.807  26.046  0.00  0.00    +0.106 A 
ATOM     15  C   UNL     1      -2.184   4.261  25.398  0.00  0.00    +0.150 C 
ATOM     16  C   UNL     1      -5.527   2.988  25.522  0.00  0.00    +0.130 A 
ENDBRANCH   9  12
ENDBRANCH   3   9
TORSDOF 3
ENDMDL
MODEL 2
REMARK VINA RESULT:      -5.8      2.533      5.275
REMARK  Name = 75367736
REMARK  5 active torsions:
REMARK  status: ('A' for Active; 'I' for Inactive)
REMARK    1  A    between atoms: O_2  and  C_7
REMARK    2  A    between atoms: O_2  and  C_14
REMARK    3  A    between atoms: N_3  and  C_9
REMARK    4  A    between atoms: N_4  and  C_15
REMARK    5  A    between atoms: C_9  and  C_12
REMARK                            x       y       z     vdW  Elec       q    Type
REMARK                         _______ _______ _______ _____ _____    ______ ____
ROOT
ATOM      1  O   UNL     1      -5.596   3.084  26.190  0.00  0.00    -0.376 OA
ATOM      3  N   UNL     1      -3.801   1.725  24.032  0.00  0.00    -0.291 NA
ATOM      6  C   UNL     1      -2.822   2.670  24.579  0.00  0.00    +0.118 C 
ATOM      7  C   UNL     1      -3.260   3.553  25.759  0.00  0.00    +0.157 C 
ATOM      8  C   UNL     1      -4.669   1.106  25.034  0.00  0.00    +0.113 C 
ATOM     10  C   UNL     1      -4.695   4.055  25.668  0.00  0.00    +0.192 C 
ATOM     11  C   UNL     1      -5.875   2.006  25.308  0.00  0.00    +0.175 C 
ENDROOT
BRANCH   7   2
ATOM      2  O   UNL     1      -2.397   4.690  25.806  0.00  0.00    -0.376 OA
ATOM     14  C   UNL     1      -1.193   4.453  25.094  0.00  0.00    +0.194 C 
ENDBRANCH   7   2
BRANCH   3   9
ATOM      9  C   UNL     1      -3.124   0.717  23.213  0.00  0.00    +0.159 C 
BRANCH   9  12
ATOM      4  N   UNL     1      -2.078  -1.093  24.613  0.00  0.00    -0.336 N 
ATOM      5  N   UNL     1      -4.110  -1.515  23.822  0.00  0.00    -0.239 NA
ATOM     12  C   UNL     1      -3.133  -0.637  23.872  0.00  0.00    +0.124 A 
ATOM     13  C   UNL     1      -2.405  -2.341  25.064  0.00  0.00    +0.106 A 
ATOM     15  C   UNL     1      -0.842  -0.399  24.882  0.00  0.00    +0.150 C 
ATOM     16  C   UNL     1      -3.662  -2.580  24.563  0.00  0.00    +0.130 A 
ENDBRANCH   9  12
ENDBRANCH   3   9
TORSDOF 3
ENDMDL
MODEL 3
REMARK VINA RESULT:      -5.8      2.546      4.679
REMARK  Name = 75367736
REMARK  5 active torsions:
REMARK  status: ('A' for Active; 'I' for Inactive)
REMARK    1  A    between atoms: O_2  and  C_7
REMARK    2  A    between atoms: O_2  and  C_14
REMARK    3  A    between atoms: N_3  and  C_9
REMARK    4  A    between atoms: N_4  and  C_15
REMARK    5  A    between atoms: C_9  and  C_12
REMARK                            x       y       z     vdW  Elec       q    Type
REMARK                         _______ _______ _______ _____ _____    ______ ____
ROOT
ATOM      1  O   UNL     1      -2.013   4.724  25.756  0.00  0.00    -0.376 OA
ATOM      3  N   UNL     1      -2.136   1.896  24.447  0.00  0.00    -0.291 NA
ATOM      6  C   UNL     1      -3.572   2.193  24.483  0.00  0.00    +0.118 C 
ATOM      7  C   UNL     1      -4.007   3.566  25.018  0.00  0.00    +0.157 C 
ATOM      8  C   UNL     1      -1.291   3.039  24.098  0.00  0.00    +0.113 C 
ATOM     10  C   UNL     1      -3.192   4.065  26.204  0.00  0.00    +0.192 C 
ATOM     11  C   UNL     1      -0.967   3.851  25.354  0.00  0.00    +0.175 C 
ENDROOT
BRANCH   7   2
ATOM      2  O   UNL     1      -5.371   3.470  25.429  0.00  0.00    -0.376 OA
ATOM     14  C   UNL     1      -5.821   2.125  25.410  0.00  0.00    +0.194 C 
ENDBRANCH   7   2
BRANCH   3   9
ATOM      9  C   UNL     1      -1.879   0.753  23.569  0.00  0.00    +0.159 C 
BRANCH   9  12
ATOM      4  N   UNL     1      -2.036  -1.424  24.820  0.00  0.00    -0.336 N 
ATOM      5  N   UNL     1      -3.860  -0.789  23.723  0.00  0.00    -0.239 NA
ATOM     12  C   UNL     1      -2.618  -0.478  24.022  0.00  0.00    +0.124 A 
ATOM     13  C   UNL     1      -2.967  -2.400  25.043  0.00  0.00    +0.106 A 
ATOM     15  C   UNL     1      -0.689  -1.411  25.340  0.00  0.00    +0.150 C 
ATOM     16  C   UNL     1      -4.083  -1.986  24.357  0.00  0.00    +0.130 A 
ENDBRANCH   9  12
ENDBRANCH   3   9
TORSDOF 3
ENDMDL
MODEL 4
REMARK VINA RESULT:      -5.3      0.939      2.544
REMARK  Name = 75367736
REMARK  5 active torsions:
REMARK  status: ('A' for Active; 'I' for Inactive)
REMARK    1  A    between atoms: O_2  and  C_7
REMARK    2  A    between atoms: O_2  and  C_14
REMARK    3  A    between atoms: N_3  and  C_9
REMARK    4  A    between atoms: N_4  and  C_15
REMARK    5  A    between atoms: C_9  and  C_12
REMARK                            x       y       z     vdW  Elec       q    Type
REMARK                         _______ _______ _______ _____ _____    ______ ____
ROOT
ATOM      1  O   UNL     1      -2.018  -2.343  25.043  0.00  0.00    -0.376 OA
ATOM      3  N   UNL     1      -2.608   0.574  24.112  0.00  0.00    -0.291 NA
ATOM      6  C   UNL     1      -1.209   0.477  23.683  0.00  0.00    +0.118 C 
ATOM      7  C   UNL     1      -0.486  -0.863  23.893  0.00  0.00    +0.157 C 
ATOM      8  C   UNL     1      -3.393  -0.642  23.893  0.00  0.00    +0.113 C 
ATOM     10  C   UNL     1      -0.835  -1.566  25.198  0.00  0.00    +0.192 C 
ATOM     11  C   UNL     1      -3.223  -1.593  25.080  0.00  0.00    +0.175 C 
ENDROOT
BRANCH   7   2
ATOM      2  O   UNL     1       0.920  -0.613  23.889  0.00  0.00    -0.376 OA
ATOM     14  C   UNL     1       1.331   0.007  22.681  0.00  0.00    +0.194 C 
ENDBRANCH   7   2
BRANCH   3   9
ATOM      9  C   UNL     1      -3.244   1.740  23.495  0.00  0.00    +0.159 C 
BRANCH   9  12
ATOM      4  N   UNL     1      -3.637   3.528  25.220  0.00  0.00    -0.336 N 
ATOM      5  N   UNL     1      -5.379   2.244  24.724  0.00  0.00    -0.239 NA
ATOM     12  C   UNL     1      -4.112   2.486  24.473  0.00  0.00    +0.124 A 
ATOM     13  C   UNL     1      -4.668   3.978  25.997  0.00  0.00    +0.106 A 
ATOM     15  C   UNL     1      -2.298   4.068  25.205  0.00  0.00    +0.150 C 
ATOM     16  C   UNL     1      -5.732   3.170  25.673  0.00  0.00    +0.130 A 
ENDBRANCH   9  12
ENDBRANCH   3   9
TORSDOF 3
ENDMDL
MODEL 5
REMARK VINA RESULT:      -5.3      1.128      2.974
REMARK  Name = 75367736
REMARK  5 active torsions:
REMARK  status: ('A' for Active; 'I' for Inactive)
REMARK    1  A    between atoms: O_2  and  C_7
REMARK    2  A    between atoms: O_2  and  C_14
REMARK    3  A    between atoms: N_3  and  C_9
REMARK    4  A    between atoms: N_4  and  C_15
REMARK    5  A    between atoms: C_9  and  C_12
REMARK                            x       y       z     vdW  Elec       q    Type
REMARK                         _______ _______ _______ _____ _____    ______ ____
ROOT
ATOM      1  O   UNL     1      -2.271  -2.589  24.911  0.00  0.00    -0.376 OA
ATOM      3  N   UNL     1      -2.869   0.416  24.325  0.00  0.00    -0.291 NA
ATOM      6  C   UNL     1      -1.462   0.379  23.913  0.00  0.00    +0.118 C 
ATOM      7  C   UNL     1      -0.731  -0.972  23.975  0.00  0.00    +0.157 C 
ATOM      8  C   UNL     1      -3.639  -0.770  23.948  0.00  0.00    +0.113 C 
ATOM     10  C   UNL     1      -1.097  -1.829  25.179  0.00  0.00    +0.192 C 
ATOM     11  C   UNL     1      -3.483  -1.856  25.015  0.00  0.00    +0.175 C 
ENDROOT
BRANCH   7   2
ATOM      2  O   UNL     1       0.672  -0.715  24.026  0.00  0.00    -0.376 OA
ATOM     14  C   UNL     1       1.114  -0.028  22.866  0.00  0.00    +0.194 C 
ENDBRANCH   7   2
BRANCH   3   9
ATOM      9  C   UNL     1      -3.504   1.643  23.841  0.00  0.00    +0.159 C 
BRANCH   9  12
ATOM      4  N   UNL     1      -3.982   3.388  25.589  0.00  0.00    -0.336 N 
ATOM      5  N   UNL     1      -1.975   3.472  24.641  0.00  0.00    -0.239 NA
ATOM     12  C   UNL     1      -3.125   2.836  24.677  0.00  0.00    +0.124 A 
ATOM     13  C   UNL     1      -3.337   4.444  26.170  0.00  0.00    +0.106 A 
ATOM     15  C   UNL     1      -5.324   2.951  25.894  0.00  0.00    +0.150 C 
ATOM     16  C   UNL     1      -2.102   4.476  25.569  0.00  0.00    +0.130 A 
ENDBRANCH   9  12
ENDBRANCH   3   9
TORSDOF 3
ENDMDL
MODEL 6
REMARK VINA RESULT:      -5.2      1.971      3.221
REMARK  Name = 75367736
REMARK  5 active torsions:
REMARK  status: ('A' for Active; 'I' for Inactive)
REMARK    1  A    between atoms: O_2  and  C_7
REMARK    2  A    between atoms: O_2  and  C_14
REMARK    3  A    between atoms: N_3  and  C_9
REMARK    4  A    between atoms: N_4  and  C_15
REMARK    5  A    between atoms: C_9  and  C_12
REMARK                            x       y       z     vdW  Elec       q    Type
REMARK                         _______ _______ _______ _____ _____    ______ ____
ROOT
ATOM      1  O   UNL     1       0.506   2.323  25.585  0.00  0.00    -0.376 OA
ATOM      3  N   UNL     1      -1.970   2.361  23.689  0.00  0.00    -0.291 NA
ATOM      6  C   UNL     1      -1.418   1.053  23.317  0.00  0.00    +0.118 C 
ATOM      7  C   UNL     1      -0.170   0.562  24.068  0.00  0.00    +0.157 C 
ATOM      8  C   UNL     1      -1.897   2.662  25.119  0.00  0.00    +0.113 C 
ATOM     10  C   UNL     1       0.847   1.653  24.377  0.00  0.00    +0.192 C 
ATOM     11  C   UNL     1      -0.537   3.278  25.454  0.00  0.00    +0.175 C 
ENDROOT
BRANCH   7   2
ATOM      2  O   UNL     1       0.473  -0.425  23.262  0.00  0.00    -0.376 OA
ATOM     14  C   UNL     1       1.711   0.049  22.756  0.00  0.00    +0.194 C 
ENDBRANCH   7   2
BRANCH   3   9
ATOM      9  C   UNL     1      -3.337   2.493  23.182  0.00  0.00    +0.159 C 
BRANCH   9  12
ATOM      4  N   UNL     1      -4.873   1.440  24.873  0.00  0.00    -0.336 N 
ATOM      5  N   UNL     1      -4.821   3.660  24.843  0.00  0.00    -0.239 NA
ATOM     12  C   UNL     1      -4.343   2.562  24.299  0.00  0.00    +0.124 A 
ATOM     13  C   UNL     1      -5.744   1.848  25.843  0.00  0.00    +0.106 A 
ATOM     15  C   UNL     1      -4.579   0.068  24.530  0.00  0.00    +0.150 C 
ATOM     16  C   UNL     1      -5.695   3.221  25.805  0.00  0.00    +0.130 A 
ENDBRANCH   9  12
ENDBRANCH   3   9
TORSDOF 3
ENDMDL
MODEL 7
REMARK VINA RESULT:      -4.8     17.039     19.223
REMARK  Name = 75367736
REMARK  5 active torsions:
REMARK  status: ('A' for Active; 'I' for Inactive)
REMARK    1  A    between atoms: O_2  and  C_7
REMARK    2  A    between atoms: O_2  and  C_14
REMARK    3  A    between atoms: N_3  and  C_9
REMARK    4  A    between atoms: N_4  and  C_15
REMARK    5  A    between atoms: C_9  and  C_12
REMARK                            x       y       z     vdW  Elec       q    Type
REMARK                         _______ _______ _______ _____ _____    ______ ____
ROOT
ATOM      1  O   UNL     1      11.083   8.315  21.737  0.00  0.00    -0.376 OA
ATOM      3  N   UNL     1      13.550   8.401  19.830  0.00  0.00    -0.291 NA
ATOM      6  C   UNL     1      12.499   8.723  18.858  0.00  0.00    +0.118 C 
ATOM      7  C   UNL     1      11.058   8.853  19.377  0.00  0.00    +0.157 C 
ATOM      8  C   UNL     1      13.373   9.028  21.140  0.00  0.00    +0.113 C 
ATOM     10  C   UNL     1      10.684   7.844  20.454  0.00  0.00    +0.192 C 
ATOM     11  C   UNL     1      12.467   8.161  22.017  0.00  0.00    +0.175 C 
ENDROOT
BRANCH   7   2
ATOM      2  O   UNL     1      10.171   8.669  18.274  0.00  0.00    -0.376 OA
ATOM     14  C   UNL     1      10.885   8.522  17.057  0.00  0.00    +0.194 C 
ENDBRANCH   7   2
BRANCH   3   9
ATOM      9  C   UNL     1      14.867   8.701  19.266  0.00  0.00    +0.159 C 
BRANCH   9  12
ATOM      4  N   UNL     1      16.721   7.424  20.388  0.00  0.00    -0.336 N 
ATOM      5  N   UNL     1      15.861   6.502  18.560  0.00  0.00    -0.239 NA
ATOM     12  C   UNL     1      15.804   7.529  19.379  0.00  0.00    +0.124 A 
ATOM     13  C   UNL     1      17.405   6.256  20.200  0.00  0.00    +0.106 A 
ATOM     15  C   UNL     1      16.940   8.364  21.462  0.00  0.00    +0.150 C 
ATOM     16  C   UNL     1      16.857   5.705  19.067  0.00  0.00    +0.130 A 
ENDBRANCH   9  12
ENDBRANCH   3   9
TORSDOF 3
ENDMDL
MODEL 8
REMARK VINA RESULT:      -4.2      1.243      2.067
REMARK  Name = 75367736
REMARK  5 active torsions:
REMARK  status: ('A' for Active; 'I' for Inactive)
REMARK    1  A    between atoms: O_2  and  C_7
REMARK    2  A    between atoms: O_2  and  C_14
REMARK    3  A    between atoms: N_3  and  C_9
REMARK    4  A    between atoms: N_4  and  C_15
REMARK    5  A    between atoms: C_9  and  C_12
REMARK                            x       y       z     vdW  Elec       q    Type
REMARK                         _______ _______ _______ _____ _____    ______ ____
ROOT
ATOM      1  O   UNL     1       0.685   1.282  24.666  0.00  0.00    -0.376 OA
ATOM      3  N   UNL     1      -2.136   1.578  23.368  0.00  0.00    -0.291 NA
ATOM      6  C   UNL     1      -2.250   0.197  23.849  0.00  0.00    +0.118 C 
ATOM      7  C   UNL     1      -1.068  -0.387  24.639  0.00  0.00    +0.157 C 
ATOM      8  C   UNL     1      -1.443   2.482  24.286  0.00  0.00    +0.113 C 
ATOM     10  C   UNL     1       0.301   0.026  24.116  0.00  0.00    +0.192 C 
ATOM     11  C   UNL     1       0.068   2.406  24.053  0.00  0.00    +0.175 C 
ENDROOT
BRANCH   7   2
ATOM      2  O   UNL     1      -1.152  -1.811  24.574  0.00  0.00    -0.376 OA
ATOM     14  C   UNL     1      -2.502  -2.247  24.543  0.00  0.00    +0.194 C 
ENDBRANCH   7   2
BRANCH   3   9
ATOM      9  C   UNL     1      -3.456   2.095  23.002  0.00  0.00    +0.159 C 
BRANCH   9  12
ATOM      4  N   UNL     1      -4.947   1.929  25.021  0.00  0.00    -0.336 N 
ATOM      5  N   UNL     1      -4.149   3.948  24.553  0.00  0.00    -0.239 NA
ATOM     12  C   UNL     1      -4.173   2.686  24.186  0.00  0.00    +0.124 A 
ATOM     13  C   UNL     1      -5.449   2.763  25.982  0.00  0.00    +0.106 A 
ATOM     15  C   UNL     1      -5.199   0.511  24.923  0.00  0.00    +0.150 C 
ATOM     16  C   UNL     1      -4.943   4.002  25.672  0.00  0.00    +0.130 A 
ENDBRANCH   9  12
ENDBRANCH   3   9
TORSDOF 3
ENDMDL
MODEL 9
REMARK VINA RESULT:      -3.7      1.595      2.187
REMARK  Name = 75367736
REMARK  5 active torsions:
REMARK  status: ('A' for Active; 'I' for Inactive)
REMARK    1  A    between atoms: O_2  and  C_7
REMARK    2  A    between atoms: O_2  and  C_14
REMARK    3  A    between atoms: N_3  and  C_9
REMARK    4  A    between atoms: N_4  and  C_15
REMARK    5  A    between atoms: C_9  and  C_12
REMARK                            x       y       z     vdW  Elec       q    Type
REMARK                         _______ _______ _______ _____ _____    ______ ____
ROOT
ATOM      1  O   UNL     1      -0.617  -1.768  25.252  0.00  0.00    -0.376 OA
ATOM      3  N   UNL     1      -2.821   0.392  24.799  0.00  0.00    -0.291 NA
ATOM      6  C   UNL     1      -3.675  -0.799  24.847  0.00  0.00    +0.118 C 
ATOM      7  C   UNL     1      -3.003  -2.154  25.122  0.00  0.00    +0.157 C 
ATOM      8  C   UNL     1      -1.720   0.384  25.764  0.00  0.00    +0.113 C 
ATOM     10  C   UNL     1      -1.648  -2.330  24.448  0.00  0.00    +0.192 C 
ATOM     11  C   UNL     1      -0.515  -0.353  25.175  0.00  0.00    +0.175 C 
ENDROOT
BRANCH   7   2
ATOM      2  O   UNL     1      -3.870  -3.184  24.645  0.00  0.00    -0.376 OA
ATOM     14  C   UNL     1      -4.606  -2.754  23.511  0.00  0.00    +0.194 C 
ENDBRANCH   7   2
BRANCH   3   9
ATOM      9  C   UNL     1      -3.635   1.602  24.927  0.00  0.00    +0.159 C 
BRANCH   9  12
ATOM      4  N   UNL     1      -1.827   3.135  24.086  0.00  0.00    -0.336 N 
ATOM      5  N   UNL     1      -2.852   3.759  25.954  0.00  0.00    -0.239 NA
ATOM     12  C   UNL     1      -2.786   2.841  25.015  0.00  0.00    +0.124 A 
ATOM     13  C   UNL     1      -1.245   4.315  24.456  0.00  0.00    +0.106 A 
ATOM     15  C   UNL     1      -1.479   2.355  22.922  0.00  0.00    +0.150 C 
ATOM     16  C   UNL     1      -1.894   4.680  25.611  0.00  0.00    +0.130 A 
ENDBRANCH   9  12
ENDBRANCH   3   9
TORSDOF 3
ENDMDL
MODEL 10
REMARK VINA RESULT:      -3.5     14.346     16.356
REMARK  Name = 75367736
REMARK  5 active torsions:
REMARK  status: ('A' for Active; 'I' for Inactive)
REMARK    1  A    between atoms: O_2  and  C_7
REMARK    2  A    between atoms: O_2  and  C_14
REMARK    3  A    between atoms: N_3  and  C_9
REMARK    4  A    between atoms: N_4  and  C_15
REMARK    5  A    between atoms: C_9  and  C_12
REMARK                            x       y       z     vdW  Elec       q    Type
REMARK                         _______ _______ _______ _____ _____    ______ ____
ROOT
ATOM      1  O   UNL     1      -9.541  -9.691  15.137  0.00  0.00    -0.376 OA
ATOM      3  N   UNL     1      -6.616 -10.086  14.128  0.00  0.00    -0.291 NA
ATOM      6  C   UNL     1      -6.402 -10.346  15.556  0.00  0.00    +0.118 C 
ATOM      7  C   UNL     1      -7.629 -10.319  16.482  0.00  0.00    +0.157 C 
ATOM      8  C   UNL     1      -7.861 -10.641  13.594  0.00  0.00    +0.113 C 
ATOM     10  C   UNL     1      -8.646  -9.236  16.145  0.00  0.00    +0.192 C 
ATOM     11  C   UNL     1      -9.011  -9.657  13.820  0.00  0.00    +0.175 C 
ENDROOT
BRANCH   7   2
ATOM      2  O   UNL     1      -7.172 -10.095  17.816  0.00  0.00    -0.376 OA
ATOM     14  C   UNL     1      -5.830 -10.526  17.981  0.00  0.00    +0.194 C 
ENDBRANCH   7   2
BRANCH   3   9
ATOM      9  C   UNL     1      -5.456 -10.531  13.355  0.00  0.00    +0.159 C 
BRANCH   9  12
ATOM      4  N   UNL     1      -4.131  -9.821  11.338  0.00  0.00    -0.336 N 
ATOM      5  N   UNL     1      -6.010  -8.700  11.723  0.00  0.00    -0.239 NA
ATOM     12  C   UNL     1      -5.226  -9.668  12.144  0.00  0.00    +0.124 A 
ATOM     13  C   UNL     1      -4.224  -8.891  10.341  0.00  0.00    +0.106 A 
ATOM     15  C   UNL     1      -3.065 -10.781  11.496  0.00  0.00    +0.150 C 
ATOM     16  C   UNL     1      -5.391  -8.212  10.600  0.00  0.00    +0.130 A 
ENDBRANCH   9  12
ENDBRANCH   3   9
TORSDOF 3
ENDMDL
