MODEL 1
REMARK VINA RESULT:      -4.5      0.000      0.000
REMARK  Name = 51137894
REMARK  5 active torsions:
REMARK  status: ('A' for Active; 'I' for Inactive)
REMARK    1  A    between atoms: N_4  and  C_12
REMARK    2  A    between atoms: N_5  and  C_16
REMARK    3  A    between atoms: C_7  and  C_11
REMARK    4  A    between atoms: C_12  and  C_14
REMARK    5  A    between atoms: C_25  and  C_26
REMARK                            x       y       z     vdW  Elec       q    Type
REMARK                         _______ _______ _______ _____ _____    ______ ____
ROOT
ATOM      4  N   UNL     1      -3.544 -10.603  14.684  0.00  0.00    -0.297 NA
ATOM      7  C   UNL     1      -4.411 -10.781  12.513  0.00  0.00    +0.070 C 
ATOM      8  C   UNL     1      -2.904 -10.479  12.442  0.00  0.00    +0.028 C 
ATOM      9  C   UNL     1      -4.806 -10.450  13.959  0.00  0.00    +0.096 C 
ATOM     10  C   UNL     1      -2.538  -9.970  13.831  0.00  0.00    +0.085 C 
ENDROOT
BRANCH   7  11
ATOM      5  N   UNL     1      -6.618 -10.024  11.561  0.00  0.00    -0.330 N 
ATOM      6  N   UNL     1      -4.800  -9.389  10.452  0.00  0.00    -0.232 NA
ATOM     11  C   UNL     1      -5.253 -10.053  11.491  0.00  0.00    +0.115 A 
ATOM     13  C   UNL     1      -7.076  -9.290  10.497  0.00  0.00    +0.069 A 
ATOM     15  C   UNL     1      -5.922  -8.905   9.820  0.00  0.00    +0.089 A 
ATOM     16  C   UNL     1      -7.437 -10.651  12.575  0.00  0.00    +0.150 C 
ATOM     17  C   UNL     1      -8.361  -8.941  10.081  0.00  0.00    +0.028 A 
ATOM     20  C   UNL     1      -6.039  -8.126   8.657  0.00  0.00    +0.030 A 
ATOM     21  C   UNL     1      -8.459  -8.165   8.922  0.00  0.00    +0.002 A 
ATOM     22  C   UNL     1      -7.320  -7.763   8.220  0.00  0.00    +0.002 A 
ENDBRANCH   7  11
BRANCH   4  12
ATOM     12  C   UNL     1      -3.592 -10.013  16.014  0.00  0.00    +0.119 C 
BRANCH  12  14
ATOM     14  C   UNL     1      -4.982 -10.039  16.590  0.00  0.00    -0.033 A 
ATOM     18  C   UNL     1      -5.183 -10.451  17.908  0.00  0.00    +0.005 A 
ATOM     19  C   UNL     1      -6.069  -9.648  15.809  0.00  0.00    +0.005 A 
ATOM     23  C   UNL     1      -6.471 -10.474  18.443  0.00  0.00    +0.012 A 
ATOM     24  C   UNL     1      -7.357  -9.669  16.344  0.00  0.00    +0.012 A 
ATOM     25  C   UNL     1      -7.558 -10.082  17.660  0.00  0.00    +0.055 A 
BRANCH  25  26
ATOM      1  F   UNL     1      -9.837 -10.781  17.464  0.00  0.00    -0.166 F 
ATOM      2  F   UNL     1      -9.456  -8.853  18.394  0.00  0.00    -0.166 F 
ATOM      3  F   UNL     1      -9.006 -10.691  19.466  0.00  0.00    -0.166 F 
ATOM     26  C   UNL     1      -8.934 -10.104  18.234  0.00  0.00    +0.417 C 
ENDBRANCH  25  26
ENDBRANCH  12  14
ENDBRANCH   4  12
TORSDOF 4
ENDMDL
MODEL 2
REMARK VINA RESULT:      -4.0      1.192      2.425
REMARK  Name = 51137894
REMARK  5 active torsions:
REMARK  status: ('A' for Active; 'I' for Inactive)
REMARK    1  A    between atoms: N_4  and  C_12
REMARK    2  A    between atoms: N_5  and  C_16
REMARK    3  A    between atoms: C_7  and  C_11
REMARK    4  A    between atoms: C_12  and  C_14
REMARK    5  A    between atoms: C_25  and  C_26
REMARK                            x       y       z     vdW  Elec       q    Type
REMARK                         _______ _______ _______ _____ _____    ______ ____
ROOT
ATOM      4  N   UNL     1      -2.526 -10.555  13.224  0.00  0.00    -0.297 NA
ATOM      7  C   UNL     1      -4.022 -10.543  11.418  0.00  0.00    +0.070 C 
ATOM      8  C   UNL     1      -2.778  -9.713  11.061  0.00  0.00    +0.028 C 
ATOM      9  C   UNL     1      -3.955 -10.708  12.943  0.00  0.00    +0.096 C 
ATOM     10  C   UNL     1      -2.096  -9.430  12.393  0.00  0.00    +0.085 C 
ENDROOT
BRANCH   7  11
ATOM      5  N   UNL     1      -5.447  -9.291   9.758  0.00  0.00    -0.330 N 
ATOM      6  N   UNL     1      -6.477 -10.014  11.591  0.00  0.00    -0.232 NA
ATOM     11  C   UNL     1      -5.334  -9.958  10.946  0.00  0.00    +0.115 A 
ATOM     13  C   UNL     1      -6.752  -8.890   9.627  0.00  0.00    +0.069 A 
ATOM     15  C   UNL     1      -7.374  -9.353  10.783  0.00  0.00    +0.089 A 
ATOM     16  C   UNL     1      -4.385  -9.050   8.807  0.00  0.00    +0.150 C 
ATOM     17  C   UNL     1      -7.421  -8.184   8.628  0.00  0.00    +0.028 A 
ATOM     20  C   UNL     1      -8.745  -9.106  10.970  0.00  0.00    +0.030 A 
ATOM     21  C   UNL     1      -8.785  -7.946   8.829  0.00  0.00    +0.002 A 
ATOM     22  C   UNL     1      -9.437  -8.397   9.979  0.00  0.00    +0.002 A 
ENDBRANCH   7  11
BRANCH   4  12
ATOM     12  C   UNL     1      -2.258 -10.335  14.637  0.00  0.00    +0.119 C 
BRANCH  12  14
ATOM     14  C   UNL     1      -3.525 -10.287  15.449  0.00  0.00    -0.033 A 
ATOM     18  C   UNL     1      -4.740  -9.998  14.828  0.00  0.00    +0.005 A 
ATOM     19  C   UNL     1      -3.484 -10.533  16.821  0.00  0.00    +0.005 A 
ATOM     23  C   UNL     1      -5.914  -9.955  15.580  0.00  0.00    +0.012 A 
ATOM     24  C   UNL     1      -4.658 -10.491  17.572  0.00  0.00    +0.012 A 
ATOM     25  C   UNL     1      -5.873 -10.201  16.952  0.00  0.00    +0.055 A 
BRANCH  25  26
ATOM      1  F   UNL     1      -7.566  -8.890  18.017  0.00  0.00    -0.166 F 
ATOM      2  F   UNL     1      -6.995 -10.758  18.973  0.00  0.00    -0.166 F 
ATOM      3  F   UNL     1      -8.186 -10.781  17.153  0.00  0.00    -0.166 F 
ATOM     26  C   UNL     1      -7.129 -10.157  17.755  0.00  0.00    +0.417 C 
ENDBRANCH  25  26
ENDBRANCH  12  14
ENDBRANCH   4  12
TORSDOF 4
ENDMDL
MODEL 3
REMARK VINA RESULT:      -3.7      1.971      3.534
REMARK  Name = 51137894
REMARK  5 active torsions:
REMARK  status: ('A' for Active; 'I' for Inactive)
REMARK    1  A    between atoms: N_4  and  C_12
REMARK    2  A    between atoms: N_5  and  C_16
REMARK    3  A    between atoms: C_7  and  C_11
REMARK    4  A    between atoms: C_12  and  C_14
REMARK    5  A    between atoms: C_25  and  C_26
REMARK                            x       y       z     vdW  Elec       q    Type
REMARK                         _______ _______ _______ _____ _____    ______ ____
ROOT
ATOM      4  N   UNL     1      -2.960 -10.404  10.806  0.00  0.00    -0.297 NA
ATOM      7  C   UNL     1      -4.806 -10.247   9.368  0.00  0.00    +0.070 C 
ATOM      8  C   UNL     1      -3.818  -9.108   9.063  0.00  0.00    +0.028 C 
ATOM      9  C   UNL     1      -4.374 -10.779  10.742  0.00  0.00    +0.096 C 
ATOM     10  C   UNL     1      -2.906  -9.039  10.282  0.00  0.00    +0.085 C 
ENDROOT
BRANCH   7  11
ATOM      5  N   UNL     1      -6.663  -8.544   9.285  0.00  0.00    -0.330 N 
ATOM      6  N   UNL     1      -7.285 -10.677   9.313  0.00  0.00    -0.232 NA
ATOM     11  C   UNL     1      -6.264  -9.852   9.322  0.00  0.00    +0.115 A 
ATOM     13  C   UNL     1      -8.033  -8.526   9.249  0.00  0.00    +0.069 A 
ATOM     15  C   UNL     1      -8.398  -9.870   9.267  0.00  0.00    +0.089 A 
ATOM     16  C   UNL     1      -5.798  -7.385   9.284  0.00  0.00    +0.150 C 
ATOM     17  C   UNL     1      -8.957  -7.482   9.204  0.00  0.00    +0.028 A 
ATOM     20  C   UNL     1      -9.761 -10.210   9.240  0.00  0.00    +0.030 A 
ATOM     21  C   UNL     1     -10.310  -7.838   9.177  0.00  0.00    +0.002 A 
ATOM     22  C   UNL     1     -10.707  -9.177   9.194  0.00  0.00    +0.002 A 
ENDBRANCH   7  11
BRANCH   4  12
ATOM     12  C   UNL     1      -2.419 -10.501  12.154  0.00  0.00    +0.119 C 
BRANCH  12  14
ATOM     14  C   UNL     1      -3.497 -10.402  13.200  0.00  0.00    -0.033 A 
ATOM     18  C   UNL     1      -4.816 -10.149  12.821  0.00  0.00    +0.005 A 
ATOM     19  C   UNL     1      -3.179 -10.566  14.548  0.00  0.00    +0.005 A 
ATOM     23  C   UNL     1      -5.815 -10.058  13.790  0.00  0.00    +0.012 A 
ATOM     24  C   UNL     1      -4.178 -10.477  15.517  0.00  0.00    +0.012 A 
ATOM     25  C   UNL     1      -5.495 -10.222  15.138  0.00  0.00    +0.055 A 
BRANCH  25  26
ATOM      1  F   UNL     1      -6.259 -10.777  17.336  0.00  0.00    -0.166 F 
ATOM      2  F   UNL     1      -7.749 -10.663  15.756  0.00  0.00    -0.166 F 
ATOM      3  F   UNL     1      -6.853  -8.846  16.548  0.00  0.00    -0.166 F 
ATOM     26  C   UNL     1      -6.564 -10.128  16.174  0.00  0.00    +0.417 C 
ENDBRANCH  25  26
ENDBRANCH  12  14
ENDBRANCH   4  12
TORSDOF 4
ENDMDL
MODEL 4
REMARK VINA RESULT:      -1.6      5.902      7.420
REMARK  Name = 51137894
REMARK  5 active torsions:
REMARK  status: ('A' for Active; 'I' for Inactive)
REMARK    1  A    between atoms: N_4  and  C_12
REMARK    2  A    between atoms: N_5  and  C_16
REMARK    3  A    between atoms: C_7  and  C_11
REMARK    4  A    between atoms: C_12  and  C_14
REMARK    5  A    between atoms: C_25  and  C_26
REMARK                            x       y       z     vdW  Elec       q    Type
REMARK                         _______ _______ _______ _____ _____    ______ ____
ROOT
ATOM      4  N   UNL     1      -2.783 -10.183  10.480  0.00  0.00    -0.297 NA
ATOM      7  C   UNL     1      -4.743 -10.250   9.194  0.00  0.00    +0.070 C 
ATOM      8  C   UNL     1      -3.978  -8.949   8.898  0.00  0.00    +0.028 C 
ATOM      9  C   UNL     1      -4.119 -10.781  10.493  0.00  0.00    +0.096 C 
ATOM     10  C   UNL     1      -2.992  -8.800  10.049  0.00  0.00    +0.085 C 
ENDROOT
BRANCH   7  11
ATOM      5  N   UNL     1      -6.880  -9.816  10.458  0.00  0.00    -0.330 N 
ATOM      6  N   UNL     1      -7.089 -10.216   8.282  0.00  0.00    -0.232 NA
ATOM     11  C   UNL     1      -6.244 -10.099   9.281  0.00  0.00    +0.115 A 
ATOM     13  C   UNL     1      -8.225  -9.746  10.201  0.00  0.00    +0.069 A 
ATOM     15  C   UNL     1      -8.330  -9.999   8.836  0.00  0.00    +0.089 A 
ATOM     16  C   UNL     1      -6.251  -9.625  11.746  0.00  0.00    +0.150 C 
ATOM     17  C   UNL     1      -9.325  -9.491  11.019  0.00  0.00    +0.028 A 
ATOM     20  C   UNL     1      -9.600 -10.001   8.235  0.00  0.00    +0.030 A 
ATOM     21  C   UNL     1     -10.582  -9.496  10.406  0.00  0.00    +0.002 A 
ATOM     22  C   UNL     1     -10.719  -9.747   9.038  0.00  0.00    +0.002 A 
ENDBRANCH   7  11
BRANCH   4  12
ATOM     12  C   UNL     1      -2.124 -10.266  11.774  0.00  0.00    +0.119 C 
BRANCH  12  14
ATOM     14  C   UNL     1      -0.938  -9.342  11.862  0.00  0.00    -0.033 A 
ATOM     18  C   UNL     1       0.033  -9.357  10.861  0.00  0.00    +0.005 A 
ATOM     19  C   UNL     1      -0.813  -8.469  12.942  0.00  0.00    +0.005 A 
ATOM     23  C   UNL     1       1.130  -8.500  10.941  0.00  0.00    +0.012 A 
ATOM     24  C   UNL     1       0.284  -7.611  13.022  0.00  0.00    +0.012 A 
ATOM     25  C   UNL     1       1.256  -7.627  12.022  0.00  0.00    +0.055 A 
BRANCH  25  26
ATOM      1  F   UNL     1       3.060  -6.739  13.317  0.00  0.00    -0.166 F 
ATOM      2  F   UNL     1       2.089  -5.403  11.903  0.00  0.00    -0.166 F 
ATOM      3  F   UNL     1       3.403  -6.981  11.188  0.00  0.00    -0.166 F 
ATOM     26  C   UNL     1       2.428  -6.709  12.106  0.00  0.00    +0.417 C 
ENDBRANCH  25  26
ENDBRANCH  12  14
ENDBRANCH   4  12
TORSDOF 4
ENDMDL
MODEL 5
REMARK VINA RESULT:      -1.5     15.271     17.608
REMARK  Name = 51137894
REMARK  5 active torsions:
REMARK  status: ('A' for Active; 'I' for Inactive)
REMARK    1  A    between atoms: N_4  and  C_12
REMARK    2  A    between atoms: N_5  and  C_16
REMARK    3  A    between atoms: C_7  and  C_11
REMARK    4  A    between atoms: C_12  and  C_14
REMARK    5  A    between atoms: C_25  and  C_26
REMARK                            x       y       z     vdW  Elec       q    Type
REMARK                         _______ _______ _______ _____ _____    ______ ____
ROOT
ATOM      4  N   UNL     1       0.121  -0.699  23.733  0.00  0.00    -0.297 NA
ATOM      7  C   UNL     1      -1.564   0.048  25.183  0.00  0.00    +0.070 C 
ATOM      8  C   UNL     1      -1.844  -1.409  24.776  0.00  0.00    +0.028 C 
ATOM      9  C   UNL     1      -0.523   0.542  24.168  0.00  0.00    +0.096 C 
ATOM     10  C   UNL     1      -0.976  -1.650  23.547  0.00  0.00    +0.085 C 
ENDROOT
BRANCH   7  11
ATOM      5  N   UNL     1      -2.695   2.288  25.415  0.00  0.00    -0.330 N 
ATOM      6  N   UNL     1      -4.034   0.532  25.166  0.00  0.00    -0.232 NA
ATOM     11  C   UNL     1      -2.787   0.934  25.251  0.00  0.00    +0.115 A 
ATOM     13  C   UNL     1      -3.969   2.794  25.437  0.00  0.00    +0.069 A 
ATOM     15  C   UNL     1      -4.787   1.678  25.280  0.00  0.00    +0.089 A 
ATOM     16  C   UNL     1      -1.475   3.054  25.543  0.00  0.00    +0.150 C 
ATOM     17  C   UNL     1      -4.462   4.091  25.577  0.00  0.00    +0.028 A 
ATOM     20  C   UNL     1      -6.182   1.849  25.259  0.00  0.00    +0.030 A 
ATOM     21  C   UNL     1      -5.852   4.244  25.553  0.00  0.00    +0.002 A 
ATOM     22  C   UNL     1      -6.699   3.144  25.398  0.00  0.00    +0.002 A 
ENDBRANCH   7  11
BRANCH   4  12
ATOM     12  C   UNL     1       0.909  -0.521  22.523  0.00  0.00    +0.119 C 
BRANCH  12  14
ATOM     14  C   UNL     1       2.380  -0.405  22.823  0.00  0.00    -0.033 A 
ATOM     18  C   UNL     1       3.089   0.722  22.405  0.00  0.00    +0.005 A 
ATOM     19  C   UNL     1       3.033  -1.421  23.519  0.00  0.00    +0.005 A 
ATOM     23  C   UNL     1       4.452   0.831  22.684  0.00  0.00    +0.012 A 
ATOM     24  C   UNL     1       4.395  -1.312  23.798  0.00  0.00    +0.012 A 
ATOM     25  C   UNL     1       5.105  -0.187  23.381  0.00  0.00    +0.055 A 
BRANCH  25  26
ATOM      1  F   UNL     1       7.364  -0.412  22.631  0.00  0.00    -0.166 F 
ATOM      2  F   UNL     1       6.950  -0.866  24.717  0.00  0.00    -0.166 F 
ATOM      3  F   UNL     1       6.948   1.196  24.026  0.00  0.00    -0.166 F 
ATOM     26  C   UNL     1       6.560  -0.068  23.680  0.00  0.00    +0.417 C 
ENDBRANCH  25  26
ENDBRANCH  12  14
ENDBRANCH   4  12
TORSDOF 4
ENDMDL
MODEL 6
REMARK VINA RESULT:      -0.9     14.487     16.437
REMARK  Name = 51137894
REMARK  5 active torsions:
REMARK  status: ('A' for Active; 'I' for Inactive)
REMARK    1  A    between atoms: N_4  and  C_12
REMARK    2  A    between atoms: N_5  and  C_16
REMARK    3  A    between atoms: C_7  and  C_11
REMARK    4  A    between atoms: C_12  and  C_14
REMARK    5  A    between atoms: C_25  and  C_26
REMARK                            x       y       z     vdW  Elec       q    Type
REMARK                         _______ _______ _______ _____ _____    ______ ____
ROOT
ATOM      4  N   UNL     1      -2.701  -1.822  24.592  0.00  0.00    -0.297 NA
ATOM      7  C   UNL     1      -0.367  -2.025  24.695  0.00  0.00    +0.070 C 
ATOM      8  C   UNL     1      -0.897  -1.498  26.039  0.00  0.00    +0.028 C 
ATOM      9  C   UNL     1      -1.530  -1.825  23.713  0.00  0.00    +0.096 C 
ATOM     10  C   UNL     1      -2.308  -1.006  25.742  0.00  0.00    +0.085 C 
ENDROOT
BRANCH   7  11
ATOM      5  N   UNL     1       0.942  -0.153  23.630  0.00  0.00    -0.330 N 
ATOM      6  N   UNL     1       2.119  -1.907  24.319  0.00  0.00    -0.232 NA
ATOM     11  C   UNL     1       0.918  -1.384  24.224  0.00  0.00    +0.115 A 
ATOM     13  C   UNL     1       2.246   0.138  23.323  0.00  0.00    +0.069 A 
ATOM     15  C   UNL     1       2.962  -0.972  23.763  0.00  0.00    +0.089 A 
ATOM     16  C   UNL     1      -0.201   0.695  23.372  0.00  0.00    +0.150 C 
ATOM     17  C   UNL     1       2.843   1.243  22.717  0.00  0.00    +0.028 A 
ATOM     20  C   UNL     1       4.357  -0.999  23.596  0.00  0.00    +0.030 A 
ATOM     21  C   UNL     1       4.233   1.201  22.558  0.00  0.00    +0.002 A 
ATOM     22  C   UNL     1       4.978   0.101  22.989  0.00  0.00    +0.002 A 
ENDBRANCH   7  11
BRANCH   4  12
ATOM     12  C   UNL     1      -3.891  -1.309  23.931  0.00  0.00    +0.119 C 
BRANCH  12  14
ATOM     14  C   UNL     1      -4.129   0.143  24.249  0.00  0.00    -0.033 A 
ATOM     18  C   UNL     1      -5.068   0.501  25.217  0.00  0.00    +0.005 A 
ATOM     19  C   UNL     1      -3.409   1.131  23.578  0.00  0.00    +0.005 A 
ATOM     23  C   UNL     1      -5.287   1.846  25.513  0.00  0.00    +0.012 A 
ATOM     24  C   UNL     1      -3.628   2.477  23.874  0.00  0.00    +0.012 A 
ATOM     25  C   UNL     1      -4.567   2.834  24.841  0.00  0.00    +0.055 A 
BRANCH  25  26
ATOM      1  F   UNL     1      -6.091   4.552  25.508  0.00  0.00    -0.166 F 
ATOM      2  F   UNL     1      -4.518   5.095  24.109  0.00  0.00    -0.166 F 
ATOM      3  F   UNL     1      -4.043   4.733  26.199  0.00  0.00    -0.166 F 
ATOM     26  C   UNL     1      -4.800   4.272  25.160  0.00  0.00    +0.417 C 
ENDBRANCH  25  26
ENDBRANCH  12  14
ENDBRANCH   4  12
TORSDOF 4
ENDMDL
MODEL 7
REMARK VINA RESULT:      -0.9     14.499     16.783
REMARK  Name = 51137894
REMARK  5 active torsions:
REMARK  status: ('A' for Active; 'I' for Inactive)
REMARK    1  A    between atoms: N_4  and  C_12
REMARK    2  A    between atoms: N_5  and  C_16
REMARK    3  A    between atoms: C_7  and  C_11
REMARK    4  A    between atoms: C_12  and  C_14
REMARK    5  A    between atoms: C_25  and  C_26
REMARK                            x       y       z     vdW  Elec       q    Type
REMARK                         _______ _______ _______ _____ _____    ______ ____
ROOT
ATOM      4  N   UNL     1       0.346   3.007  25.075  0.00  0.00    -0.297 NA
ATOM      7  C   UNL     1       0.105   0.678  24.937  0.00  0.00    +0.070 C 
ATOM      8  C   UNL     1       0.762   1.205  23.650  0.00  0.00    +0.028 C 
ATOM      9  C   UNL     1      -0.483   1.926  25.611  0.00  0.00    +0.096 C 
ATOM     10  C   UNL     1       0.488   2.703  23.650  0.00  0.00    +0.085 C 
ENDROOT
BRANCH   7  11
ATOM      5  N   UNL     1      -2.193  -0.148  24.312  0.00  0.00    -0.330 N 
ATOM      6  N   UNL     1      -0.719  -1.700  24.910  0.00  0.00    -0.232 NA
ATOM     11  C   UNL     1      -0.917  -0.414  24.727  0.00  0.00    +0.115 A 
ATOM     13  C   UNL     1      -2.861  -1.342  24.221  0.00  0.00    +0.069 A 
ATOM     15  C   UNL     1      -1.920  -2.295  24.599  0.00  0.00    +0.089 A 
ATOM     16  C   UNL     1      -2.742   1.157  24.021  0.00  0.00    +0.150 C 
ATOM     17  C   UNL     1      -4.168  -1.660  23.852  0.00  0.00    +0.028 A 
ATOM     20  C   UNL     1      -2.287  -3.651  24.616  0.00  0.00    +0.030 A 
ATOM     21  C   UNL     1      -4.517  -3.014  23.873  0.00  0.00    +0.002 A 
ATOM     22  C   UNL     1      -3.595  -3.994  24.249  0.00  0.00    +0.002 A 
ENDBRANCH   7  11
BRANCH   4  12
ATOM     12  C   UNL     1      -0.236   4.321  25.305  0.00  0.00    +0.119 C 
BRANCH  12  14
ATOM     14  C   UNL     1      -1.739   4.266  25.373  0.00  0.00    -0.033 A 
ATOM     18  C   UNL     1      -2.500   4.581  24.248  0.00  0.00    +0.005 A 
ATOM     19  C   UNL     1      -2.371   3.897  26.561  0.00  0.00    +0.005 A 
ATOM     23  C   UNL     1      -3.892   4.529  24.310  0.00  0.00    +0.012 A 
ATOM     24  C   UNL     1      -3.763   3.844  26.623  0.00  0.00    +0.012 A 
ATOM     25  C   UNL     1      -4.524   4.160  25.498  0.00  0.00    +0.055 A 
BRANCH  25  26
ATOM      1  F   UNL     1      -6.569   3.281  24.624  0.00  0.00    -0.166 F 
ATOM      2  F   UNL     1      -6.595   5.322  25.374  0.00  0.00    -0.166 F 
ATOM      3  F   UNL     1      -6.491   3.649  26.760  0.00  0.00    -0.166 F 
ATOM     26  C   UNL     1      -6.012   4.102  25.563  0.00  0.00    +0.417 C 
ENDBRANCH  25  26
ENDBRANCH  12  14
ENDBRANCH   4  12
TORSDOF 4
ENDMDL
MODEL 8
REMARK VINA RESULT:      -0.8     15.416     17.572
REMARK  Name = 51137894
REMARK  5 active torsions:
REMARK  status: ('A' for Active; 'I' for Inactive)
REMARK    1  A    between atoms: N_4  and  C_12
REMARK    2  A    between atoms: N_5  and  C_16
REMARK    3  A    between atoms: C_7  and  C_11
REMARK    4  A    between atoms: C_12  and  C_14
REMARK    5  A    between atoms: C_25  and  C_26
REMARK                            x       y       z     vdW  Elec       q    Type
REMARK                         _______ _______ _______ _____ _____    ______ ____
ROOT
ATOM      4  N   UNL     1       0.269  -0.515  23.742  0.00  0.00    -0.297 NA
ATOM      7  C   UNL     1      -1.382   0.296  25.198  0.00  0.00    +0.070 C 
ATOM      8  C   UNL     1      -1.729  -1.141  24.776  0.00  0.00    +0.028 C 
ATOM      9  C   UNL     1      -0.317   0.751  24.189  0.00  0.00    +0.096 C 
ATOM     10  C   UNL     1      -0.872  -1.411  23.546  0.00  0.00    +0.085 C 
ENDROOT
BRANCH   7  11
ATOM      5  N   UNL     1      -3.852   0.795  25.210  0.00  0.00    -0.330 N 
ATOM      6  N   UNL     1      -2.496   2.544  25.402  0.00  0.00    -0.232 NA
ATOM     11  C   UNL     1      -2.561   1.239  25.273  0.00  0.00    +0.115 A 
ATOM     13  C   UNL     1      -4.675   1.887  25.305  0.00  0.00    +0.069 A 
ATOM     15  C   UNL     1      -3.805   2.967  25.425  0.00  0.00    +0.089 A 
ATOM     16  C   UNL     1      -4.279  -0.580  25.068  0.00  0.00    +0.150 C 
ATOM     17  C   UNL     1      -6.064   2.020  25.297  0.00  0.00    +0.028 A 
ATOM     20  C   UNL     1      -4.334   4.263  25.544  0.00  0.00    +0.030 A 
ATOM     21  C   UNL     1      -6.574   3.317  25.417  0.00  0.00    +0.002 A 
ATOM     22  C   UNL     1      -5.726   4.420  25.538  0.00  0.00    +0.002 A 
ENDBRANCH   7  11
BRANCH   4  12
ATOM     12  C   UNL     1       1.067  -0.362  22.535  0.00  0.00    +0.119 C 
BRANCH  12  14
ATOM     14  C   UNL     1       2.540  -0.299  22.839  0.00  0.00    -0.033 A 
ATOM     18  C   UNL     1       3.167  -1.372  23.473  0.00  0.00    +0.005 A 
ATOM     19  C   UNL     1       3.278   0.829  22.485  0.00  0.00    +0.005 A 
ATOM     23  C   UNL     1       4.532  -1.315  23.754  0.00  0.00    +0.012 A 
ATOM     24  C   UNL     1       4.643   0.886  22.765  0.00  0.00    +0.012 A 
ATOM     25  C   UNL     1       5.270  -0.185  23.400  0.00  0.00    +0.055 A 
BRANCH  25  26
ATOM      1  F   UNL     1       7.518  -0.506  22.649  0.00  0.00    -0.166 F 
ATOM      2  F   UNL     1       7.087  -0.935  24.737  0.00  0.00    -0.166 F 
ATOM      3  F   UNL     1       7.169   1.123  24.039  0.00  0.00    -0.166 F 
ATOM     26  C   UNL     1       6.730  -0.126  23.698  0.00  0.00    +0.417 C 
ENDBRANCH  25  26
ENDBRANCH  12  14
ENDBRANCH   4  12
TORSDOF 4
ENDMDL
