MODEL 1
REMARK VINA RESULT:      -1.0      0.000      0.000
REMARK  Name = 45783353
REMARK  9 active torsions:
REMARK  status: ('A' for Active; 'I' for Inactive)
REMARK    1  A    between atoms: O_2  and  C_24
REMARK    2  A    between atoms: O_2  and  C_26
REMARK    3  A    between atoms: O_3  and  C_27
REMARK    4  A    between atoms: O_3  and  C_28
REMARK    5  A    between atoms: N_4  and  C_9
REMARK    6  A    between atoms: N_5  and  C_19
REMARK    7  A    between atoms: C_10  and  C_18
REMARK    8  A    between atoms: C_20  and  C_21
REMARK    9  A    between atoms: C_26  and  C_27
REMARK                            x       y       z     vdW  Elec       q    Type
REMARK                         _______ _______ _______ _____ _____    ______ ____
ROOT
ATOM      1  O   UNL     1      -1.597   3.147  24.706  0.00  0.00    -0.336 OA
ATOM      6  N   UNL     1      -1.577   1.299  23.441  0.00  0.00    -0.190 NA
ATOM      7  N   UNL     1      -0.251   2.891  24.412  0.00  0.00    -0.056 NA
ATOM     18  C   UNL     1      -2.309   2.163  24.097  0.00  0.00    +0.245 A 
ATOM     20  C   UNL     1      -0.321   1.786  23.663  0.00  0.00    +0.202 A 
ENDROOT
BRANCH  20  21
ATOM      8  N   UNL     1       3.108  -0.108  22.070  0.00  0.00    -0.221 NA
ATOM     21  C   UNL     1       0.842   1.144  23.123  0.00  0.00    +0.029 A 
ATOM     22  C   UNL     1       2.108   1.658  23.382  0.00  0.00    +0.079 A 
ATOM     23  C   UNL     1       0.708   0.004  22.339  0.00  0.00    +0.031 A 
ATOM     24  C   UNL     1       3.198   1.001  22.836  0.00  0.00    +0.215 A 
ATOM     25  C   UNL     1       1.861  -0.580  21.840  0.00  0.00    +0.115 A 
BRANCH  24   2
ATOM      2  O   UNL     1       4.457   1.489  23.076  0.00  0.00    -0.474 OA
BRANCH   2  26
ATOM     26  C   UNL     1       5.503   0.532  23.191  0.00  0.00    +0.258 C 
BRANCH  26  27
ATOM     27  C   UNL     1       5.600   0.076  24.634  0.00  0.00    +0.200 C 
BRANCH  27   3
ATOM      3  O   UNL     1       5.694  -1.343  24.666  0.00  0.00    -0.380 OA
ATOM     28  C   UNL     1       4.662  -1.951  23.901  0.00  0.00    +0.194 C 
ENDBRANCH  27   3
ENDBRANCH  26  27
ENDBRANCH   2  26
ENDBRANCH  24   2
ENDBRANCH  20  21
BRANCH  18  10
ATOM      4  N   UNL     1      -4.271   1.545  25.498  0.00  0.00    -0.288 NA
ATOM     10  C   UNL     1      -3.813   2.216  24.265  0.00  0.00    +0.146 C 
ATOM     11  C   UNL     1      -5.499   2.226  25.907  0.00  0.00    +0.085 C 
ATOM     14  C   UNL     1      -4.348   3.656  24.381  0.00  0.00    +0.030 C 
ATOM     15  C   UNL     1      -5.143   3.681  25.679  0.00  0.00    +0.017 C 
BRANCH   4   9
ATOM      5  N   UNL     1      -3.504  -2.472  24.340  0.00  0.00    -0.305 NA
ATOM      9  C   UNL     1      -4.468   0.106  25.332  0.00  0.00    +0.060 C 
ATOM     12  C   UNL     1      -3.343  -0.666  26.025  0.00  0.00    +0.034 C 
ATOM     13  C   UNL     1      -4.526  -0.271  23.850  0.00  0.00    +0.034 C 
ATOM     16  C   UNL     1      -3.478  -2.171  25.778  0.00  0.00    +0.085 C 
ATOM     17  C   UNL     1      -4.622  -1.789  23.674  0.00  0.00    +0.085 C 
ATOM     19  C   UNL     1      -3.583  -3.916  24.121  0.00  0.00    +0.104 C 
ENDBRANCH   4   9
ENDBRANCH  18  10
TORSDOF 7
ENDMDL
MODEL 2
REMARK VINA RESULT:      -0.7      1.215      3.486
REMARK  Name = 45783353
REMARK  9 active torsions:
REMARK  status: ('A' for Active; 'I' for Inactive)
REMARK    1  A    between atoms: O_2  and  C_24
REMARK    2  A    between atoms: O_2  and  C_26
REMARK    3  A    between atoms: O_3  and  C_27
REMARK    4  A    between atoms: O_3  and  C_28
REMARK    5  A    between atoms: N_4  and  C_9
REMARK    6  A    between atoms: N_5  and  C_19
REMARK    7  A    between atoms: C_10  and  C_18
REMARK    8  A    between atoms: C_20  and  C_21
REMARK    9  A    between atoms: C_26  and  C_27
REMARK                            x       y       z     vdW  Elec       q    Type
REMARK                         _______ _______ _______ _____ _____    ______ ____
ROOT
ATOM      1  O   UNL     1      -1.164   0.811  25.493  0.00  0.00    -0.336 OA
ATOM      6  N   UNL     1      -0.722  -0.577  23.791  0.00  0.00    -0.190 NA
ATOM      7  N   UNL     1       0.080   1.205  24.981  0.00  0.00    -0.056 NA
ATOM     18  C   UNL     1      -1.565  -0.243  24.736  0.00  0.00    +0.245 A 
ATOM     20  C   UNL     1       0.271   0.339  23.981  0.00  0.00    +0.202 A 
ENDROOT
BRANCH  20  21
ATOM      8  N   UNL     1       3.724   0.405  21.539  0.00  0.00    -0.221 NA
ATOM     21  C   UNL     1       1.442   0.362  23.153  0.00  0.00    +0.029 A 
ATOM     22  C   UNL     1       2.589   1.021  23.583  0.00  0.00    +0.079 A 
ATOM     23  C   UNL     1       1.436  -0.276  21.918  0.00  0.00    +0.031 A 
ATOM     24  C   UNL     1       3.693   1.013  22.746  0.00  0.00    +0.215 A 
ATOM     25  C   UNL     1       2.591  -0.226  21.155  0.00  0.00    +0.115 A 
BRANCH  24   2
ATOM      2  O   UNL     1       4.835   1.657  23.146  0.00  0.00    -0.474 OA
BRANCH   2  26
ATOM     26  C   UNL     1       5.663   0.970  24.077  0.00  0.00    +0.258 C 
BRANCH  26  27
ATOM     27  C   UNL     1       5.975  -0.412  23.538  0.00  0.00    +0.200 C 
BRANCH  27   3
ATOM      3  O   UNL     1       5.480  -1.388  24.447  0.00  0.00    -0.380 OA
ATOM     28  C   UNL     1       4.359  -2.077  23.912  0.00  0.00    +0.194 C 
ENDBRANCH  27   3
ENDBRANCH  26  27
ENDBRANCH   2  26
ENDBRANCH  24   2
ENDBRANCH  20  21
BRANCH  18  10
ATOM      4  N   UNL     1      -3.916  -0.665  24.039  0.00  0.00    -0.288 NA
ATOM     10  C   UNL     1      -2.901  -0.860  25.093  0.00  0.00    +0.146 C 
ATOM     11  C   UNL     1      -4.827  -1.806  24.126  0.00  0.00    +0.085 C 
ATOM     14  C   UNL     1      -2.820  -2.387  25.281  0.00  0.00    +0.030 C 
ATOM     15  C   UNL     1      -3.867  -2.959  24.336  0.00  0.00    +0.017 C 
BRANCH   4   9
ATOM      5  N   UNL     1      -4.868   3.259  25.364  0.00  0.00    -0.305 NA
ATOM      9  C   UNL     1      -4.621   0.611  24.145  0.00  0.00    +0.060 C 
ATOM     12  C   UNL     1      -3.683   1.766  23.786  0.00  0.00    +0.034 C 
ATOM     13  C   UNL     1      -5.180   0.812  25.556  0.00  0.00    +0.034 C 
ATOM     16  C   UNL     1      -4.374   3.117  23.987  0.00  0.00    +0.085 C 
ATOM     17  C   UNL     1      -5.822   2.194  25.701  0.00  0.00    +0.085 C 
ATOM     19  C   UNL     1      -5.480   4.574  25.555  0.00  0.00    +0.104 C 
ENDBRANCH   4   9
ENDBRANCH  18  10
TORSDOF 7
ENDMDL
MODEL 3
REMARK VINA RESULT:       1.4      1.568      3.696
REMARK  Name = 45783353
REMARK  9 active torsions:
REMARK  status: ('A' for Active; 'I' for Inactive)
REMARK    1  A    between atoms: O_2  and  C_24
REMARK    2  A    between atoms: O_2  and  C_26
REMARK    3  A    between atoms: O_3  and  C_27
REMARK    4  A    between atoms: O_3  and  C_28
REMARK    5  A    between atoms: N_4  and  C_9
REMARK    6  A    between atoms: N_5  and  C_19
REMARK    7  A    between atoms: C_10  and  C_18
REMARK    8  A    between atoms: C_20  and  C_21
REMARK    9  A    between atoms: C_26  and  C_27
REMARK                            x       y       z     vdW  Elec       q    Type
REMARK                         _______ _______ _______ _____ _____    ______ ____
ROOT
ATOM      1  O   UNL     1      -0.990   0.907  25.502  0.00  0.00    -0.336 OA
ATOM      6  N   UNL     1      -0.631  -0.533  23.825  0.00  0.00    -0.190 NA
ATOM      7  N   UNL     1       0.263   1.236  24.969  0.00  0.00    -0.056 NA
ATOM     18  C   UNL     1      -1.446  -0.144  24.772  0.00  0.00    +0.245 A 
ATOM     20  C   UNL     1       0.404   0.343  23.984  0.00  0.00    +0.202 A 
ENDROOT
BRANCH  20  21
ATOM      8  N   UNL     1       3.826   0.208  21.503  0.00  0.00    -0.221 NA
ATOM     21  C   UNL     1       1.565   0.297  23.143  0.00  0.00    +0.029 A 
ATOM     22  C   UNL     1       2.793   0.741  23.622  0.00  0.00    +0.079 A 
ATOM     23  C   UNL     1       1.467  -0.191  21.845  0.00  0.00    +0.031 A 
ATOM     24  C   UNL     1       3.882   0.676  22.770  0.00  0.00    +0.215 A 
ATOM     25  C   UNL     1       2.616  -0.215  21.072  0.00  0.00    +0.115 A 
BRANCH  24   2
ATOM      2  O   UNL     1       5.104   1.109  23.218  0.00  0.00    -0.474 OA
BRANCH   2  26
ATOM     26  C   UNL     1       5.652   0.426  24.339  0.00  0.00    +0.258 C 
BRANCH  26  27
ATOM     27  C   UNL     1       6.497  -0.733  23.849  0.00  0.00    +0.200 C 
BRANCH  27   3
ATOM      3  O   UNL     1       7.239  -0.317  22.708  0.00  0.00    -0.380 OA
ATOM     28  C   UNL     1       8.637  -0.361  22.952  0.00  0.00    +0.194 C 
ENDBRANCH  27   3
ENDBRANCH  26  27
ENDBRANCH   2  26
ENDBRANCH  24   2
ENDBRANCH  20  21
BRANCH  18  10
ATOM      4  N   UNL     1      -3.913   0.013  24.488  0.00  0.00    -0.288 NA
ATOM     10  C   UNL     1      -2.803  -0.694  25.157  0.00  0.00    +0.146 C 
ATOM     11  C   UNL     1      -4.997  -0.959  24.347  0.00  0.00    +0.085 C 
ATOM     14  C   UNL     1      -2.982  -2.171  24.757  0.00  0.00    +0.030 C 
ATOM     15  C   UNL     1      -4.249  -2.204  23.915  0.00  0.00    +0.017 C 
BRANCH   4   9
ATOM      5  N   UNL     1      -5.633   3.841  25.157  0.00  0.00    -0.305 NA
ATOM      9  C   UNL     1      -4.342   1.216  25.198  0.00  0.00    +0.060 C 
ATOM     12  C   UNL     1      -5.860   1.378  25.098  0.00  0.00    +0.034 C 
ATOM     13  C   UNL     1      -3.646   2.460  24.638  0.00  0.00    +0.034 C 
ATOM     16  C   UNL     1      -6.317   2.685  25.752  0.00  0.00    +0.085 C 
ATOM     17  C   UNL     1      -4.175   3.732  25.305  0.00  0.00    +0.085 C 
ATOM     19  C   UNL     1      -6.116   5.085  25.755  0.00  0.00    +0.104 C 
ENDBRANCH   4   9
ENDBRANCH  18  10
TORSDOF 7
ENDMDL
MODEL 4
REMARK VINA RESULT:       2.1      1.803      3.895
REMARK  Name = 45783353
REMARK  9 active torsions:
REMARK  status: ('A' for Active; 'I' for Inactive)
REMARK    1  A    between atoms: O_2  and  C_24
REMARK    2  A    between atoms: O_2  and  C_26
REMARK    3  A    between atoms: O_3  and  C_27
REMARK    4  A    between atoms: O_3  and  C_28
REMARK    5  A    between atoms: N_4  and  C_9
REMARK    6  A    between atoms: N_5  and  C_19
REMARK    7  A    between atoms: C_10  and  C_18
REMARK    8  A    between atoms: C_20  and  C_21
REMARK    9  A    between atoms: C_26  and  C_27
REMARK                            x       y       z     vdW  Elec       q    Type
REMARK                         _______ _______ _______ _____ _____    ______ ____
ROOT
ATOM      1  O   UNL     1      -1.781  -0.791  25.801  0.00  0.00    -0.336 OA
ATOM      6  N   UNL     1      -1.638   0.570  24.028  0.00  0.00    -0.190 NA
ATOM      7  N   UNL     1      -0.544  -1.062  25.200  0.00  0.00    -0.056 NA
ATOM     18  C   UNL     1      -2.360   0.180  25.048  0.00  0.00    +0.245 A 
ATOM     20  C   UNL     1      -0.533  -0.220  24.162  0.00  0.00    +0.202 A 
ENDROOT
BRANCH  20  21
ATOM      8  N   UNL     1       2.698   0.004  21.443  0.00  0.00    -0.221 NA
ATOM     21  C   UNL     1       0.563  -0.144  23.241  0.00  0.00    +0.029 A 
ATOM     22  C   UNL     1       1.725   0.535  23.591  0.00  0.00    +0.079 A 
ATOM     23  C   UNL     1       0.468  -0.749  21.992  0.00  0.00    +0.031 A 
ATOM     24  C   UNL     1       2.754   0.580  22.665  0.00  0.00    +0.215 A 
ATOM     25  C   UNL     1       1.554  -0.647  21.137  0.00  0.00    +0.115 A 
BRANCH  24   2
ATOM      2  O   UNL     1       3.909   1.244  22.987  0.00  0.00    -0.474 OA
BRANCH   2  26
ATOM     26  C   UNL     1       5.125   0.521  22.837  0.00  0.00    +0.258 C 
BRANCH  26  27
ATOM     27  C   UNL     1       5.815   0.429  24.184  0.00  0.00    +0.200 C 
BRANCH  27   3
ATOM      3  O   UNL     1       5.444  -0.792  24.813  0.00  0.00    -0.380 OA
ATOM     28  C   UNL     1       4.908  -1.717  23.879  0.00  0.00    +0.194 C 
ENDBRANCH  27   3
ENDBRANCH  26  27
ENDBRANCH   2  26
ENDBRANCH  24   2
ENDBRANCH  20  21
BRANCH  18  10
ATOM      4  N   UNL     1      -4.308   1.656  24.578  0.00  0.00    -0.288 NA
ATOM     10  C   UNL     1      -3.726   0.656  25.496  0.00  0.00    +0.146 C 
ATOM     11  C   UNL     1      -5.760   1.504  24.670  0.00  0.00    +0.085 C 
ATOM     14  C   UNL     1      -4.764  -0.480  25.547  0.00  0.00    +0.030 C 
ATOM     15  C   UNL     1      -5.919  -0.003  24.678  0.00  0.00    +0.017 C 
BRANCH   4   9
ATOM      5  N   UNL     1      -1.797   5.077  24.797  0.00  0.00    -0.305 NA
ATOM      9  C   UNL     1      -3.879   3.023  24.866  0.00  0.00    +0.060 C 
ATOM     12  C   UNL     1      -3.478   3.735  23.573  0.00  0.00    +0.034 C 
ATOM     13  C   UNL     1      -2.708   3.032  25.853  0.00  0.00    +0.034 C 
ATOM     16  C   UNL     1      -2.931   5.136  23.865  0.00  0.00    +0.085 C 
ATOM     17  C   UNL     1      -2.185   4.455  26.070  0.00  0.00    +0.085 C 
ATOM     19  C   UNL     1      -1.254   6.416  25.027  0.00  0.00    +0.104 C 
ENDBRANCH   4   9
ENDBRANCH  18  10
TORSDOF 7
ENDMDL
