MODEL 1
REMARK VINA RESULT:       1.0      0.000      0.000
REMARK  Name = 71693882
REMARK  11 active torsions:
REMARK  status: ('A' for Active; 'I' for Inactive)
REMARK    1  A    between atoms: O_1  and  C_10
REMARK    2  A    between atoms: O_2  and  C_12
REMARK    3  A    between atoms: O_4  and  C_20
REMARK    4  A    between atoms: O_4  and  C_26
REMARK    5  A    between atoms: O_5  and  C_23
REMARK    6  A    between atoms: O_5  and  C_27
REMARK    7  A    between atoms: O_6  and  C_25
REMARK    8  A    between atoms: O_6  and  C_28
REMARK    9  A    between atoms: N_7  and  C_9
REMARK   10  A    between atoms: C_8  and  C_13
REMARK   11  A    between atoms: C_16  and  C_19
REMARK                            x       y       z     vdW  Elec       q    Type
REMARK                         _______ _______ _______ _____ _____    ______ ____
ROOT
ATOM      8  C   UNL     1      -2.448  -0.699  25.542  0.00  0.00    +0.044 C 
ATOM      9  C   UNL     1      -1.868  -1.342  24.262  0.00  0.00    +0.112 C 
ATOM     10  C   UNL     1      -2.135  -2.834  24.461  0.00  0.00    +0.164 C 
ATOM     11  C   UNL     1      -3.495  -1.706  26.084  0.00  0.00    +0.044 C 
ATOM     12  C   UNL     1      -3.528  -2.856  25.079  0.00  0.00    +0.145 C 
ENDROOT
BRANCH   8  13
ATOM     13  C   UNL     1      -2.988   0.697  25.310  0.00  0.00    -0.042 A 
ATOM     14  C   UNL     1      -4.328   0.878  24.973  0.00  0.00    +0.007 A 
ATOM     15  C   UNL     1      -2.144   1.800  25.434  0.00  0.00    +0.007 A 
ATOM     17  C   UNL     1      -4.825   2.165  24.758  0.00  0.00    +0.046 A 
ATOM     18  C   UNL     1      -2.640   3.086  25.220  0.00  0.00    +0.046 A 
ATOM     20  C   UNL     1      -3.981   3.268  24.882  0.00  0.00    +0.120 A 
BRANCH  20   4
ATOM      4  O   UNL     1      -4.466   4.523  24.673  0.00  0.00    -0.495 OA
ATOM     26  C   UNL     1      -5.660   4.882  25.366  0.00  0.00    +0.277 C 
ENDBRANCH  20   4
ENDBRANCH   8  13
BRANCH   9   7
ATOM      3  O   UNL     1      -0.699   0.743  22.671  0.00  0.00    -0.270 OA
ATOM      7  N   UNL     1      -0.463  -1.064  24.107  0.00  0.00    -0.305 N 
ATOM     16  C   UNL     1       0.010  -0.028  23.312  0.00  0.00    +0.245 C 
ATOM     29  H   UNL     1       0.182  -1.687  24.580  0.00  0.00    +0.149 HD
BRANCH  16  19
ATOM     19  C   UNL     1       1.487   0.111  23.235  0.00  0.00    +0.040 A 
ATOM     21  C   UNL     1       2.306  -0.997  23.457  0.00  0.00    +0.062 A 
ATOM     22  C   UNL     1       2.056   1.351  22.942  0.00  0.00    +0.017 A 
ATOM     23  C   UNL     1       3.692  -0.866  23.385  0.00  0.00    +0.162 A 
ATOM     24  C   UNL     1       3.444   1.481  22.870  0.00  0.00    +0.050 A 
ATOM     25  C   UNL     1       4.261   0.373  23.092  0.00  0.00    +0.162 A 
BRANCH  23   5
ATOM      5  O   UNL     1       4.480  -1.956  23.604  0.00  0.00    -0.491 OA
ATOM     27  C   UNL     1       5.634  -1.768  24.420  0.00  0.00    +0.277 C 
ENDBRANCH  23   5
BRANCH  25   6
ATOM      6  O   UNL     1       5.615   0.514  23.019  0.00  0.00    -0.491 OA
ATOM     28  C   UNL     1       6.265   1.112  24.139  0.00  0.00    +0.277 C 
ENDBRANCH  25   6
ENDBRANCH  16  19
ENDBRANCH   9   7
BRANCH  10   1
ATOM      1  O   UNL     1      -2.105  -3.552  23.242  0.00  0.00    -0.387 OA
ATOM     30  H   UNL     1      -2.190  -4.496  23.458  0.00  0.00    +0.210 HD
ENDBRANCH  10   1
BRANCH  12   2
ATOM      2  O   UNL     1      -4.525  -2.579  24.101  0.00  0.00    -0.389 OA
ATOM     31  H   UNL     1      -5.281  -2.173  24.559  0.00  0.00    +0.210 HD
ENDBRANCH  12   2
TORSDOF 8
ENDMDL
MODEL 2
REMARK VINA RESULT:       3.4      0.911      1.788
REMARK  Name = 71693882
REMARK  11 active torsions:
REMARK  status: ('A' for Active; 'I' for Inactive)
REMARK    1  A    between atoms: O_1  and  C_10
REMARK    2  A    between atoms: O_2  and  C_12
REMARK    3  A    between atoms: O_4  and  C_20
REMARK    4  A    between atoms: O_4  and  C_26
REMARK    5  A    between atoms: O_5  and  C_23
REMARK    6  A    between atoms: O_5  and  C_27
REMARK    7  A    between atoms: O_6  and  C_25
REMARK    8  A    between atoms: O_6  and  C_28
REMARK    9  A    between atoms: N_7  and  C_9
REMARK   10  A    between atoms: C_8  and  C_13
REMARK   11  A    between atoms: C_16  and  C_19
REMARK                            x       y       z     vdW  Elec       q    Type
REMARK                         _______ _______ _______ _____ _____    ______ ____
ROOT
ATOM      8  C   UNL     1      -2.149  -0.670  25.543  0.00  0.00    +0.044 C 
ATOM      9  C   UNL     1      -1.487  -1.334  24.313  0.00  0.00    +0.112 C 
ATOM     10  C   UNL     1      -1.820  -2.815  24.488  0.00  0.00    +0.164 C 
ATOM     11  C   UNL     1      -3.269  -1.641  25.997  0.00  0.00    +0.044 C 
ATOM     12  C   UNL     1      -3.259  -2.790  24.991  0.00  0.00    +0.145 C 
ENDROOT
BRANCH   8  13
ATOM     13  C   UNL     1      -2.620   0.743  25.271  0.00  0.00    -0.042 A 
ATOM     14  C   UNL     1      -3.948   0.978  24.917  0.00  0.00    +0.007 A 
ATOM     15  C   UNL     1      -1.727   1.808  25.373  0.00  0.00    +0.007 A 
ATOM     17  C   UNL     1      -4.383   2.280  24.665  0.00  0.00    +0.046 A 
ATOM     18  C   UNL     1      -2.161   3.110  25.121  0.00  0.00    +0.046 A 
ATOM     20  C   UNL     1      -3.489   3.345  24.768  0.00  0.00    +0.120 A 
BRANCH  20   4
ATOM      4  O   UNL     1      -3.913   4.616  24.522  0.00  0.00    -0.495 OA
ATOM     26  C   UNL     1      -5.160   5.007  25.095  0.00  0.00    +0.277 C 
ENDBRANCH  20   4
ENDBRANCH   8  13
BRANCH   9   7
ATOM      3  O   UNL     1       0.021  -0.310  22.095  0.00  0.00    -0.270 OA
ATOM      7  N   UNL     1      -0.066  -1.103  24.274  0.00  0.00    -0.305 N 
ATOM     16  C   UNL     1       0.578  -0.603  23.150  0.00  0.00    +0.245 C 
ATOM     29  H   UNL     1       0.462  -1.359  25.101  0.00  0.00    +0.149 HD
BRANCH  16  19
ATOM     19  C   UNL     1       2.051  -0.447  23.260  0.00  0.00    +0.040 A 
ATOM     21  C   UNL     1       2.662   0.734  22.836  0.00  0.00    +0.062 A 
ATOM     22  C   UNL     1       2.825  -1.482  23.786  0.00  0.00    +0.017 A 
ATOM     23  C   UNL     1       4.045   0.880  22.939  0.00  0.00    +0.162 A 
ATOM     24  C   UNL     1       4.209  -1.336  23.889  0.00  0.00    +0.050 A 
ATOM     25  C   UNL     1       4.818  -0.154  23.465  0.00  0.00    +0.162 A 
BRANCH  23   5
ATOM      5  O   UNL     1       4.629   2.038  22.522  0.00  0.00    -0.491 OA
ATOM     27  C   UNL     1       3.771   3.033  21.968  0.00  0.00    +0.277 C 
ENDBRANCH  23   5
BRANCH  25   6
ATOM      6  O   UNL     1       6.171  -0.024  23.571  0.00  0.00    -0.491 OA
ATOM     28  C   UNL     1       6.970  -0.850  22.726  0.00  0.00    +0.277 C 
ENDBRANCH  25   6
ENDBRANCH  16  19
ENDBRANCH   9   7
BRANCH  10   1
ATOM      1  O   UNL     1      -1.715  -3.535  23.274  0.00  0.00    -0.387 OA
ATOM     30  H   UNL     1      -1.086  -3.059  22.706  0.00  0.00    +0.210 HD
ENDBRANCH  10   1
BRANCH  12   2
ATOM      2  O   UNL     1      -4.163  -2.481  23.935  0.00  0.00    -0.389 OA
ATOM     31  H   UNL     1      -4.772  -3.233  23.840  0.00  0.00    +0.210 HD
ENDBRANCH  12   2
TORSDOF 8
ENDMDL
MODEL 3
REMARK VINA RESULT:       4.3      1.470      4.324
REMARK  Name = 71693882
REMARK  11 active torsions:
REMARK  status: ('A' for Active; 'I' for Inactive)
REMARK    1  A    between atoms: O_1  and  C_10
REMARK    2  A    between atoms: O_2  and  C_12
REMARK    3  A    between atoms: O_4  and  C_20
REMARK    4  A    between atoms: O_4  and  C_26
REMARK    5  A    between atoms: O_5  and  C_23
REMARK    6  A    between atoms: O_5  and  C_27
REMARK    7  A    between atoms: O_6  and  C_25
REMARK    8  A    between atoms: O_6  and  C_28
REMARK    9  A    between atoms: N_7  and  C_9
REMARK   10  A    between atoms: C_8  and  C_13
REMARK   11  A    between atoms: C_16  and  C_19
REMARK                            x       y       z     vdW  Elec       q    Type
REMARK                         _______ _______ _______ _____ _____    ______ ____
ROOT
ATOM      8  C   UNL     1      -2.676   1.996  23.682  0.00  0.00    +0.044 C 
ATOM      9  C   UNL     1      -1.617   2.557  24.659  0.00  0.00    +0.112 C 
ATOM     10  C   UNL     1      -1.891   4.061  24.653  0.00  0.00    +0.164 C 
ATOM     11  C   UNL     1      -3.817   3.046  23.646  0.00  0.00    +0.044 C 
ATOM     12  C   UNL     1      -3.413   4.136  24.636  0.00  0.00    +0.145 C 
ENDROOT
BRANCH   8  13
ATOM     13  C   UNL     1      -3.128   0.596  24.040  0.00  0.00    -0.042 A 
ATOM     14  C   UNL     1      -3.080   0.166  25.366  0.00  0.00    +0.007 A 
ATOM     15  C   UNL     1      -3.591  -0.264  23.045  0.00  0.00    +0.007 A 
ATOM     17  C   UNL     1      -3.496  -1.124  25.696  0.00  0.00    +0.046 A 
ATOM     18  C   UNL     1      -4.006  -1.554  23.374  0.00  0.00    +0.046 A 
ATOM     20  C   UNL     1      -3.959  -1.984  24.700  0.00  0.00    +0.120 A 
BRANCH  20   4
ATOM      4  O   UNL     1      -4.364  -3.243  25.022  0.00  0.00    -0.495 OA
ATOM     26  C   UNL     1      -3.978  -4.295  24.139  0.00  0.00    +0.277 C 
ENDBRANCH  20   4
ENDBRANCH   8  13
BRANCH   9   7
ATOM      3  O   UNL     1      -0.588  -0.028  23.953  0.00  0.00    -0.270 OA
ATOM      7  N   UNL     1      -0.275   2.254  24.233  0.00  0.00    -0.305 N 
ATOM     16  C   UNL     1       0.133   0.966  23.911  0.00  0.00    +0.245 C 
ATOM     29  H   UNL     1       0.383   3.024  24.213  0.00  0.00    +0.149 HD
BRANCH  16  19
ATOM     19  C   UNL     1       1.557   0.814  23.517  0.00  0.00    +0.040 A 
ATOM     21  C   UNL     1       2.149  -0.450  23.511  0.00  0.00    +0.062 A 
ATOM     22  C   UNL     1       2.302   1.935  23.152  0.00  0.00    +0.017 A 
ATOM     23  C   UNL     1       3.486  -0.592  23.140  0.00  0.00    +0.162 A 
ATOM     24  C   UNL     1       3.640   1.793  22.782  0.00  0.00    +0.050 A 
ATOM     25  C   UNL     1       4.231   0.529  22.776  0.00  0.00    +0.162 A 
BRANCH  23   5
ATOM      5  O   UNL     1       4.052  -1.831  23.139  0.00  0.00    -0.491 OA
ATOM     27  C   UNL     1       4.862  -2.175  24.261  0.00  0.00    +0.277 C 
ENDBRANCH  23   5
BRANCH  25   6
ATOM      6  O   UNL     1       5.539   0.403  22.412  0.00  0.00    -0.491 OA
ATOM     28  C   UNL     1       6.484   0.176  23.456  0.00  0.00    +0.277 C 
ENDBRANCH  25   6
ENDBRANCH  16  19
ENDBRANCH   9   7
BRANCH  10   1
ATOM      1  O   UNL     1      -1.360   4.707  25.794  0.00  0.00    -0.387 OA
ATOM     30  H   UNL     1      -1.145   4.018  26.446  0.00  0.00    +0.210 HD
ENDBRANCH  10   1
BRANCH  12   2
ATOM      2  O   UNL     1      -3.954   3.815  25.914  0.00  0.00    -0.389 OA
ATOM     31  H   UNL     1      -3.253   3.959  26.573  0.00  0.00    +0.210 HD
ENDBRANCH  12   2
TORSDOF 8
ENDMDL
MODEL 4
REMARK VINA RESULT:       4.5      1.734      7.555
REMARK  Name = 71693882
REMARK  11 active torsions:
REMARK  status: ('A' for Active; 'I' for Inactive)
REMARK    1  A    between atoms: O_1  and  C_10
REMARK    2  A    between atoms: O_2  and  C_12
REMARK    3  A    between atoms: O_4  and  C_20
REMARK    4  A    between atoms: O_4  and  C_26
REMARK    5  A    between atoms: O_5  and  C_23
REMARK    6  A    between atoms: O_5  and  C_27
REMARK    7  A    between atoms: O_6  and  C_25
REMARK    8  A    between atoms: O_6  and  C_28
REMARK    9  A    between atoms: N_7  and  C_9
REMARK   10  A    between atoms: C_8  and  C_13
REMARK   11  A    between atoms: C_16  and  C_19
REMARK                            x       y       z     vdW  Elec       q    Type
REMARK                         _______ _______ _______ _____ _____    ______ ____
ROOT
ATOM      8  C   UNL     1      -1.170  -1.022  23.564  0.00  0.00    +0.044 C 
ATOM      9  C   UNL     1      -1.701  -0.965  25.015  0.00  0.00    +0.112 C 
ATOM     10  C   UNL     1      -2.539  -2.237  25.136  0.00  0.00    +0.164 C 
ATOM     11  C   UNL     1      -1.216  -2.517  23.155  0.00  0.00    +0.044 C 
ATOM     12  C   UNL     1      -1.708  -3.272  24.388  0.00  0.00    +0.145 C 
ENDROOT
BRANCH   8  13
ATOM     13  C   UNL     1       0.189  -0.373  23.405  0.00  0.00    -0.042 A 
ATOM     14  C   UNL     1       0.444   0.862  23.999  0.00  0.00    +0.007 A 
ATOM     15  C   UNL     1       1.184  -1.011  22.666  0.00  0.00    +0.007 A 
ATOM     17  C   UNL     1       1.696   1.461  23.852  0.00  0.00    +0.046 A 
ATOM     18  C   UNL     1       2.436  -0.413  22.519  0.00  0.00    +0.046 A 
ATOM     20  C   UNL     1       2.692   0.823  23.113  0.00  0.00    +0.120 A 
BRANCH  20   4
ATOM      4  O   UNL     1       3.914   1.407  22.969  0.00  0.00    -0.495 OA
ATOM     26  C   UNL     1       5.057   0.590  23.216  0.00  0.00    +0.277 C 
ENDBRANCH  20   4
ENDBRANCH   8  13
BRANCH   9   7
ATOM      3  O   UNL     1      -4.367  -0.451  24.081  0.00  0.00    -0.270 OA
ATOM      7  N   UNL     1      -2.483   0.220  25.257  0.00  0.00    -0.305 N 
ATOM     16  C   UNL     1      -3.771   0.379  24.762  0.00  0.00    +0.245 C 
ATOM     29  H   UNL     1      -2.037   0.963  25.782  0.00  0.00    +0.149 HD
BRANCH  16  19
ATOM     19  C   UNL     1      -4.435   1.670  25.078  0.00  0.00    +0.040 A 
ATOM     21  C   UNL     1      -3.667   2.809  25.320  0.00  0.00    +0.062 A 
ATOM     22  C   UNL     1      -5.827   1.742  25.134  0.00  0.00    +0.017 A 
ATOM     23  C   UNL     1      -4.291   4.021  25.616  0.00  0.00    +0.162 A 
ATOM     24  C   UNL     1      -6.451   2.955  25.431  0.00  0.00    +0.050 A 
ATOM     25  C   UNL     1      -5.682   4.094  25.672  0.00  0.00    +0.162 A 
BRANCH  23   5
ATOM      5  O   UNL     1      -3.529   5.126  25.849  0.00  0.00    -0.491 OA
ATOM     27  C   UNL     1      -2.161   5.066  25.453  0.00  0.00    +0.277 C 
ENDBRANCH  23   5
BRANCH  25   6
ATOM      6  O   UNL     1      -6.303   5.272  25.961  0.00  0.00    -0.491 OA
ATOM     28  C   UNL     1      -6.643   6.112  24.859  0.00  0.00    +0.277 C 
ENDBRANCH  25   6
ENDBRANCH  16  19
ENDBRANCH   9   7
BRANCH  10   1
ATOM      1  O   UNL     1      -2.741  -2.620  26.483  0.00  0.00    -0.387 OA
ATOM     30  H   UNL     1      -3.616  -2.292  26.752  0.00  0.00    +0.210 HD
ENDBRANCH  10   1
BRANCH  12   2
ATOM      2  O   UNL     1      -0.579  -3.674  25.159  0.00  0.00    -0.389 OA
ATOM     31  H   UNL     1      -0.252  -2.889  25.631  0.00  0.00    +0.210 HD
ENDBRANCH  12   2
TORSDOF 8
ENDMDL
