MODEL 1
REMARK VINA RESULT:      -5.7      0.000      0.000
REMARK  Name = 75536646
REMARK  7 active torsions:
REMARK  status: ('A' for Active; 'I' for Inactive)
REMARK    1  A    between atoms: O_3  and  C_10
REMARK    2  A    between atoms: N_5  and  C_9
REMARK    3  A    between atoms: N_5  and  C_14
REMARK    4  A    between atoms: N_6  and  C_13
REMARK    5  A    between atoms: C_11  and  C_13
REMARK    6  A    between atoms: C_14  and  C_15
REMARK    7  A    between atoms: C_16  and  C_17
REMARK                            x       y       z     vdW  Elec       q    Type
REMARK                         _______ _______ _______ _____ _____    ______ ____
ROOT
ATOM      2  O   UNL     1      -1.649  -2.616  23.826  0.00  0.00    -0.371 OA
ATOM      9  C   UNL     1      -0.041  -1.001  24.497  0.00  0.00    +0.111 C 
ATOM     10  C   UNL     1      -1.257  -0.895  25.400  0.00  0.00    +0.164 C 
ATOM     11  C   UNL     1      -1.893  -2.264  25.198  0.00  0.00    +0.165 C 
ATOM     12  C   UNL     1      -0.614  -1.759  23.311  0.00  0.00    +0.181 C 
ENDROOT
BRANCH  10   3
ATOM      3  O   UNL     1      -0.913  -0.669  26.754  0.00  0.00    -0.388 OA
ATOM     26  H   UNL     1      -0.423  -1.443  27.079  0.00  0.00    +0.210 HD
ENDBRANCH  10   3
BRANCH   9   5
ATOM      5  N   UNL     1       0.523   0.286  24.127  0.00  0.00    -0.302 NA
ATOM     25  H   UNL     1       1.249   0.142  23.423  0.00  0.00    +0.123 HD
BRANCH   5  14
ATOM     14  C   UNL     1      -0.499   1.168  23.575  0.00  0.00    +0.156 C 
BRANCH  14  15
ATOM      7  N   UNL     1      -0.663   3.630  24.012  0.00  0.00    -0.347 N 
ATOM      8  N   UNL     1      -1.116   2.308  25.739  0.00  0.00    -0.240 NA
ATOM     15  C   UNL     1      -0.767   2.347  24.472  0.00  0.00    +0.121 A 
ATOM     18  C   UNL     1      -0.964   4.463  25.052  0.00  0.00    +0.104 A 
ATOM     19  C   UNL     1      -1.240   3.625  26.107  0.00  0.00    +0.130 A 
ATOM     28  H   UNL     1      -0.411   3.913  23.075  0.00  0.00    +0.167 HD
ENDBRANCH  14  15
ENDBRANCH   5  14
ENDBRANCH   9   5
BRANCH  11  13
ATOM     13  C   UNL     1      -3.386  -2.278  25.474  0.00  0.00    +0.138 C 
BRANCH  13   6
ATOM      4  O   UNL     1      -3.985  -0.450  23.342  0.00  0.00    -0.270 OA
ATOM      6  N   UNL     1      -3.905  -0.947  25.607  0.00  0.00    -0.309 N 
ATOM     16  C   UNL     1      -4.166  -0.128  24.513  0.00  0.00    +0.244 C 
ATOM     27  H   UNL     1      -4.010  -0.593  26.551  0.00  0.00    +0.149 HD
BRANCH  16  17
ATOM      1  F   UNL     1      -6.096   5.016  25.673  0.00  0.00    -0.205 F 
ATOM     17  C   UNL     1      -4.677   1.233  24.820  0.00  0.00    +0.037 A 
ATOM     20  C   UNL     1      -5.697   1.400  25.755  0.00  0.00    +0.016 A 
ATOM     21  C   UNL     1      -4.136   2.344  24.172  0.00  0.00    +0.016 A 
ATOM     22  C   UNL     1      -6.178   2.678  26.044  0.00  0.00    +0.039 A 
ATOM     23  C   UNL     1      -4.615   3.621  24.460  0.00  0.00    +0.039 A 
ATOM     24  C   UNL     1      -5.636   3.788  25.395  0.00  0.00    +0.123 A 
ENDBRANCH  16  17
ENDBRANCH  13   6
ENDBRANCH  11  13
TORSDOF 7
ENDMDL
MODEL 2
REMARK VINA RESULT:      -5.6      1.985      2.998
REMARK  Name = 75536646
REMARK  7 active torsions:
REMARK  status: ('A' for Active; 'I' for Inactive)
REMARK    1  A    between atoms: O_3  and  C_10
REMARK    2  A    between atoms: N_5  and  C_9
REMARK    3  A    between atoms: N_5  and  C_14
REMARK    4  A    between atoms: N_6  and  C_13
REMARK    5  A    between atoms: C_11  and  C_13
REMARK    6  A    between atoms: C_14  and  C_15
REMARK    7  A    between atoms: C_16  and  C_17
REMARK                            x       y       z     vdW  Elec       q    Type
REMARK                         _______ _______ _______ _____ _____    ______ ____
ROOT
ATOM      2  O   UNL     1      -1.585  -2.685  23.867  0.00  0.00    -0.371 OA
ATOM      9  C   UNL     1       0.020  -1.012  24.385  0.00  0.00    +0.111 C 
ATOM     10  C   UNL     1      -1.193  -0.828  25.279  0.00  0.00    +0.164 C 
ATOM     11  C   UNL     1      -1.826  -2.211  25.203  0.00  0.00    +0.165 C 
ATOM     12  C   UNL     1      -0.554  -1.876  23.274  0.00  0.00    +0.181 C 
ENDROOT
BRANCH  10   3
ATOM      3  O   UNL     1      -0.846  -0.479  26.605  0.00  0.00    -0.388 OA
ATOM     26  H   UNL     1      -1.257  -1.122  27.207  0.00  0.00    +0.210 HD
ENDBRANCH  10   3
BRANCH   9   5
ATOM      5  N   UNL     1       0.580   0.237  23.898  0.00  0.00    -0.302 NA
ATOM     25  H   UNL     1       1.169   0.646  24.626  0.00  0.00    +0.123 HD
BRANCH   5  14
ATOM     14  C   UNL     1       1.390   0.019  22.704  0.00  0.00    +0.156 C 
BRANCH  14  15
ATOM      7  N   UNL     1       3.528  -1.045  23.462  0.00  0.00    -0.347 N 
ATOM      8  N   UNL     1       3.663   1.098  22.895  0.00  0.00    -0.240 NA
ATOM     15  C   UNL     1       2.864   0.061  23.011  0.00  0.00    +0.121 A 
ATOM     18  C   UNL     1       4.835  -0.691  23.646  0.00  0.00    +0.104 A 
ATOM     19  C   UNL     1       4.894   0.636  23.290  0.00  0.00    +0.130 A 
ATOM     28  H   UNL     1       3.128  -1.959  23.629  0.00  0.00    +0.167 HD
ENDBRANCH  14  15
ENDBRANCH   5  14
ENDBRANCH   9   5
BRANCH  11  13
ATOM     13  C   UNL     1      -3.318  -2.204  25.484  0.00  0.00    +0.138 C 
BRANCH  13   6
ATOM      4  O   UNL     1      -3.987  -0.399  23.352  0.00  0.00    -0.270 OA
ATOM      6  N   UNL     1      -3.817  -0.865  25.619  0.00  0.00    -0.309 N 
ATOM     16  C   UNL     1      -4.115  -0.058  24.525  0.00  0.00    +0.244 C 
ATOM     27  H   UNL     1      -3.879  -0.496  26.561  0.00  0.00    +0.149 HD
BRANCH  16  17
ATOM      1  F   UNL     1      -5.941   5.123  25.689  0.00  0.00    -0.205 F 
ATOM     17  C   UNL     1      -4.598   1.312  24.833  0.00  0.00    +0.037 A 
ATOM     20  C   UNL     1      -5.795   1.491  25.526  0.00  0.00    +0.016 A 
ATOM     21  C   UNL     1      -3.856   2.421  24.428  0.00  0.00    +0.016 A 
ATOM     22  C   UNL     1      -6.249   2.778  25.816  0.00  0.00    +0.039 A 
ATOM     23  C   UNL     1      -4.309   3.708  24.717  0.00  0.00    +0.039 A 
ATOM     24  C   UNL     1      -5.506   3.886  25.411  0.00  0.00    +0.123 A 
ENDBRANCH  16  17
ENDBRANCH  13   6
ENDBRANCH  11  13
TORSDOF 7
ENDMDL
MODEL 3
REMARK VINA RESULT:      -5.1      2.862      5.416
REMARK  Name = 75536646
REMARK  7 active torsions:
REMARK  status: ('A' for Active; 'I' for Inactive)
REMARK    1  A    between atoms: O_3  and  C_10
REMARK    2  A    between atoms: N_5  and  C_9
REMARK    3  A    between atoms: N_5  and  C_14
REMARK    4  A    between atoms: N_6  and  C_13
REMARK    5  A    between atoms: C_11  and  C_13
REMARK    6  A    between atoms: C_14  and  C_15
REMARK    7  A    between atoms: C_16  and  C_17
REMARK                            x       y       z     vdW  Elec       q    Type
REMARK                         _______ _______ _______ _____ _____    ______ ____
ROOT
ATOM      2  O   UNL     1      -0.219   4.228  24.007  0.00  0.00    -0.371 OA
ATOM      9  C   UNL     1      -1.503   4.175  26.006  0.00  0.00    +0.111 C 
ATOM     10  C   UNL     1      -0.842   2.823  25.806  0.00  0.00    +0.164 C 
ATOM     11  C   UNL     1       0.293   3.188  24.858  0.00  0.00    +0.165 C 
ATOM     12  C   UNL     1      -1.412   4.764  24.607  0.00  0.00    +0.181 C 
ENDROOT
BRANCH  10   3
ATOM      3  O   UNL     1      -0.362   2.266  27.014  0.00  0.00    -0.388 OA
ATOM     26  H   UNL     1       0.310   1.597  26.796  0.00  0.00    +0.210 HD
ENDBRANCH  10   3
BRANCH   9   5
ATOM      5  N   UNL     1      -2.868   4.090  26.496  0.00  0.00    -0.302 NA
ATOM     25  H   UNL     1      -3.018   4.818  27.197  0.00  0.00    +0.123 HD
BRANCH   5  14
ATOM     14  C   UNL     1      -3.827   4.273  25.413  0.00  0.00    +0.156 C 
BRANCH  14  15
ATOM      7  N   UNL     1      -5.706   2.979  26.448  0.00  0.00    -0.347 N 
ATOM      8  N   UNL     1      -5.088   2.329  24.417  0.00  0.00    -0.240 NA
ATOM     15  C   UNL     1      -4.864   3.182  25.391  0.00  0.00    +0.121 A 
ATOM     18  C   UNL     1      -6.520   1.929  26.128  0.00  0.00    +0.104 A 
ATOM     19  C   UNL     1      -6.120   1.544  24.870  0.00  0.00    +0.130 A 
ATOM     28  H   UNL     1      -5.727   3.508  27.310  0.00  0.00    +0.167 HD
ENDBRANCH  14  15
ENDBRANCH   5  14
ENDBRANCH   9   5
BRANCH  11  13
ATOM     13  C   UNL     1       0.768   2.020  24.012  0.00  0.00    +0.138 C 
BRANCH  13   6
ATOM      4  O   UNL     1      -1.885   1.651  22.977  0.00  0.00    -0.270 OA
ATOM      6  N   UNL     1      -0.071   0.870  24.194  0.00  0.00    -0.309 N 
ATOM     16  C   UNL     1      -1.350   0.777  23.653  0.00  0.00    +0.244 C 
ATOM     27  H   UNL     1       0.284   0.141  24.802  0.00  0.00    +0.149 HD
BRANCH  16  17
ATOM      1  F   UNL     1      -4.188  -3.933  24.788  0.00  0.00    -0.205 F 
ATOM     17  C   UNL     1      -2.100  -0.469  23.954  0.00  0.00    +0.037 A 
ATOM     20  C   UNL     1      -3.466  -0.543  23.679  0.00  0.00    +0.016 A 
ATOM     21  C   UNL     1      -1.441  -1.564  24.510  0.00  0.00    +0.016 A 
ATOM     22  C   UNL     1      -4.172  -1.713  23.961  0.00  0.00    +0.039 A 
ATOM     23  C   UNL     1      -2.145  -2.734  24.792  0.00  0.00    +0.039 A 
ATOM     24  C   UNL     1      -3.511  -2.809  24.518  0.00  0.00    +0.123 A 
ENDBRANCH  16  17
ENDBRANCH  13   6
ENDBRANCH  11  13
TORSDOF 7
ENDMDL
MODEL 4
REMARK VINA RESULT:      -4.7      2.825      5.105
REMARK  Name = 75536646
REMARK  7 active torsions:
REMARK  status: ('A' for Active; 'I' for Inactive)
REMARK    1  A    between atoms: O_3  and  C_10
REMARK    2  A    between atoms: N_5  and  C_9
REMARK    3  A    between atoms: N_5  and  C_14
REMARK    4  A    between atoms: N_6  and  C_13
REMARK    5  A    between atoms: C_11  and  C_13
REMARK    6  A    between atoms: C_14  and  C_15
REMARK    7  A    between atoms: C_16  and  C_17
REMARK                            x       y       z     vdW  Elec       q    Type
REMARK                         _______ _______ _______ _____ _____    ______ ____
ROOT
ATOM      2  O   UNL     1      -3.585   3.791  26.839  0.00  0.00    -0.371 OA
ATOM      9  C   UNL     1      -1.969   4.483  25.241  0.00  0.00    +0.111 C 
ATOM     10  C   UNL     1      -3.228   4.047  24.515  0.00  0.00    +0.164 C 
ATOM     11  C   UNL     1      -4.263   4.160  25.626  0.00  0.00    +0.165 C 
ATOM     12  C   UNL     1      -2.167   3.833  26.601  0.00  0.00    +0.181 C 
ENDROOT
BRANCH  10   3
ATOM      3  O   UNL     1      -3.541   4.880  23.416  0.00  0.00    -0.388 OA
ATOM     26  H   UNL     1      -4.265   4.468  22.915  0.00  0.00    +0.210 HD
ENDBRANCH  10   3
BRANCH   9   5
ATOM      5  N   UNL     1      -0.743   4.060  24.586  0.00  0.00    -0.302 NA
ATOM     25  H   UNL     1      -0.129   4.869  24.472  0.00  0.00    +0.123 HD
BRANCH   5  14
ATOM     14  C   UNL     1      -0.048   3.048  25.373  0.00  0.00    +0.156 C 
BRANCH  14  15
ATOM      7  N   UNL     1       1.250   1.535  23.856  0.00  0.00    -0.347 N 
ATOM      8  N   UNL     1      -0.709   0.755  24.555  0.00  0.00    -0.240 NA
ATOM     15  C   UNL     1       0.131   1.765  24.606  0.00  0.00    +0.121 A 
ATOM     18  C   UNL     1       1.115   0.299  23.289  0.00  0.00    +0.104 A 
ATOM     19  C   UNL     1      -0.101  -0.163  23.735  0.00  0.00    +0.130 A 
ATOM     28  H   UNL     1       2.035   2.162  23.740  0.00  0.00    +0.167 HD
ENDBRANCH  14  15
ENDBRANCH   5  14
ENDBRANCH   9   5
BRANCH  11  13
ATOM     13  C   UNL     1      -5.469   3.262  25.418  0.00  0.00    +0.138 C 
BRANCH  13   6
ATOM      4  O   UNL     1      -3.963   1.835  23.433  0.00  0.00    -0.270 OA
ATOM      6  N   UNL     1      -5.100   1.876  25.455  0.00  0.00    -0.309 N 
ATOM     16  C   UNL     1      -4.365   1.265  24.443  0.00  0.00    +0.244 C 
ATOM     27  H   UNL     1      -5.461   1.330  26.228  0.00  0.00    +0.149 HD
BRANCH  16  17
ATOM      1  F   UNL     1      -3.310  -4.210  25.106  0.00  0.00    -0.205 F 
ATOM     17  C   UNL     1      -4.086  -0.183  24.618  0.00  0.00    +0.037 A 
ATOM     20  C   UNL     1      -3.532  -0.647  25.811  0.00  0.00    +0.016 A 
ATOM     21  C   UNL     1      -4.377  -1.080  23.590  0.00  0.00    +0.016 A 
ATOM     22  C   UNL     1      -3.269  -2.008  25.976  0.00  0.00    +0.039 A 
ATOM     23  C   UNL     1      -4.115  -2.439  23.755  0.00  0.00    +0.039 A 
ATOM     24  C   UNL     1      -3.561  -2.903  24.947  0.00  0.00    +0.123 A 
ENDBRANCH  16  17
ENDBRANCH  13   6
ENDBRANCH  11  13
TORSDOF 7
ENDMDL
MODEL 5
REMARK VINA RESULT:      -4.6      1.061      1.675
REMARK  Name = 75536646
REMARK  7 active torsions:
REMARK  status: ('A' for Active; 'I' for Inactive)
REMARK    1  A    between atoms: O_3  and  C_10
REMARK    2  A    between atoms: N_5  and  C_9
REMARK    3  A    between atoms: N_5  and  C_14
REMARK    4  A    between atoms: N_6  and  C_13
REMARK    5  A    between atoms: C_11  and  C_13
REMARK    6  A    between atoms: C_14  and  C_15
REMARK    7  A    between atoms: C_16  and  C_17
REMARK                            x       y       z     vdW  Elec       q    Type
REMARK                         _______ _______ _______ _____ _____    ______ ____
ROOT
ATOM      2  O   UNL     1      -2.238  -3.138  23.645  0.00  0.00    -0.371 OA
ATOM      9  C   UNL     1      -0.936  -1.985  25.264  0.00  0.00    +0.111 C 
ATOM     10  C   UNL     1      -2.355  -1.446  25.295  0.00  0.00    +0.164 C 
ATOM     11  C   UNL     1      -3.118  -2.591  24.643  0.00  0.00    +0.165 C 
ATOM     12  C   UNL     1      -0.904  -2.668  23.906  0.00  0.00    +0.181 C 
ENDROOT
BRANCH  10   3
ATOM      3  O   UNL     1      -2.812  -1.188  26.608  0.00  0.00    -0.388 OA
ATOM     26  H   UNL     1      -2.081  -0.796  27.115  0.00  0.00    +0.210 HD
ENDBRANCH  10   3
BRANCH   9   5
ATOM      5  N   UNL     1       0.081  -0.957  25.404  0.00  0.00    -0.302 NA
ATOM     25  H   UNL     1       1.001  -1.400  25.438  0.00  0.00    +0.123 HD
BRANCH   5  14
ATOM     14  C   UNL     1       0.047  -0.028  24.281  0.00  0.00    +0.156 C 
BRANCH  14  15
ATOM      7  N   UNL     1      -0.556   1.663  26.029  0.00  0.00    -0.347 N 
ATOM      8  N   UNL     1      -0.286   2.454  23.970  0.00  0.00    -0.240 NA
ATOM     15  C   UNL     1      -0.260   1.378  24.725  0.00  0.00    +0.121 A 
ATOM     18  C   UNL     1      -0.785   3.008  26.111  0.00  0.00    +0.104 A 
ATOM     19  C   UNL     1      -0.612   3.474  24.829  0.00  0.00    +0.130 A 
ATOM     28  H   UNL     1      -0.597   1.003  26.793  0.00  0.00    +0.167 HD
ENDBRANCH  14  15
ENDBRANCH   5  14
ENDBRANCH   9   5
BRANCH  11  13
ATOM     13  C   UNL     1      -4.419  -2.152  23.994  0.00  0.00    +0.138 C 
BRANCH  13   6
ATOM      4  O   UNL     1      -3.235   0.289  23.053  0.00  0.00    -0.270 OA
ATOM      6  N   UNL     1      -4.775  -0.819  24.389  0.00  0.00    -0.309 N 
ATOM     16  C   UNL     1      -4.144   0.311  23.879  0.00  0.00    +0.244 C 
ATOM     27  H   UNL     1      -5.470  -0.733  25.121  0.00  0.00    +0.149 HD
BRANCH  16  17
ATOM      1  F   UNL     1      -5.907   5.253  25.877  0.00  0.00    -0.205 F 
ATOM     17  C   UNL     1      -4.610   1.618  24.408  0.00  0.00    +0.037 A 
ATOM     20  C   UNL     1      -3.977   2.796  24.012  0.00  0.00    +0.016 A 
ATOM     21  C   UNL     1      -5.681   1.668  25.300  0.00  0.00    +0.016 A 
ATOM     22  C   UNL     1      -4.415   4.025  24.509  0.00  0.00    +0.039 A 
ATOM     23  C   UNL     1      -6.119   2.895  25.796  0.00  0.00    +0.039 A 
ATOM     24  C   UNL     1      -5.486   4.074  25.401  0.00  0.00    +0.123 A 
ENDBRANCH  16  17
ENDBRANCH  13   6
ENDBRANCH  11  13
TORSDOF 7
ENDMDL
MODEL 6
REMARK VINA RESULT:      -3.5     18.302     20.362
REMARK  Name = 75536646
REMARK  7 active torsions:
REMARK  status: ('A' for Active; 'I' for Inactive)
REMARK    1  A    between atoms: O_3  and  C_10
REMARK    2  A    between atoms: N_5  and  C_9
REMARK    3  A    between atoms: N_5  and  C_14
REMARK    4  A    between atoms: N_6  and  C_13
REMARK    5  A    between atoms: C_11  and  C_13
REMARK    6  A    between atoms: C_14  and  C_15
REMARK    7  A    between atoms: C_16  and  C_17
REMARK                            x       y       z     vdW  Elec       q    Type
REMARK                         _______ _______ _______ _____ _____    ______ ____
ROOT
ATOM      2  O   UNL     1      15.490  -7.576  28.627  0.00  0.00    -0.371 OA
ATOM      9  C   UNL     1      14.825  -6.749  30.752  0.00  0.00    +0.111 C 
ATOM     10  C   UNL     1      16.008  -5.939  30.254  0.00  0.00    +0.164 C 
ATOM     11  C   UNL     1      15.947  -6.219  28.758  0.00  0.00    +0.165 C 
ATOM     12  C   UNL     1      14.924  -7.992  29.883  0.00  0.00    +0.181 C 
ENDROOT
BRANCH  10   3
ATOM      3  O   UNL     1      15.883  -4.559  30.537  0.00  0.00    -0.388 OA
ATOM     26  H   UNL     1      14.992  -4.399  30.894  0.00  0.00    +0.210 HD
ENDBRANCH  10   3
BRANCH   9   5
ATOM      5  N   UNL     1      14.880  -7.047  32.173  0.00  0.00    -0.302 NA
ATOM     25  H   UNL     1      14.573  -6.227  32.699  0.00  0.00    +0.123 HD
BRANCH   5  14
ATOM     14  C   UNL     1      14.013  -8.172  32.508  0.00  0.00    +0.156 C 
BRANCH  14  15
ATOM      7  N   UNL     1      11.563  -8.656  32.311  0.00  0.00    -0.347 N 
ATOM      8  N   UNL     1      12.095  -6.574  32.873  0.00  0.00    -0.240 NA
ATOM     15  C   UNL     1      12.565  -7.765  32.574  0.00  0.00    +0.121 A 
ATOM     18  C   UNL     1      10.377  -7.991  32.451  0.00  0.00    +0.104 A 
ATOM     19  C   UNL     1      10.731  -6.709  32.799  0.00  0.00    +0.130 A 
ATOM     28  H   UNL     1      11.675  -9.629  32.059  0.00  0.00    +0.167 HD
ENDBRANCH  14  15
ENDBRANCH   5  14
ENDBRANCH   9   5
BRANCH  11  13
ATOM     13  C   UNL     1      17.286  -6.058  28.062  0.00  0.00    +0.138 C 
BRANCH  13   6
ATOM      4  O   UNL     1      17.042  -6.391  25.221  0.00  0.00    -0.270 OA
ATOM      6  N   UNL     1      17.241  -5.015  27.078  0.00  0.00    -0.309 N 
ATOM     16  C   UNL     1      17.121  -5.270  25.715  0.00  0.00    +0.244 C 
ATOM     27  H   UNL     1      17.372  -4.068  27.414  0.00  0.00    +0.149 HD
BRANCH  16  17
ATOM      1  F   UNL     1      17.096  -0.779  22.345  0.00  0.00    -0.205 F 
ATOM     17  C   UNL     1      17.114  -4.082  24.824  0.00  0.00    +0.037 A 
ATOM     20  C   UNL     1      17.103  -2.800  25.371  0.00  0.00    +0.016 A 
ATOM     21  C   UNL     1      17.118  -4.249  23.439  0.00  0.00    +0.016 A 
ATOM     22  C   UNL     1      17.097  -1.683  24.534  0.00  0.00    +0.039 A 
ATOM     23  C   UNL     1      17.111  -3.134  22.602  0.00  0.00    +0.039 A 
ATOM     24  C   UNL     1      17.101  -1.851  23.149  0.00  0.00    +0.123 A 
ENDBRANCH  16  17
ENDBRANCH  13   6
ENDBRANCH  11  13
TORSDOF 7
ENDMDL
MODEL 7
REMARK VINA RESULT:      -2.8     16.437     18.574
REMARK  Name = 75536646
REMARK  7 active torsions:
REMARK  status: ('A' for Active; 'I' for Inactive)
REMARK    1  A    between atoms: O_3  and  C_10
REMARK    2  A    between atoms: N_5  and  C_9
REMARK    3  A    between atoms: N_5  and  C_14
REMARK    4  A    between atoms: N_6  and  C_13
REMARK    5  A    between atoms: C_11  and  C_13
REMARK    6  A    between atoms: C_14  and  C_15
REMARK    7  A    between atoms: C_16  and  C_17
REMARK                            x       y       z     vdW  Elec       q    Type
REMARK                         _______ _______ _______ _____ _____    ______ ____
ROOT
ATOM      2  O   UNL     1      12.393  -7.325  31.097  0.00  0.00    -0.371 OA
ATOM      9  C   UNL     1      14.232  -5.957  31.723  0.00  0.00    +0.111 C 
ATOM     10  C   UNL     1      14.206  -7.189  32.610  0.00  0.00    +0.164 C 
ATOM     11  C   UNL     1      13.369  -8.141  31.766  0.00  0.00    +0.165 C 
ATOM     12  C   UNL     1      12.813  -5.951  31.177  0.00  0.00    +0.181 C 
ENDROOT
BRANCH  10   3
ATOM      3  O   UNL     1      15.498  -7.706  32.863  0.00  0.00    -0.388 OA
ATOM     26  H   UNL     1      16.117  -7.305  32.230  0.00  0.00    +0.210 HD
ENDBRANCH  10   3
BRANCH   9   5
ATOM      5  N   UNL     1      14.569  -4.735  32.434  0.00  0.00    -0.302 NA
ATOM     25  H   UNL     1      14.270  -4.820  33.406  0.00  0.00    +0.123 HD
BRANCH   5  14
ATOM     14  C   UNL     1      16.007  -4.490  32.403  0.00  0.00    +0.156 C 
BRANCH  14  15
ATOM      7  N   UNL     1      16.745  -2.112  32.686  0.00  0.00    -0.347 N 
ATOM      8  N   UNL     1      16.266  -2.736  30.609  0.00  0.00    -0.240 NA
ATOM     15  C   UNL     1      16.331  -3.122  31.863  0.00  0.00    +0.121 A 
ATOM     18  C   UNL     1      16.957  -1.010  31.906  0.00  0.00    +0.104 A 
ATOM     19  C   UNL     1      16.655  -1.419  30.629  0.00  0.00    +0.130 A 
ATOM     28  H   UNL     1      16.872  -2.168  33.688  0.00  0.00    +0.167 HD
ENDBRANCH  14  15
ENDBRANCH   5  14
ENDBRANCH   9   5
BRANCH  11  13
ATOM     13  C   UNL     1      12.670  -9.212  32.584  0.00  0.00    +0.138 C 
BRANCH  13   6
ATOM      4  O   UNL     1      10.521 -10.750  31.461  0.00  0.00    -0.270 OA
ATOM      6  N   UNL     1      11.266  -8.940  32.707  0.00  0.00    -0.309 N 
ATOM     16  C   UNL     1      10.290  -9.744  32.126  0.00  0.00    +0.244 C 
ATOM     27  H   UNL     1      11.009  -8.084  33.184  0.00  0.00    +0.149 HD
BRANCH  16  17
ATOM      1  F   UNL     1       4.969  -8.115  32.873  0.00  0.00    -0.205 F 
ATOM     17  C   UNL     1       8.882  -9.313  32.324  0.00  0.00    +0.037 A 
ATOM     20  C   UNL     1       8.592  -7.973  32.578  0.00  0.00    +0.016 A 
ATOM     21  C   UNL     1       7.850 -10.248  32.256  0.00  0.00    +0.016 A 
ATOM     22  C   UNL     1       7.270  -7.567  32.764  0.00  0.00    +0.039 A 
ATOM     23  C   UNL     1       6.528  -9.844  32.442  0.00  0.00    +0.039 A 
ATOM     24  C   UNL     1       6.238  -8.504  32.696  0.00  0.00    +0.123 A 
ENDBRANCH  16  17
ENDBRANCH  13   6
ENDBRANCH  11  13
TORSDOF 7
ENDMDL
MODEL 8
REMARK VINA RESULT:      -2.7      1.702      4.208
REMARK  Name = 75536646
REMARK  7 active torsions:
REMARK  status: ('A' for Active; 'I' for Inactive)
REMARK    1  A    between atoms: O_3  and  C_10
REMARK    2  A    between atoms: N_5  and  C_9
REMARK    3  A    between atoms: N_5  and  C_14
REMARK    4  A    between atoms: N_6  and  C_13
REMARK    5  A    between atoms: C_11  and  C_13
REMARK    6  A    between atoms: C_14  and  C_15
REMARK    7  A    between atoms: C_16  and  C_17
REMARK                            x       y       z     vdW  Elec       q    Type
REMARK                         _______ _______ _______ _____ _____    ______ ____
ROOT
ATOM      2  O   UNL     1      -1.314  -1.033  26.461  0.00  0.00    -0.371 OA
ATOM      9  C   UNL     1      -2.973  -2.295  25.322  0.00  0.00    +0.111 C 
ATOM     10  C   UNL     1      -1.838  -1.987  24.362  0.00  0.00    +0.164 C 
ATOM     11  C   UNL     1      -0.705  -1.684  25.333  0.00  0.00    +0.165 C 
ATOM     12  C   UNL     1      -2.733  -1.262  26.411  0.00  0.00    +0.181 C 
ENDROOT
BRANCH  10   3
ATOM      3  O   UNL     1      -1.529  -3.077  23.514  0.00  0.00    -0.388 OA
ATOM     26  H   UNL     1      -2.339  -3.597  23.377  0.00  0.00    +0.210 HD
ENDBRANCH  10   3
BRANCH   9   5
ATOM      5  N   UNL     1      -4.291  -2.187  24.720  0.00  0.00    -0.302 NA
ATOM     25  H   UNL     1      -4.973  -1.963  25.447  0.00  0.00    +0.123 HD
BRANCH   5  14
ATOM     14  C   UNL     1      -4.322  -1.139  23.706  0.00  0.00    +0.156 C 
BRANCH  14  15
ATOM      7  N   UNL     1      -4.268   1.366  23.729  0.00  0.00    -0.347 N 
ATOM      8  N   UNL     1      -5.440   0.409  25.354  0.00  0.00    -0.240 NA
ATOM     15  C   UNL     1      -4.697   0.197  24.291  0.00  0.00    +0.121 A 
ATOM     18  C   UNL     1      -4.769   2.390  24.481  0.00  0.00    +0.104 A 
ATOM     19  C   UNL     1      -5.489   1.776  25.478  0.00  0.00    +0.130 A 
ATOM     28  H   UNL     1      -3.687   1.459  22.906  0.00  0.00    +0.167 HD
ENDBRANCH  14  15
ENDBRANCH   5  14
ENDBRANCH   9   5
BRANCH  11  13
ATOM     13  C   UNL     1       0.368  -0.788  24.741  0.00  0.00    +0.138 C 
BRANCH  13   6
ATOM      4  O   UNL     1      -1.339   0.858  23.122  0.00  0.00    -0.270 OA
ATOM      6  N   UNL     1       0.065   0.599  24.951  0.00  0.00    -0.309 N 
ATOM     16  C   UNL     1      -0.777   1.321  24.111  0.00  0.00    +0.244 C 
ATOM     27  H   UNL     1       0.553   1.061  25.710  0.00  0.00    +0.149 HD
BRANCH  16  17
ATOM      1  F   UNL     1      -1.506   6.740  25.390  0.00  0.00    -0.205 F 
ATOM     17  C   UNL     1      -0.970   2.754  24.450  0.00  0.00    +0.037 A 
ATOM     20  C   UNL     1      -0.212   3.731  23.805  0.00  0.00    +0.016 A 
ATOM     21  C   UNL     1      -1.909   3.124  25.412  0.00  0.00    +0.016 A 
ATOM     22  C   UNL     1      -0.392   5.078  24.122  0.00  0.00    +0.039 A 
ATOM     23  C   UNL     1      -2.090   4.470  25.730  0.00  0.00    +0.039 A 
ATOM     24  C   UNL     1      -1.332   5.447  25.085  0.00  0.00    +0.123 A 
ENDBRANCH  16  17
ENDBRANCH  13   6
ENDBRANCH  11  13
TORSDOF 7
ENDMDL
MODEL 9
REMARK VINA RESULT:      -2.3      3.506      5.328
REMARK  Name = 75536646
REMARK  7 active torsions:
REMARK  status: ('A' for Active; 'I' for Inactive)
REMARK    1  A    between atoms: O_3  and  C_10
REMARK    2  A    between atoms: N_5  and  C_9
REMARK    3  A    between atoms: N_5  and  C_14
REMARK    4  A    between atoms: N_6  and  C_13
REMARK    5  A    between atoms: C_11  and  C_13
REMARK    6  A    between atoms: C_14  and  C_15
REMARK    7  A    between atoms: C_16  and  C_17
REMARK                            x       y       z     vdW  Elec       q    Type
REMARK                         _______ _______ _______ _____ _____    ______ ____
ROOT
ATOM      2  O   UNL     1      -3.108   4.255  25.817  0.00  0.00    -0.371 OA
ATOM      9  C   UNL     1      -0.799   3.861  25.417  0.00  0.00    +0.111 C 
ATOM     10  C   UNL     1      -1.606   3.291  24.265  0.00  0.00    +0.164 C 
ATOM     11  C   UNL     1      -2.909   4.066  24.406  0.00  0.00    +0.165 C 
ATOM     12  C   UNL     1      -1.865   3.993  26.493  0.00  0.00    +0.181 C 
ENDROOT
BRANCH  10   3
ATOM      3  O   UNL     1      -0.995   3.512  23.008  0.00  0.00    -0.388 OA
ATOM     26  H   UNL     1      -1.368   2.879  22.371  0.00  0.00    +0.210 HD
ENDBRANCH  10   3
BRANCH   9   5
ATOM      5  N   UNL     1       0.313   3.019  25.823  0.00  0.00    -0.302 NA
ATOM     25  H   UNL     1       1.129   3.606  26.003  0.00  0.00    +0.123 HD
BRANCH   5  14
ATOM     14  C   UNL     1      -0.008   2.273  27.035  0.00  0.00    +0.156 C 
BRANCH  14  15
ATOM      7  N   UNL     1       0.826   2.049  29.387  0.00  0.00    -0.347 N 
ATOM      8  N   UNL     1       2.231   2.993  27.949  0.00  0.00    -0.240 NA
ATOM     15  C   UNL     1       1.041   2.455  28.099  0.00  0.00    +0.121 A 
ATOM     18  C   UNL     1       1.950   2.348  30.103  0.00  0.00    +0.104 A 
ATOM     19  C   UNL     1       2.803   2.930  29.195  0.00  0.00    +0.130 A 
ATOM     28  H   UNL     1      -0.011   1.608  29.745  0.00  0.00    +0.167 HD
ENDBRANCH  14  15
ENDBRANCH   5  14
ENDBRANCH   9   5
BRANCH  11  13
ATOM     13  C   UNL     1      -4.105   3.344  23.811  0.00  0.00    +0.138 C 
BRANCH  13   6
ATOM      4  O   UNL     1      -5.186   1.539  25.764  0.00  0.00    -0.270 OA
ATOM      6  N   UNL     1      -3.928   1.921  23.852  0.00  0.00    -0.309 N 
ATOM     16  C   UNL     1      -4.492   1.121  24.841  0.00  0.00    +0.244 C 
ATOM     27  H   UNL     1      -3.306   1.520  23.159  0.00  0.00    +0.149 HD
BRANCH  16  17
ATOM      1  F   UNL     1      -3.365  -4.371  24.528  0.00  0.00    -0.205 F 
ATOM     17  C   UNL     1      -4.194  -0.332  24.759  0.00  0.00    +0.037 A 
ATOM     20  C   UNL     1      -4.584  -1.061  23.635  0.00  0.00    +0.016 A 
ATOM     21  C   UNL     1      -3.524  -0.968  25.804  0.00  0.00    +0.016 A 
ATOM     22  C   UNL     1      -4.304  -2.426  23.557  0.00  0.00    +0.039 A 
ATOM     23  C   UNL     1      -3.244  -2.332  25.726  0.00  0.00    +0.039 A 
ATOM     24  C   UNL     1      -3.634  -3.061  24.603  0.00  0.00    +0.123 A 
ENDBRANCH  16  17
ENDBRANCH  13   6
ENDBRANCH  11  13
TORSDOF 7
ENDMDL
MODEL 10
REMARK VINA RESULT:      -2.2      4.145      6.848
REMARK  Name = 75536646
REMARK  7 active torsions:
REMARK  status: ('A' for Active; 'I' for Inactive)
REMARK    1  A    between atoms: O_3  and  C_10
REMARK    2  A    between atoms: N_5  and  C_9
REMARK    3  A    between atoms: N_5  and  C_14
REMARK    4  A    between atoms: N_6  and  C_13
REMARK    5  A    between atoms: C_11  and  C_13
REMARK    6  A    between atoms: C_14  and  C_15
REMARK    7  A    between atoms: C_16  and  C_17
REMARK                            x       y       z     vdW  Elec       q    Type
REMARK                         _______ _______ _______ _____ _____    ______ ____
ROOT
ATOM      2  O   UNL     1      -1.065  -0.178  25.473  0.00  0.00    -0.371 OA
ATOM      9  C   UNL     1      -3.349  -0.776  25.745  0.00  0.00    +0.111 C 
ATOM     10  C   UNL     1      -2.886  -1.203  24.364  0.00  0.00    +0.164 C 
ATOM     11  C   UNL     1      -1.376  -1.244  24.559  0.00  0.00    +0.165 C 
ATOM     12  C   UNL     1      -2.282   0.241  26.118  0.00  0.00    +0.181 C 
ENDROOT
BRANCH  10   3
ATOM      3  O   UNL     1      -3.402  -2.463  23.981  0.00  0.00    -0.388 OA
ATOM     26  H   UNL     1      -2.741  -3.143  24.196  0.00  0.00    +0.210 HD
ENDBRANCH  10   3
BRANCH   9   5
ATOM      5  N   UNL     1      -4.691  -0.219  25.764  0.00  0.00    -0.302 NA
ATOM     25  H   UNL     1      -4.775   0.423  26.554  0.00  0.00    +0.123 HD
BRANCH   5  14
ATOM     14  C   UNL     1      -4.974   0.510  24.532  0.00  0.00    +0.156 C 
BRANCH  14  15
ATOM      7  N   UNL     1      -5.222   2.737  25.652  0.00  0.00    -0.347 N 
ATOM      8  N   UNL     1      -3.862   2.683  23.897  0.00  0.00    -0.240 NA
ATOM     15  C   UNL     1      -4.662   1.977  24.664  0.00  0.00    +0.121 A 
ATOM     18  C   UNL     1      -4.748   4.010  25.506  0.00  0.00    +0.104 A 
ATOM     19  C   UNL     1      -3.911   3.953  24.417  0.00  0.00    +0.130 A 
ATOM     28  H   UNL     1      -5.867   2.418  26.362  0.00  0.00    +0.167 HD
ENDBRANCH  14  15
ENDBRANCH   5  14
ENDBRANCH   9   5
BRANCH  11  13
ATOM     13  C   UNL     1      -0.599  -1.057  23.269  0.00  0.00    +0.138 C 
BRANCH  13   6
ATOM      4  O   UNL     1       1.412  -0.366  21.339  0.00  0.00    -0.270 OA
ATOM      6  N   UNL     1       0.793  -0.819  23.528  0.00  0.00    -0.309 N 
ATOM     16  C   UNL     1       1.700  -0.488  22.526  0.00  0.00    +0.244 C 
ATOM     27  H   UNL     1       1.110  -0.974  24.478  0.00  0.00    +0.149 HD
BRANCH  16  17
ATOM      1  F   UNL     1       7.030   0.224  24.141  0.00  0.00    -0.205 F 
ATOM     17  C   UNL     1       3.110  -0.299  22.953  0.00  0.00    +0.037 A 
ATOM     20  C   UNL     1       3.788  -1.335  23.596  0.00  0.00    +0.016 A 
ATOM     21  C   UNL     1       3.756   0.913  22.713  0.00  0.00    +0.016 A 
ATOM     22  C   UNL     1       5.113  -1.158  23.998  0.00  0.00    +0.039 A 
ATOM     23  C   UNL     1       5.079   1.090  23.114  0.00  0.00    +0.039 A 
ATOM     24  C   UNL     1       5.758   0.055  23.756  0.00  0.00    +0.123 A 
ENDBRANCH  16  17
ENDBRANCH  13   6
ENDBRANCH  11  13
TORSDOF 7
ENDMDL
