MODEL 1
REMARK VINA RESULT:       6.4      0.000      0.000
REMARK  Name = 11885265
REMARK  3 active torsions:
REMARK  status: ('A' for Active; 'I' for Inactive)
REMARK    1  A    between atoms: C_13  and  C_14
REMARK    2  A    between atoms: C_22  and  C_24
REMARK    3  A    between atoms: C_25  and  C_26
REMARK                            x       y       z     vdW  Elec       q    Type
REMARK                         _______ _______ _______ _____ _____    ______ ____
ROOT
ATOM      2  O   UNL     1      -4.567   0.287  27.276  0.00  0.00    -0.275 OA
ATOM      3  O   UNL     1      -0.250   3.089  25.800  0.00  0.00    -0.267 OA
ATOM      4  N   UNL     1      -5.015   1.564  25.387  0.00  0.00    -0.300 N 
ATOM      5  N   UNL     1      -2.259   2.996  24.621  0.00  0.00    -0.311 N 
ATOM      6  C   UNL     1      -4.437   3.989  25.534  0.00  0.00    +0.027 C 
ATOM      7  C   UNL     1      -4.429   2.865  23.347  0.00  0.00    +0.054 C 
ATOM      8  C   UNL     1      -4.811   4.157  24.068  0.00  0.00    +0.018 C 
ATOM      9  C   UNL     1      -5.192   2.799  26.151  0.00  0.00    +0.113 C 
ATOM     10  C   UNL     1      -5.231   1.688  23.937  0.00  0.00    +0.117 C 
ATOM     11  C   UNL     1      -2.915   3.823  25.643  0.00  0.00    +0.130 C 
ATOM     12  C   UNL     1      -2.943   2.589  23.472  0.00  0.00    +0.027 A 
ATOM     14  C   UNL     1      -4.746   0.370  26.058  0.00  0.00    +0.219 C 
ATOM     17  C   UNL     1      -2.292   1.934  22.499  0.00  0.00    +0.022 A 
ATOM     20  C   UNL     1      -0.888   2.727  24.808  0.00  0.00    +0.259 A 
ATOM     22  C   UNL     1      -0.192   1.965  23.714  0.00  0.00    +0.040 A 
ATOM     23  C   UNL     1      -0.898   1.618  22.628  0.00  0.00    +0.015 A 
ENDROOT
BRANCH  14  13
ATOM     13  C   UNL     1      -4.668  -0.871  25.219  0.00  0.00    +0.075 C 
ATOM     15  C   UNL     1      -4.171  -0.521  23.815  0.00  0.00    +0.013 C 
ATOM     16  C   UNL     1      -3.761  -1.901  25.894  0.00  0.00    +0.013 C 
ATOM     18  C   UNL     1      -3.987  -1.768  22.954  0.00  0.00    +0.001 C 
ATOM     19  C   UNL     1      -3.578  -3.145  25.028  0.00  0.00    +0.001 C 
ATOM     21  C   UNL     1      -3.080  -2.791  23.631  0.00  0.00    +0.000 C 
ENDBRANCH  14  13
BRANCH  22  24
ATOM     24  C   UNL     1       1.204   1.634  23.843  0.00  0.00    +0.014 C 
ATOM     25  C   UNL     1       1.792   0.668  23.125  0.00  0.00    +0.008 C 
BRANCH  25  26
ATOM      1 CL   UNL     1       7.540  -0.869  23.544  0.00  0.00    -0.084 Cl
ATOM     26  C   UNL     1       3.211   0.288  23.229  0.00  0.00    -0.025 A 
ATOM     27  C   UNL     1       3.543  -0.997  23.626  0.00  0.00    +0.009 A 
ATOM     28  C   UNL     1       4.188   1.223  22.926  0.00  0.00    +0.009 A 
ATOM     29  C   UNL     1       4.888  -1.356  23.724  0.00  0.00    +0.020 A 
ATOM     30  C   UNL     1       5.532   0.865  23.025  0.00  0.00    +0.020 A 
ATOM     31  C   UNL     1       5.882  -0.426  23.423  0.00  0.00    +0.041 A 
ENDBRANCH  25  26
ENDBRANCH  22  24
TORSDOF 3
ENDMDL
