MODEL 1
REMARK VINA RESULT:      -4.7      0.000      0.000
REMARK  Name = 40779659
REMARK  5 active torsions:
REMARK  status: ('A' for Active; 'I' for Inactive)
REMARK    1  A    between atoms: N_3  and  C_12
REMARK    2  A    between atoms: N_4  and  C_13
REMARK    3  A    between atoms: C_6  and  C_12
REMARK    4  A    between atoms: C_7  and  C_13
REMARK    5  A    between atoms: C_19  and  C_22
REMARK                            x       y       z     vdW  Elec       q    Type
REMARK                         _______ _______ _______ _____ _____    ______ ____
ROOT
ATOM      2  N   UNL     1      -2.440  -1.552  23.521  0.00  0.00    -0.298 NA
ATOM      5  C   UNL     1      -3.438  -1.625  25.922  0.00  0.00    -0.003 C 
ATOM      6  C   UNL     1      -4.396  -0.901  24.947  0.00  0.00    +0.020 C 
ATOM      7  C   UNL     1      -1.450  -1.026  24.501  0.00  0.00    +0.074 C 
ATOM      8  C   UNL     1      -2.071  -0.918  25.911  0.00  0.00    +0.024 C 
ATOM      9  C   UNL     1      -3.692  -0.761  23.580  0.00  0.00    +0.089 C 
ATOM     10  C   UNL     1      -3.222  -3.044  25.365  0.00  0.00    +0.019 C 
ATOM     11  C   UNL     1      -2.758  -2.950  23.900  0.00  0.00    +0.085 C 
ENDROOT
BRANCH   6  12
ATOM     12  C   UNL     1      -4.883   0.447  25.472  0.00  0.00    +0.089 C 
BRANCH  12   3
ATOM      3  N   UNL     1      -4.094   1.543  24.909  0.00  0.00    -0.298 NA
ATOM     14  C   UNL     1      -4.920   2.744  24.736  0.00  0.00    +0.089 C 
ATOM     15  C   UNL     1      -2.939   1.839  25.774  0.00  0.00    +0.119 C 
ATOM     16  C   UNL     1      -4.136   3.806  23.958  0.00  0.00    +0.051 C 
ATOM     17  C   UNL     1      -2.154   3.052  25.329  0.00  0.00    -0.030 A 
ATOM     18  C   UNL     1      -2.745   4.017  24.495  0.00  0.00    -0.042 A 
ATOM     20  C   UNL     1      -0.851   3.253  25.801  0.00  0.00    +0.005 A 
ATOM     21  C   UNL     1      -2.011   5.148  24.115  0.00  0.00    +0.004 A 
ATOM     23  C   UNL     1      -0.131   4.387  25.425  0.00  0.00    +0.000 A 
ATOM     24  C   UNL     1      -0.709   5.332  24.581  0.00  0.00    +0.000 A 
ENDBRANCH  12   3
ENDBRANCH   6  12
BRANCH   7  13
ATOM     13  C   UNL     1      -0.831   0.300  24.049  0.00  0.00    +0.123 C 
BRANCH  13   4
ATOM      1  O   UNL     1       0.908  -0.352  21.860  0.00  0.00    -0.270 OA
ATOM      4  N   UNL     1       0.621   0.228  24.085  0.00  0.00    -0.310 N 
ATOM     19  C   UNL     1       1.368  -0.096  22.968  0.00  0.00    +0.244 C 
ATOM     30  H   UNL     1       1.061   0.362  24.989  0.00  0.00    +0.149 HD
BRANCH  19  22
ATOM     22  C   UNL     1       2.838  -0.153  23.176  0.00  0.00    +0.037 A 
ATOM     25  C   UNL     1       3.627   0.958  22.883  0.00  0.00    +0.013 A 
ATOM     26  C   UNL     1       3.428  -1.319  23.665  0.00  0.00    +0.013 A 
ATOM     27  C   UNL     1       5.008   0.904  23.079  0.00  0.00    +0.001 A 
ATOM     28  C   UNL     1       4.807  -1.373  23.861  0.00  0.00    +0.001 A 
ATOM     29  C   UNL     1       5.597  -0.261  23.569  0.00  0.00    +0.000 A 
ENDBRANCH  19  22
ENDBRANCH  13   4
ENDBRANCH   7  13
TORSDOF 5
ENDMDL
MODEL 2
REMARK VINA RESULT:      -3.3      2.071      6.559
REMARK  Name = 40779659
REMARK  5 active torsions:
REMARK  status: ('A' for Active; 'I' for Inactive)
REMARK    1  A    between atoms: N_3  and  C_12
REMARK    2  A    between atoms: N_4  and  C_13
REMARK    3  A    between atoms: C_6  and  C_12
REMARK    4  A    between atoms: C_7  and  C_13
REMARK    5  A    between atoms: C_19  and  C_22
REMARK                            x       y       z     vdW  Elec       q    Type
REMARK                         _______ _______ _______ _____ _____    ______ ____
ROOT
ATOM      2  N   UNL     1      -3.741   4.091  24.170  0.00  0.00    -0.298 NA
ATOM      5  C   UNL     1      -1.880   4.377  25.965  0.00  0.00    -0.003 C 
ATOM      6  C   UNL     1      -1.557   3.199  25.018  0.00  0.00    +0.020 C 
ATOM      7  C   UNL     1      -4.345   4.123  25.530  0.00  0.00    +0.074 C 
ATOM      8  C   UNL     1      -3.252   4.141  26.622  0.00  0.00    +0.024 C 
ATOM      9  C   UNL     1      -2.757   2.985  24.071  0.00  0.00    +0.089 C 
ATOM     10  C   UNL     1      -2.005   5.636  25.086  0.00  0.00    +0.019 C 
ATOM     11  C   UNL     1      -3.021   5.370  23.961  0.00  0.00    +0.085 C 
ENDROOT
BRANCH   6  12
ATOM     12  C   UNL     1      -1.187   1.916  25.758  0.00  0.00    +0.089 C 
BRANCH  12   3
ATOM      3  N   UNL     1      -0.274   1.097  24.960  0.00  0.00    -0.298 NA
ATOM     14  C   UNL     1      -0.988   0.442  23.858  0.00  0.00    +0.089 C 
ATOM     15  C   UNL     1       0.827   1.924  24.433  0.00  0.00    +0.119 C 
ATOM     16  C   UNL     1      -0.065  -0.567  23.167  0.00  0.00    +0.051 C 
ATOM     17  C   UNL     1       1.735   1.175  23.485  0.00  0.00    -0.030 A 
ATOM     18  C   UNL     1       1.290   0.006  22.844  0.00  0.00    -0.042 A 
ATOM     20  C   UNL     1       3.007   1.682  23.190  0.00  0.00    +0.005 A 
ATOM     21  C   UNL     1       2.137  -0.659  21.948  0.00  0.00    +0.004 A 
ATOM     23  C   UNL     1       3.840   1.018  22.289  0.00  0.00    +0.000 A 
ATOM     24  C   UNL     1       3.406  -0.153  21.671  0.00  0.00    +0.000 A 
ENDBRANCH  12   3
ENDBRANCH   6  12
BRANCH   7  13
ATOM     13  C   UNL     1      -5.348   2.987  25.749  0.00  0.00    +0.123 C 
BRANCH  13   4
ATOM      1  O   UNL     1      -6.263   0.740  24.214  0.00  0.00    -0.270 OA
ATOM      4  N   UNL     1      -4.695   1.694  25.629  0.00  0.00    -0.310 N 
ATOM     19  C   UNL     1      -5.221   0.674  24.860  0.00  0.00    +0.244 C 
ATOM     30  H   UNL     1      -3.863   1.550  26.192  0.00  0.00    +0.149 HD
BRANCH  19  22
ATOM     22  C   UNL     1      -4.447  -0.594  24.862  0.00  0.00    +0.037 A 
ATOM     25  C   UNL     1      -4.551  -1.477  23.787  0.00  0.00    +0.013 A 
ATOM     26  C   UNL     1      -3.614  -0.902  25.938  0.00  0.00    +0.013 A 
ATOM     27  C   UNL     1      -3.823  -2.667  23.789  0.00  0.00    +0.001 A 
ATOM     28  C   UNL     1      -2.887  -2.091  25.941  0.00  0.00    +0.001 A 
ATOM     29  C   UNL     1      -2.991  -2.974  24.865  0.00  0.00    +0.000 A 
ENDBRANCH  19  22
ENDBRANCH  13   4
ENDBRANCH   7  13
TORSDOF 5
ENDMDL
MODEL 3
REMARK VINA RESULT:      -2.3      1.172      4.918
REMARK  Name = 40779659
REMARK  5 active torsions:
REMARK  status: ('A' for Active; 'I' for Inactive)
REMARK    1  A    between atoms: N_3  and  C_12
REMARK    2  A    between atoms: N_4  and  C_13
REMARK    3  A    between atoms: C_6  and  C_12
REMARK    4  A    between atoms: C_7  and  C_13
REMARK    5  A    between atoms: C_19  and  C_22
REMARK                            x       y       z     vdW  Elec       q    Type
REMARK                         _______ _______ _______ _____ _____    ______ ____
ROOT
ATOM      2  N   UNL     1      -0.190   3.334  24.948  0.00  0.00    -0.298 NA
ATOM      5  C   UNL     1      -2.596   4.193  24.459  0.00  0.00    -0.003 C 
ATOM      6  C   UNL     1      -2.557   3.381  25.774  0.00  0.00    +0.020 C 
ATOM      7  C   UNL     1      -0.597   2.952  23.568  0.00  0.00    +0.074 C 
ATOM      8  C   UNL     1      -2.075   3.318  23.304  0.00  0.00    +0.024 C 
ATOM      9  C   UNL     1      -1.144   2.777  25.938  0.00  0.00    +0.089 C 
ATOM     10  C   UNL     1      -1.610   5.363  24.626  0.00  0.00    +0.019 C 
ATOM     11  C   UNL     1      -0.234   4.813  25.044  0.00  0.00    +0.085 C 
ENDROOT
BRANCH   6  12
ATOM     12  C   UNL     1      -3.640   2.309  25.853  0.00  0.00    +0.089 C 
BRANCH  12   3
ATOM      3  N   UNL     1      -3.165   1.043  25.293  0.00  0.00    -0.298 NA
ATOM     14  C   UNL     1      -2.260   0.366  26.229  0.00  0.00    +0.089 C 
ATOM     15  C   UNL     1      -4.304   0.169  24.964  0.00  0.00    +0.119 C 
ATOM     16  C   UNL     1      -1.614  -0.843  25.545  0.00  0.00    +0.051 C 
ATOM     17  C   UNL     1      -3.887  -1.211  24.509  0.00  0.00    -0.030 A 
ATOM     18  C   UNL     1      -2.613  -1.712  24.828  0.00  0.00    -0.042 A 
ATOM     20  C   UNL     1      -4.797  -2.025  23.821  0.00  0.00    +0.005 A 
ATOM     21  C   UNL     1      -2.255  -3.004  24.420  0.00  0.00    +0.004 A 
ATOM     23  C   UNL     1      -4.434  -3.313  23.428  0.00  0.00    +0.000 A 
ATOM     24  C   UNL     1      -3.164  -3.801  23.725  0.00  0.00    +0.000 A 
ENDBRANCH  12   3
ENDBRANCH   6  12
BRANCH   7  13
ATOM     13  C   UNL     1      -0.313   1.479  23.263  0.00  0.00    +0.123 C 
BRANCH  13   4
ATOM      1  O   UNL     1       1.276  -0.444  21.842  0.00  0.00    -0.270 OA
ATOM      4  N   UNL     1       1.087   1.166  23.498  0.00  0.00    -0.310 N 
ATOM     19  C   UNL     1       1.763   0.219  22.753  0.00  0.00    +0.244 C 
ATOM     30  H   UNL     1       1.532   1.631  24.282  0.00  0.00    +0.149 HD
BRANCH  19  22
ATOM     22  C   UNL     1       3.182  -0.003  23.133  0.00  0.00    +0.037 A 
ATOM     25  C   UNL     1       4.105   1.036  23.022  0.00  0.00    +0.013 A 
ATOM     26  C   UNL     1       3.590  -1.251  23.605  0.00  0.00    +0.013 A 
ATOM     27  C   UNL     1       5.437   0.826  23.381  0.00  0.00    +0.001 A 
ATOM     28  C   UNL     1       4.921  -1.460  23.963  0.00  0.00    +0.001 A 
ATOM     29  C   UNL     1       5.845  -0.421  23.852  0.00  0.00    +0.000 A 
ENDBRANCH  19  22
ENDBRANCH  13   4
ENDBRANCH   7  13
TORSDOF 5
ENDMDL
MODEL 4
REMARK VINA RESULT:      -1.4      1.169      4.725
REMARK  Name = 40779659
REMARK  5 active torsions:
REMARK  status: ('A' for Active; 'I' for Inactive)
REMARK    1  A    between atoms: N_3  and  C_12
REMARK    2  A    between atoms: N_4  and  C_13
REMARK    3  A    between atoms: C_6  and  C_12
REMARK    4  A    between atoms: C_7  and  C_13
REMARK    5  A    between atoms: C_19  and  C_22
REMARK                            x       y       z     vdW  Elec       q    Type
REMARK                         _______ _______ _______ _____ _____    ______ ____
ROOT
ATOM      2  N   UNL     1      -0.412   3.280  25.483  0.00  0.00    -0.298 NA
ATOM      5  C   UNL     1      -2.147   4.726  24.193  0.00  0.00    -0.003 C 
ATOM      6  C   UNL     1      -2.850   3.786  25.197  0.00  0.00    +0.020 C 
ATOM      7  C   UNL     1      -0.185   3.160  24.016  0.00  0.00    +0.074 C 
ATOM      8  C   UNL     1      -1.293   3.889  23.223  0.00  0.00    +0.024 C 
ATOM      9  C   UNL     1      -1.790   2.855  25.826  0.00  0.00    +0.089 C 
ATOM     10  C   UNL     1      -1.180   5.608  25.006  0.00  0.00    +0.019 C 
ATOM     11  C   UNL     1      -0.262   4.708  25.852  0.00  0.00    +0.085 C 
ENDROOT
BRANCH   6  12
ATOM     12  C   UNL     1      -4.000   2.995  24.579  0.00  0.00    +0.089 C 
BRANCH  12   3
ATOM      3  N   UNL     1      -3.891   1.573  24.906  0.00  0.00    -0.298 NA
ATOM     14  C   UNL     1      -5.134   0.866  24.577  0.00  0.00    +0.089 C 
ATOM     15  C   UNL     1      -2.756   0.968  24.188  0.00  0.00    +0.119 C 
ATOM     16  C   UNL     1      -5.076  -0.567  25.116  0.00  0.00    +0.051 C 
ATOM     17  C   UNL     1      -2.665  -0.530  24.369  0.00  0.00    -0.030 A 
ATOM     18  C   UNL     1      -3.790  -1.270  24.770  0.00  0.00    -0.042 A 
ATOM     20  C   UNL     1      -1.469  -1.198  24.073  0.00  0.00    +0.005 A 
ATOM     21  C   UNL     1      -3.693  -2.661  24.906  0.00  0.00    +0.004 A 
ATOM     23  C   UNL     1      -1.385  -2.585  24.202  0.00  0.00    +0.000 A 
ATOM     24  C   UNL     1      -2.495  -3.315  24.621  0.00  0.00    +0.000 A 
ENDBRANCH  12   3
ENDBRANCH   6  12
BRANCH   7  13
ATOM     13  C   UNL     1      -0.028   1.705  23.568  0.00  0.00    +0.123 C 
BRANCH  13   4
ATOM      1  O   UNL     1       1.330  -0.284  22.005  0.00  0.00    -0.270 OA
ATOM      4  N   UNL     1       1.348   1.263  23.730  0.00  0.00    -0.310 N 
ATOM     19  C   UNL     1       1.909   0.295  22.920  0.00  0.00    +0.244 C 
ATOM     30  H   UNL     1       1.862   1.653  24.513  0.00  0.00    +0.149 HD
BRANCH  19  22
ATOM     22  C   UNL     1       3.316  -0.065  23.231  0.00  0.00    +0.037 A 
ATOM     25  C   UNL     1       3.627  -1.350  23.674  0.00  0.00    +0.013 A 
ATOM     26  C   UNL     1       4.328   0.884  23.078  0.00  0.00    +0.013 A 
ATOM     27  C   UNL     1       4.950  -1.687  23.964  0.00  0.00    +0.001 A 
ATOM     28  C   UNL     1       5.650   0.547  23.368  0.00  0.00    +0.001 A 
ATOM     29  C   UNL     1       5.961  -0.739  23.811  0.00  0.00    +0.000 A 
ENDBRANCH  19  22
ENDBRANCH  13   4
ENDBRANCH   7  13
TORSDOF 5
ENDMDL
MODEL 5
REMARK VINA RESULT:      -0.8      1.232      4.953
REMARK  Name = 40779659
REMARK  5 active torsions:
REMARK  status: ('A' for Active; 'I' for Inactive)
REMARK    1  A    between atoms: N_3  and  C_12
REMARK    2  A    between atoms: N_4  and  C_13
REMARK    3  A    between atoms: C_6  and  C_12
REMARK    4  A    between atoms: C_7  and  C_13
REMARK    5  A    between atoms: C_19  and  C_22
REMARK                            x       y       z     vdW  Elec       q    Type
REMARK                         _______ _______ _______ _____ _____    ______ ____
ROOT
ATOM      2  N   UNL     1      -1.493   3.735  25.496  0.00  0.00    -0.298 NA
ATOM      5  C   UNL     1      -3.263   4.107  23.627  0.00  0.00    -0.003 C 
ATOM      6  C   UNL     1      -3.939   3.680  24.949  0.00  0.00    +0.020 C 
ATOM      7  C   UNL     1      -1.125   2.955  24.283  0.00  0.00    +0.074 C 
ATOM      8  C   UNL     1      -2.235   3.039  23.212  0.00  0.00    +0.024 C 
ATOM      9  C   UNL     1      -2.838   3.335  25.976  0.00  0.00    +0.089 C 
ATOM     10  C   UNL     1      -2.482   5.402  23.921  0.00  0.00    +0.019 C 
ATOM     11  C   UNL     1      -1.545   5.169  25.119  0.00  0.00    +0.085 C 
ENDROOT
BRANCH   6  12
ATOM     12  C   UNL     1      -4.929   2.531  24.777  0.00  0.00    +0.089 C 
BRANCH  12   3
ATOM      3  N   UNL     1      -4.263   1.239  24.942  0.00  0.00    -0.298 NA
ATOM     14  C   UNL     1      -4.424   0.742  26.314  0.00  0.00    +0.089 C 
ATOM     15  C   UNL     1      -4.800   0.260  23.980  0.00  0.00    +0.119 C 
ATOM     16  C   UNL     1      -3.550  -0.500  26.523  0.00  0.00    +0.051 C 
ATOM     17  C   UNL     1      -4.258  -1.137  24.184  0.00  0.00    -0.030 A 
ATOM     18  C   UNL     1      -3.700  -1.512  25.418  0.00  0.00    -0.042 A 
ATOM     20  C   UNL     1      -4.369  -2.086  23.159  0.00  0.00    +0.005 A 
ATOM     21  C   UNL     1      -3.228  -2.819  25.597  0.00  0.00    +0.004 A 
ATOM     23  C   UNL     1      -3.905  -3.387  23.350  0.00  0.00    +0.000 A 
ATOM     24  C   UNL     1      -3.332  -3.753  24.566  0.00  0.00    +0.000 A 
ENDBRANCH  12   3
ENDBRANCH   6  12
BRANCH   7  13
ATOM     13  C   UNL     1      -0.760   1.505  24.611  0.00  0.00    +0.123 C 
BRANCH  13   4
ATOM      1  O   UNL     1       0.375  -0.348  22.735  0.00  0.00    -0.270 OA
ATOM      4  N   UNL     1       0.655   1.265  24.375  0.00  0.00    -0.310 N 
ATOM     19  C   UNL     1       1.098   0.347  23.443  0.00  0.00    +0.244 C 
ATOM     30  H   UNL     1       1.307   1.759  24.975  0.00  0.00    +0.149 HD
BRANCH  19  22
ATOM     22  C   UNL     1       2.573   0.200  23.339  0.00  0.00    +0.037 A 
ATOM     25  C   UNL     1       3.179  -1.010  23.673  0.00  0.00    +0.013 A 
ATOM     26  C   UNL     1       3.352   1.273  22.905  0.00  0.00    +0.013 A 
ATOM     27  C   UNL     1       4.564  -1.148  23.574  0.00  0.00    +0.001 A 
ATOM     28  C   UNL     1       4.736   1.136  22.806  0.00  0.00    +0.001 A 
ATOM     29  C   UNL     1       5.342  -0.075  23.139  0.00  0.00    +0.000 A 
ENDBRANCH  19  22
ENDBRANCH  13   4
ENDBRANCH   7  13
TORSDOF 5
ENDMDL
MODEL 6
REMARK VINA RESULT:      -0.7      1.786      6.153
REMARK  Name = 40779659
REMARK  5 active torsions:
REMARK  status: ('A' for Active; 'I' for Inactive)
REMARK    1  A    between atoms: N_3  and  C_12
REMARK    2  A    between atoms: N_4  and  C_13
REMARK    3  A    between atoms: C_6  and  C_12
REMARK    4  A    between atoms: C_7  and  C_13
REMARK    5  A    between atoms: C_19  and  C_22
REMARK                            x       y       z     vdW  Elec       q    Type
REMARK                         _______ _______ _______ _____ _____    ______ ____
ROOT
ATOM      2  N   UNL     1      -2.935  -1.065  26.000  0.00  0.00    -0.298 NA
ATOM      5  C   UNL     1      -2.210  -1.815  23.617  0.00  0.00    -0.003 C 
ATOM      6  C   UNL     1      -1.202  -0.803  24.207  0.00  0.00    +0.020 C 
ATOM      7  C   UNL     1      -4.063  -0.888  25.044  0.00  0.00    +0.074 C 
ATOM      8  C   UNL     1      -3.614  -1.184  23.596  0.00  0.00    +0.024 C 
ATOM      9  C   UNL     1      -1.756  -0.285  25.553  0.00  0.00    +0.089 C 
ATOM     10  C   UNL     1      -2.262  -3.011  24.586  0.00  0.00    +0.019 C 
ATOM     11  C   UNL     1      -2.564  -2.501  26.007  0.00  0.00    +0.085 C 
ENDROOT
BRANCH   6  12
ATOM     12  C   UNL     1      -0.873   0.344  23.255  0.00  0.00    +0.089 C 
BRANCH  12   3
ATOM      3  N   UNL     1       0.567   0.417  23.004  0.00  0.00    -0.298 NA
ATOM     14  C   UNL     1       1.108   1.708  23.448  0.00  0.00    +0.089 C 
ATOM     15  C   UNL     1       1.263  -0.688  23.686  0.00  0.00    +0.119 C 
ATOM     16  C   UNL     1       2.563   1.847  22.989  0.00  0.00    +0.051 C 
ATOM     17  C   UNL     1       2.768  -0.598  23.586  0.00  0.00    -0.030 A 
ATOM     18  C   UNL     1       3.392   0.628  23.297  0.00  0.00    -0.042 A 
ATOM     20  C   UNL     1       3.554  -1.728  23.848  0.00  0.00    +0.005 A 
ATOM     21  C   UNL     1       4.790   0.697  23.235  0.00  0.00    +0.004 A 
ATOM     23  C   UNL     1       4.946  -1.647  23.794  0.00  0.00    +0.000 A 
ATOM     24  C   UNL     1       5.563  -0.437  23.485  0.00  0.00    +0.000 A 
ENDBRANCH  12   3
ENDBRANCH   6  12
BRANCH   7  13
ATOM     13  C   UNL     1      -4.719   0.490  25.165  0.00  0.00    +0.123 C 
BRANCH  13   4
ATOM      1  O   UNL     1      -5.040   3.239  25.927  0.00  0.00    -0.270 OA
ATOM      4  N   UNL     1      -3.724   1.545  25.052  0.00  0.00    -0.310 N 
ATOM     19  C   UNL     1      -3.980   2.842  25.451  0.00  0.00    +0.244 C 
ATOM     30  H   UNL     1      -2.848   1.298  24.603  0.00  0.00    +0.149 HD
BRANCH  19  22
ATOM     22  C   UNL     1      -2.870   3.807  25.245  0.00  0.00    +0.037 A 
ATOM     25  C   UNL     1      -3.133   5.176  25.199  0.00  0.00    +0.013 A 
ATOM     26  C   UNL     1      -1.562   3.344  25.099  0.00  0.00    +0.013 A 
ATOM     27  C   UNL     1      -2.089   6.082  25.008  0.00  0.00    +0.001 A 
ATOM     28  C   UNL     1      -0.518   4.249  24.907  0.00  0.00    +0.001 A 
ATOM     29  C   UNL     1      -0.782   5.618  24.863  0.00  0.00    +0.000 A 
ENDBRANCH  19  22
ENDBRANCH  13   4
ENDBRANCH   7  13
TORSDOF 5
ENDMDL
