MODEL 1
REMARK VINA RESULT:      -0.8      0.000      0.000
REMARK  Name = 75536037
REMARK  8 active torsions:
REMARK  status: ('A' for Active; 'I' for Inactive)
REMARK    1  A    between atoms: O_3  and  C_24
REMARK    2  A    between atoms: O_3  and  C_29
REMARK    3  A    between atoms: N_5  and  C_10
REMARK    4  A    between atoms: N_8  and  C_22
REMARK    5  A    between atoms: C_16  and  C_21
REMARK    6  A    between atoms: C_22  and  C_23
REMARK    7  A    between atoms: C_22  and  C_24
REMARK    8  A    between atoms: C_23  and  C_25
REMARK                            x       y       z     vdW  Elec       q    Type
REMARK                         _______ _______ _______ _____ _____    ______ ____
ROOT
ATOM      1  O   UNL     1       2.070   2.644  22.738  0.00  0.00    -0.253 OA
ATOM      5  N   UNL     1       2.047   0.428  23.334  0.00  0.00    -0.296 N 
ATOM      6  N   UNL     1       0.483   1.934  24.282  0.00  0.00    -0.272 N 
ATOM      7  N   UNL     1      -1.413   2.618  26.342  0.00  0.00    -0.312 NA
ATOM     16  C   UNL     1      -0.255   0.869  24.982  0.00  0.00    +0.177 C 
ATOM     17  C   UNL     1      -0.073   3.287  24.401  0.00  0.00    +0.125 C 
ATOM     18  C   UNL     1      -0.778   1.300  26.355  0.00  0.00    +0.113 C 
ATOM     19  C   UNL     1       1.570   1.732  23.405  0.00  0.00    +0.303 C 
ATOM     20  C   UNL     1      -0.486   3.622  25.827  0.00  0.00    +0.100 C 
ATOM     31  H   UNL     1       1.530  -0.331  23.755  0.00  0.00    +0.151 HD
ATOM     32  H   UNL     1      -1.690   2.868  27.290  0.00  0.00    +0.122 HD
ENDROOT
BRANCH   5  10
ATOM     10  C   UNL     1       3.152   0.059  22.476  0.00  0.00    +0.074 C 
ATOM     11  C   UNL     1       3.568  -1.397  22.708  0.00  0.00    +0.022 C 
ATOM     12  C   UNL     1       4.337   1.013  22.666  0.00  0.00    +0.022 C 
ATOM     13  C   UNL     1       4.275  -1.596  24.050  0.00  0.00    +0.002 C 
ATOM     14  C   UNL     1       5.043   0.810  24.005  0.00  0.00    +0.002 C 
ATOM     15  C   UNL     1       5.457  -0.644  24.210  0.00  0.00    +0.000 C 
ENDBRANCH   5  10
BRANCH  16  21
ATOM      2  O   UNL     1      -1.276   0.540  22.848  0.00  0.00    -0.274 OA
ATOM      8  N   UNL     1      -2.474  -0.010  24.767  0.00  0.00    -0.301 N 
ATOM     21  C   UNL     1      -1.369   0.450  24.070  0.00  0.00    +0.236 C 
ATOM     33  H   UNL     1      -2.449  -0.018  25.783  0.00  0.00    +0.150 HD
BRANCH   8  22
ATOM     22  C   UNL     1      -3.688  -0.454  24.123  0.00  0.00    +0.186 C 
BRANCH  22  24
ATOM      4  O   UNL     1      -4.681  -2.564  23.491  0.00  0.00    -0.249 OA
ATOM     24  C   UNL     1      -3.828  -1.969  24.143  0.00  0.00    +0.328 C 
BRANCH  24   3
ATOM      3  O   UNL     1      -2.920  -2.559  24.971  0.00  0.00    -0.467 OA
ATOM     29  C   UNL     1      -1.678  -2.933  24.365  0.00  0.00    +0.280 C 
ENDBRANCH  24   3
ENDBRANCH  22  24
BRANCH  22  23
ATOM     23  C   UNL     1      -4.929   0.245  24.699  0.00  0.00    +0.070 C 
BRANCH  23  25
ATOM      9  N   UNL     1      -5.388   3.772  26.013  0.00  0.00    -0.263 NA
ATOM     25  C   UNL     1      -4.805   1.747  24.829  0.00  0.00    -0.027 A 
ATOM     26  C   UNL     1      -4.034   2.482  23.936  0.00  0.00    +0.006 A 
ATOM     27  C   UNL     1      -5.456   2.434  25.842  0.00  0.00    +0.114 A 
ATOM     28  C   UNL     1      -3.941   3.862  24.079  0.00  0.00    +0.020 A 
ATOM     30  C   UNL     1      -4.630   4.454  25.125  0.00  0.00    +0.111 A 
ENDBRANCH  23  25
ENDBRANCH  22  23
ENDBRANCH   8  22
ENDBRANCH  16  21
TORSDOF 7
ENDMDL
MODEL 2
REMARK VINA RESULT:      -0.5      2.347      6.787
REMARK  Name = 75536037
REMARK  8 active torsions:
REMARK  status: ('A' for Active; 'I' for Inactive)
REMARK    1  A    between atoms: O_3  and  C_24
REMARK    2  A    between atoms: O_3  and  C_29
REMARK    3  A    between atoms: N_5  and  C_10
REMARK    4  A    between atoms: N_8  and  C_22
REMARK    5  A    between atoms: C_16  and  C_21
REMARK    6  A    between atoms: C_22  and  C_23
REMARK    7  A    between atoms: C_22  and  C_24
REMARK    8  A    between atoms: C_23  and  C_25
REMARK                            x       y       z     vdW  Elec       q    Type
REMARK                         _______ _______ _______ _____ _____    ______ ____
ROOT
ATOM      1  O   UNL     1      -4.723   1.215  23.238  0.00  0.00    -0.253 OA
ATOM      5  N   UNL     1      -4.169   1.810  25.384  0.00  0.00    -0.296 N 
ATOM      6  N   UNL     1      -3.749  -0.389  24.610  0.00  0.00    -0.272 N 
ATOM      7  N   UNL     1      -3.204  -3.172  25.127  0.00  0.00    -0.312 NA
ATOM     16  C   UNL     1      -3.032  -0.781  25.836  0.00  0.00    +0.177 C 
ATOM     17  C   UNL     1      -3.796  -1.397  23.544  0.00  0.00    +0.125 C 
ATOM     18  C   UNL     1      -3.288  -2.234  26.247  0.00  0.00    +0.113 C 
ATOM     19  C   UNL     1      -4.248   0.901  24.335  0.00  0.00    +0.303 C 
ATOM     20  C   UNL     1      -4.134  -2.784  24.070  0.00  0.00    +0.100 C 
ATOM     31  H   UNL     1      -3.636   1.591  26.213  0.00  0.00    +0.151 HD
ATOM     32  H   UNL     1      -3.436  -4.109  25.455  0.00  0.00    +0.122 HD
ENDROOT
BRANCH   5  10
ATOM     10  C   UNL     1      -4.634   3.174  25.257  0.00  0.00    +0.074 C 
ATOM     11  C   UNL     1      -4.040   3.845  24.014  0.00  0.00    +0.022 C 
ATOM     12  C   UNL     1      -4.328   3.980  26.523  0.00  0.00    +0.022 C 
ATOM     13  C   UNL     1      -2.550   4.151  24.171  0.00  0.00    +0.002 C 
ATOM     14  C   UNL     1      -2.839   4.287  26.676  0.00  0.00    +0.002 C 
ATOM     15  C   UNL     1      -2.272   4.964  25.432  0.00  0.00    +0.000 C 
ENDBRANCH   5  10
BRANCH  16  21
ATOM      2  O   UNL     1      -0.775  -1.440  25.418  0.00  0.00    -0.274 OA
ATOM      8  N   UNL     1      -1.274   0.828  25.580  0.00  0.00    -0.301 N 
ATOM     21  C   UNL     1      -1.576  -0.524  25.581  0.00  0.00    +0.236 C 
ATOM     33  H   UNL     1      -2.015   1.501  25.750  0.00  0.00    +0.150 HD
BRANCH   8  22
ATOM     22  C   UNL     1       0.062   1.339  25.379  0.00  0.00    +0.186 C 
BRANCH  22  24
ATOM      4  O   UNL     1      -0.367   1.467  23.005  0.00  0.00    -0.249 OA
ATOM     24  C   UNL     1       0.455   1.357  23.909  0.00  0.00    +0.328 C 
BRANCH  24   3
ATOM      3  O   UNL     1       1.799   1.219  23.735  0.00  0.00    -0.467 OA
ATOM     29  C   UNL     1       2.202   0.320  22.695  0.00  0.00    +0.280 C 
ENDBRANCH  24   3
ENDBRANCH  22  24
BRANCH  22  23
ATOM     23  C   UNL     1       0.253   2.712  26.042  0.00  0.00    +0.070 C 
BRANCH  23  25
ATOM      9  N   UNL     1       2.928   2.913  28.722  0.00  0.00    -0.263 NA
ATOM     25  C   UNL     1       0.919   2.671  27.399  0.00  0.00    -0.027 A 
ATOM     26  C   UNL     1       0.192   2.368  28.545  0.00  0.00    +0.006 A 
ATOM     27  C   UNL     1       2.273   2.934  27.540  0.00  0.00    +0.114 A 
ATOM     28  C   UNL     1       0.832   2.336  29.779  0.00  0.00    +0.020 A 
ATOM     30  C   UNL     1       2.189   2.614  29.814  0.00  0.00    +0.111 A 
ENDBRANCH  23  25
ENDBRANCH  22  23
ENDBRANCH   8  22
ENDBRANCH  16  21
TORSDOF 7
ENDMDL
MODEL 3
REMARK VINA RESULT:      -0.3      1.874      7.144
REMARK  Name = 75536037
REMARK  8 active torsions:
REMARK  status: ('A' for Active; 'I' for Inactive)
REMARK    1  A    between atoms: O_3  and  C_24
REMARK    2  A    between atoms: O_3  and  C_29
REMARK    3  A    between atoms: N_5  and  C_10
REMARK    4  A    between atoms: N_8  and  C_22
REMARK    5  A    between atoms: C_16  and  C_21
REMARK    6  A    between atoms: C_22  and  C_23
REMARK    7  A    between atoms: C_22  and  C_24
REMARK    8  A    between atoms: C_23  and  C_25
REMARK                            x       y       z     vdW  Elec       q    Type
REMARK                         _______ _______ _______ _____ _____    ______ ____
ROOT
ATOM      1  O   UNL     1      -4.784   1.543  23.350  0.00  0.00    -0.253 OA
ATOM      5  N   UNL     1      -3.928   1.954  25.439  0.00  0.00    -0.296 N 
ATOM      6  N   UNL     1      -3.791  -0.217  24.500  0.00  0.00    -0.272 N 
ATOM      7  N   UNL     1      -3.424  -3.061  24.793  0.00  0.00    -0.312 NA
ATOM     16  C   UNL     1      -2.968  -0.740  25.603  0.00  0.00    +0.177 C 
ATOM     17  C   UNL     1      -4.050  -1.147  23.395  0.00  0.00    +0.125 C 
ATOM     18  C   UNL     1      -3.294  -2.193  25.964  0.00  0.00    +0.113 C 
ATOM     19  C   UNL     1      -4.210   1.123  24.360  0.00  0.00    +0.303 C 
ATOM     20  C   UNL     1      -4.438  -2.535  23.883  0.00  0.00    +0.100 C 
ATOM     31  H   UNL     1      -3.320   1.641  26.182  0.00  0.00    +0.151 HD
ATOM     32  H   UNL     1      -3.693  -3.996  25.095  0.00  0.00    +0.122 HD
ENDROOT
BRANCH   5  10
ATOM     10  C   UNL     1      -4.289   3.355  25.445  0.00  0.00    +0.074 C 
ATOM     11  C   UNL     1      -3.887   4.033  24.131  0.00  0.00    +0.022 C 
ATOM     12  C   UNL     1      -3.677   4.075  26.651  0.00  0.00    +0.022 C 
ATOM     13  C   UNL     1      -2.374   4.212  24.004  0.00  0.00    +0.002 C 
ATOM     14  C   UNL     1      -2.166   4.255  26.521  0.00  0.00    +0.002 C 
ATOM     15  C   UNL     1      -1.791   4.941  25.211  0.00  0.00    +0.000 C 
ENDBRANCH   5  10
BRANCH  16  21
ATOM      2  O   UNL     1      -0.625  -1.182  25.744  0.00  0.00    -0.274 OA
ATOM      8  N   UNL     1      -1.393   0.317  24.138  0.00  0.00    -0.301 N 
ATOM     21  C   UNL     1      -1.536  -0.580  25.183  0.00  0.00    +0.236 C 
ATOM     33  H   UNL     1      -2.218   0.778  23.764  0.00  0.00    +0.150 HD
BRANCH   8  22
ATOM     22  C   UNL     1      -0.114   0.664  23.563  0.00  0.00    +0.186 C 
BRANCH  22  24
ATOM      4  O   UNL     1       0.783   2.901  23.739  0.00  0.00    -0.249 OA
ATOM     24  C   UNL     1       0.545   1.829  24.288  0.00  0.00    +0.328 C 
BRANCH  24   3
ATOM      3  O   UNL     1       0.843   1.526  25.582  0.00  0.00    -0.467 OA
ATOM     29  C   UNL     1       0.196   2.332  26.573  0.00  0.00    +0.280 C 
ENDBRANCH  24   3
ENDBRANCH  22  24
BRANCH  22  23
ATOM     23  C   UNL     1       0.818  -0.554  23.466  0.00  0.00    +0.070 C 
BRANCH  23  25
ATOM      9  N   UNL     1       4.595  -0.803  23.665  0.00  0.00    -0.263 NA
ATOM     25  C   UNL     1       2.280  -0.217  23.287  0.00  0.00    -0.027 A 
ATOM     26  C   UNL     1       2.674   0.935  22.615  0.00  0.00    +0.006 A 
ATOM     27  C   UNL     1       3.272  -1.046  23.789  0.00  0.00    +0.114 A 
ATOM     28  C   UNL     1       4.027   1.218  22.467  0.00  0.00    +0.020 A 
ATOM     30  C   UNL     1       4.940   0.326  23.005  0.00  0.00    +0.111 A 
ENDBRANCH  23  25
ENDBRANCH  22  23
ENDBRANCH   8  22
ENDBRANCH  16  21
TORSDOF 7
ENDMDL
MODEL 4
REMARK VINA RESULT:      -0.2      2.034      6.787
REMARK  Name = 75536037
REMARK  8 active torsions:
REMARK  status: ('A' for Active; 'I' for Inactive)
REMARK    1  A    between atoms: O_3  and  C_24
REMARK    2  A    between atoms: O_3  and  C_29
REMARK    3  A    between atoms: N_5  and  C_10
REMARK    4  A    between atoms: N_8  and  C_22
REMARK    5  A    between atoms: C_16  and  C_21
REMARK    6  A    between atoms: C_22  and  C_23
REMARK    7  A    between atoms: C_22  and  C_24
REMARK    8  A    between atoms: C_23  and  C_25
REMARK                            x       y       z     vdW  Elec       q    Type
REMARK                         _______ _______ _______ _____ _____    ______ ____
ROOT
ATOM      1  O   UNL     1      -3.995   2.722  26.349  0.00  0.00    -0.253 OA
ATOM      5  N   UNL     1      -3.754   1.574  24.378  0.00  0.00    -0.296 N 
ATOM      6  N   UNL     1      -2.244   3.311  24.937  0.00  0.00    -0.272 N 
ATOM      7  N   UNL     1      -0.253   5.251  24.174  0.00  0.00    -0.312 NA
ATOM     16  C   UNL     1      -1.374   3.052  23.778  0.00  0.00    +0.177 C 
ATOM     17  C   UNL     1      -1.786   4.353  25.864  0.00  0.00    +0.125 C 
ATOM     18  C   UNL     1      -0.781   4.326  23.170  0.00  0.00    +0.113 C 
ATOM     19  C   UNL     1      -3.375   2.549  25.294  0.00  0.00    +0.303 C 
ATOM     20  C   UNL     1      -1.292   5.598  25.139  0.00  0.00    +0.100 C 
ATOM     31  H   UNL     1      -3.149   1.335  23.605  0.00  0.00    +0.151 HD
ATOM     32  H   UNL     1       0.076   6.098  23.712  0.00  0.00    +0.122 HD
ENDROOT
BRANCH   5  10
ATOM     10  C   UNL     1      -4.890   0.707  24.602  0.00  0.00    +0.074 C 
ATOM     11  C   UNL     1      -4.827   0.066  25.992  0.00  0.00    +0.022 C 
ATOM     12  C   UNL     1      -4.995  -0.357  23.505  0.00  0.00    +0.022 C 
ATOM     13  C   UNL     1      -3.734  -0.998  26.098  0.00  0.00    +0.002 C 
ATOM     14  C   UNL     1      -3.903  -1.421  23.613  0.00  0.00    +0.002 C 
ATOM     15  C   UNL     1      -3.867  -2.052  25.002  0.00  0.00    +0.000 C 
ENDBRANCH   5  10
BRANCH  16  21
ATOM      2  O   UNL     1       0.549   2.454  25.061  0.00  0.00    -0.274 OA
ATOM      8  N   UNL     1      -0.395   0.868  23.643  0.00  0.00    -0.301 N 
ATOM     21  C   UNL     1      -0.304   2.111  24.247  0.00  0.00    +0.236 C 
ATOM     33  H   UNL     1      -1.131   0.702  22.962  0.00  0.00    +0.150 HD
BRANCH   8  22
ATOM     22  C   UNL     1       0.530  -0.210  23.906  0.00  0.00    +0.186 C 
BRANCH  22  24
ATOM      4  O   UNL     1      -0.740  -2.228  23.513  0.00  0.00    -0.249 OA
ATOM     24  C   UNL     1      -0.183  -1.490  24.320  0.00  0.00    +0.328 C 
BRANCH  24   3
ATOM      3  O   UNL     1      -0.138  -1.690  25.667  0.00  0.00    -0.467 OA
ATOM     29  C   UNL     1      -0.826  -0.720  26.463  0.00  0.00    +0.280 C 
ENDBRANCH  24   3
ENDBRANCH  22  24
BRANCH  22  23
ATOM     23  C   UNL     1       1.488  -0.441  22.728  0.00  0.00    +0.070 C 
BRANCH  23  25
ATOM      9  N   UNL     1       4.954  -1.317  23.990  0.00  0.00    -0.263 NA
ATOM     25  C   UNL     1       2.955  -0.315  23.072  0.00  0.00    -0.027 A 
ATOM     26  C   UNL     1       3.654   0.859  22.813  0.00  0.00    +0.006 A 
ATOM     27  C   UNL     1       3.645  -1.365  23.657  0.00  0.00    +0.114 A 
ATOM     28  C   UNL     1       5.001   0.946  23.142  0.00  0.00    +0.020 A 
ATOM     30  C   UNL     1       5.601  -0.160  23.723  0.00  0.00    +0.111 A 
ENDBRANCH  23  25
ENDBRANCH  22  23
ENDBRANCH   8  22
ENDBRANCH  16  21
TORSDOF 7
ENDMDL
MODEL 5
REMARK VINA RESULT:       1.0      2.002      6.823
REMARK  Name = 75536037
REMARK  8 active torsions:
REMARK  status: ('A' for Active; 'I' for Inactive)
REMARK    1  A    between atoms: O_3  and  C_24
REMARK    2  A    between atoms: O_3  and  C_29
REMARK    3  A    between atoms: N_5  and  C_10
REMARK    4  A    between atoms: N_8  and  C_22
REMARK    5  A    between atoms: C_16  and  C_21
REMARK    6  A    between atoms: C_22  and  C_23
REMARK    7  A    between atoms: C_22  and  C_24
REMARK    8  A    between atoms: C_23  and  C_25
REMARK                            x       y       z     vdW  Elec       q    Type
REMARK                         _______ _______ _______ _____ _____    ______ ____
ROOT
ATOM      1  O   UNL     1      -5.211   0.784  26.192  0.00  0.00    -0.253 OA
ATOM      5  N   UNL     1      -4.287  -0.036  24.258  0.00  0.00    -0.296 N 
ATOM      6  N   UNL     1      -4.364   2.300  24.646  0.00  0.00    -0.272 N 
ATOM      7  N   UNL     1      -4.255   5.012  23.675  0.00  0.00    -0.312 NA
ATOM     16  C   UNL     1      -3.574   2.617  23.444  0.00  0.00    +0.177 C 
ATOM     17  C   UNL     1      -4.727   3.440  25.496  0.00  0.00    +0.125 C 
ATOM     18  C   UNL     1      -4.026   3.904  22.747  0.00  0.00    +0.113 C 
ATOM     19  C   UNL     1      -4.661   1.000  25.107  0.00  0.00    +0.303 C 
ATOM     20  C   UNL     1      -5.232   4.628  24.690  0.00  0.00    +0.100 C 
ATOM     31  H   UNL     1      -3.697   0.144  23.459  0.00  0.00    +0.151 HD
ATOM     32  H   UNL     1      -4.604   5.818  23.157  0.00  0.00    +0.122 HD
ENDROOT
BRANCH   5  10
ATOM     10  C   UNL     1      -4.517  -1.424  24.592  0.00  0.00    +0.074 C 
ATOM     11  C   UNL     1      -3.909  -1.772  25.955  0.00  0.00    +0.022 C 
ATOM     12  C   UNL     1      -3.983  -2.350  23.494  0.00  0.00    +0.022 C 
ATOM     13  C   UNL     1      -2.381  -1.821  25.919  0.00  0.00    +0.002 C 
ATOM     14  C   UNL     1      -2.457  -2.400  23.461  0.00  0.00    +0.002 C 
ATOM     15  C   UNL     1      -1.875  -2.758  24.826  0.00  0.00    +0.000 C 
ENDBRANCH   5  10
BRANCH  16  21
ATOM      2  O   UNL     1      -1.685   3.698  24.427  0.00  0.00    -0.274 OA
ATOM      8  N   UNL     1      -1.435   1.545  23.578  0.00  0.00    -0.301 N 
ATOM     21  C   UNL     1      -2.142   2.697  23.882  0.00  0.00    +0.236 C 
ATOM     33  H   UNL     1      -1.910   0.784  23.103  0.00  0.00    +0.150 HD
BRANCH   8  22
ATOM     22  C   UNL     1      -0.031   1.377  23.875  0.00  0.00    +0.186 C 
BRANCH  22  24
ATOM      4  O   UNL     1      -0.167   0.329  26.049  0.00  0.00    -0.249 OA
ATOM     24  C   UNL     1       0.231   1.273  25.371  0.00  0.00    +0.328 C 
BRANCH  24   3
ATOM      3  O   UNL     1       0.927   2.343  25.847  0.00  0.00    -0.467 OA
ATOM     29  C   UNL     1       0.651   2.711  27.202  0.00  0.00    +0.280 C 
ENDBRANCH  24   3
ENDBRANCH  22  24
BRANCH  22  23
ATOM     23  C   UNL     1       0.578   0.197  23.102  0.00  0.00    +0.070 C 
BRANCH  23  25
ATOM      9  N   UNL     1       4.087  -1.168  23.545  0.00  0.00    -0.263 NA
ATOM     25  C   UNL     1       2.088   0.130  23.140  0.00  0.00    -0.027 A 
ATOM     26  C   UNL     1       2.864   1.240  22.826  0.00  0.00    +0.006 A 
ATOM     27  C   UNL     1       2.744  -1.041  23.490  0.00  0.00    +0.114 A 
ATOM     28  C   UNL     1       4.250   1.148  22.872  0.00  0.00    +0.020 A 
ATOM     30  C   UNL     1       4.809  -0.067  23.234  0.00  0.00    +0.111 A 
ENDBRANCH  23  25
ENDBRANCH  22  23
ENDBRANCH   8  22
ENDBRANCH  16  21
TORSDOF 7
ENDMDL
MODEL 6
REMARK VINA RESULT:       1.6      2.408      6.376
REMARK  Name = 75536037
REMARK  8 active torsions:
REMARK  status: ('A' for Active; 'I' for Inactive)
REMARK    1  A    between atoms: O_3  and  C_24
REMARK    2  A    between atoms: O_3  and  C_29
REMARK    3  A    between atoms: N_5  and  C_10
REMARK    4  A    between atoms: N_8  and  C_22
REMARK    5  A    between atoms: C_16  and  C_21
REMARK    6  A    between atoms: C_22  and  C_23
REMARK    7  A    between atoms: C_22  and  C_24
REMARK    8  A    between atoms: C_23  and  C_25
REMARK                            x       y       z     vdW  Elec       q    Type
REMARK                         _______ _______ _______ _____ _____    ______ ____
ROOT
ATOM      1  O   UNL     1      -5.342   0.718  26.408  0.00  0.00    -0.253 OA
ATOM      5  N   UNL     1      -4.118   0.062  24.581  0.00  0.00    -0.296 N 
ATOM      6  N   UNL     1      -4.474   2.364  25.013  0.00  0.00    -0.272 N 
ATOM      7  N   UNL     1      -4.522   5.107  24.129  0.00  0.00    -0.312 NA
ATOM     16  C   UNL     1      -3.583   2.799  23.924  0.00  0.00    +0.177 C 
ATOM     17  C   UNL     1      -5.046   3.432  25.841  0.00  0.00    +0.125 C 
ATOM     18  C   UNL     1      -4.075   4.060  23.209  0.00  0.00    +0.113 C 
ATOM     19  C   UNL     1      -4.691   1.026  25.403  0.00  0.00    +0.303 C 
ATOM     20  C   UNL     1      -5.569   4.594  25.008  0.00  0.00    +0.100 C 
ATOM     31  H   UNL     1      -3.459   0.326  23.863  0.00  0.00    +0.151 HD
ATOM     32  H   UNL     1      -4.886   5.894  23.593  0.00  0.00    +0.122 HD
ENDROOT
BRANCH   5  10
ATOM     10  C   UNL     1      -4.246  -1.354  24.851  0.00  0.00    +0.074 C 
ATOM     11  C   UNL     1      -3.563  -1.728  26.170  0.00  0.00    +0.022 C 
ATOM     12  C   UNL     1      -3.700  -2.187  23.686  0.00  0.00    +0.022 C 
ATOM     13  C   UNL     1      -2.037  -1.675  26.073  0.00  0.00    +0.002 C 
ATOM     14  C   UNL     1      -2.176  -2.135  23.593  0.00  0.00    +0.002 C 
ATOM     15  C   UNL     1      -1.518  -2.522  24.915  0.00  0.00    +0.000 C 
ENDBRANCH   5  10
BRANCH  16  21
ATOM      2  O   UNL     1      -1.773   4.121  24.748  0.00  0.00    -0.274 OA
ATOM      8  N   UNL     1      -1.582   1.801  24.788  0.00  0.00    -0.301 N 
ATOM     21  C   UNL     1      -2.227   3.000  24.534  0.00  0.00    +0.236 C 
ATOM     33  H   UNL     1      -2.045   0.929  24.547  0.00  0.00    +0.150 HD
BRANCH   8  22
ATOM     22  C   UNL     1      -0.255   1.720  25.353  0.00  0.00    +0.186 C 
BRANCH  22  24
ATOM      4  O   UNL     1       1.679   2.070  23.948  0.00  0.00    -0.249 OA
ATOM     24  C   UNL     1       0.786   1.315  24.320  0.00  0.00    +0.328 C 
BRANCH  24   3
ATOM      3  O   UNL     1       0.588   0.048  23.861  0.00  0.00    -0.467 OA
ATOM     29  C   UNL     1       1.122  -0.234  22.563  0.00  0.00    +0.280 C 
ENDBRANCH  24   3
ENDBRANCH  22  24
BRANCH  22  23
ATOM     23  C   UNL     1       0.134   3.015  26.084  0.00  0.00    +0.070 C 
BRANCH  23  25
ATOM      9  N   UNL     1       2.904   2.876  28.668  0.00  0.00    -0.263 NA
ATOM     25  C   UNL     1       0.847   2.807  27.400  0.00  0.00    -0.027 A 
ATOM     26  C   UNL     1       0.158   2.372  28.528  0.00  0.00    +0.006 A 
ATOM     27  C   UNL     1       2.207   3.043  27.522  0.00  0.00    +0.114 A 
ATOM     28  C   UNL     1       0.842   2.189  29.724  0.00  0.00    +0.020 A 
ATOM     30  C   UNL     1       2.202   2.453  29.743  0.00  0.00    +0.111 A 
ENDBRANCH  23  25
ENDBRANCH  22  23
ENDBRANCH   8  22
ENDBRANCH  16  21
TORSDOF 7
ENDMDL
MODEL 7
REMARK VINA RESULT:       1.9      1.835      6.565
REMARK  Name = 75536037
REMARK  8 active torsions:
REMARK  status: ('A' for Active; 'I' for Inactive)
REMARK    1  A    between atoms: O_3  and  C_24
REMARK    2  A    between atoms: O_3  and  C_29
REMARK    3  A    between atoms: N_5  and  C_10
REMARK    4  A    between atoms: N_8  and  C_22
REMARK    5  A    between atoms: C_16  and  C_21
REMARK    6  A    between atoms: C_22  and  C_23
REMARK    7  A    between atoms: C_22  and  C_24
REMARK    8  A    between atoms: C_23  and  C_25
REMARK                            x       y       z     vdW  Elec       q    Type
REMARK                         _______ _______ _______ _____ _____    ______ ____
ROOT
ATOM      1  O   UNL     1      -4.188  -0.933  23.504  0.00  0.00    -0.253 OA
ATOM      5  N   UNL     1      -4.320   0.219  25.484  0.00  0.00    -0.296 N 
ATOM      6  N   UNL     1      -2.387  -1.051  24.970  0.00  0.00    -0.272 N 
ATOM      7  N   UNL     1       0.022  -2.403  25.793  0.00  0.00    -0.312 NA
ATOM     16  C   UNL     1      -1.653  -0.582  26.157  0.00  0.00    +0.177 C 
ATOM     17  C   UNL     1      -1.642  -1.926  24.057  0.00  0.00    +0.125 C 
ATOM     18  C   UNL     1      -0.762  -1.661  26.781  0.00  0.00    +0.113 C 
ATOM     19  C   UNL     1      -3.669  -0.612  24.578  0.00  0.00    +0.303 C 
ATOM     20  C   UNL     1      -0.859  -3.003  24.795  0.00  0.00    +0.100 C 
ATOM     31  H   UNL     1      -3.824   0.602  26.276  0.00  0.00    +0.151 HD
ATOM     32  H   UNL     1       0.549  -3.137  26.265  0.00  0.00    +0.122 HD
ENDROOT
BRANCH   5  10
ATOM     10  C   UNL     1      -5.637   0.757  25.225  0.00  0.00    +0.074 C 
ATOM     11  C   UNL     1      -5.629   1.664  23.990  0.00  0.00    +0.022 C 
ATOM     12  C   UNL     1      -6.182   1.495  26.452  0.00  0.00    +0.022 C 
ATOM     13  C   UNL     1      -4.913   2.991  24.244  0.00  0.00    +0.002 C 
ATOM     14  C   UNL     1      -5.466   2.821  26.703  0.00  0.00    +0.002 C 
ATOM     15  C   UNL     1      -5.480   3.712  25.464  0.00  0.00    +0.000 C 
ENDBRANCH   5  10
BRANCH  16  21
ATOM      2  O   UNL     1      -0.861   1.661  26.362  0.00  0.00    -0.274 OA
ATOM      8  N   UNL     1      -0.166   0.384  24.545  0.00  0.00    -0.301 N 
ATOM     21  C   UNL     1      -0.856   0.613  25.723  0.00  0.00    +0.236 C 
ATOM     33  H   UNL     1      -0.254  -0.519  24.086  0.00  0.00    +0.150 HD
BRANCH   8  22
ATOM     22  C   UNL     1       0.659   1.382  23.904  0.00  0.00    +0.186 C 
BRANCH  22  24
ATOM      4  O   UNL     1       1.602  -0.247  22.388  0.00  0.00    -0.249 OA
ATOM     24  C   UNL     1       1.770   0.760  23.071  0.00  0.00    +0.328 C 
BRANCH  24   3
ATOM      3  O   UNL     1       2.946   1.436  23.195  0.00  0.00    -0.467 OA
ATOM     29  C   UNL     1       4.124   0.708  22.830  0.00  0.00    +0.280 C 
ENDBRANCH  24   3
ENDBRANCH  22  24
BRANCH  22  23
ATOM     23  C   UNL     1      -0.180   2.379  23.090  0.00  0.00    +0.070 C 
BRANCH  23  25
ATOM      9  N   UNL     1      -2.493   4.389  25.322  0.00  0.00    -0.263 NA
ATOM     25  C   UNL     1      -0.745   3.531  23.890  0.00  0.00    -0.027 A 
ATOM     26  C   UNL     1      -0.088   4.755  23.947  0.00  0.00    +0.006 A 
ATOM     27  C   UNL     1      -1.935   3.401  24.590  0.00  0.00    +0.114 A 
ATOM     28  C   UNL     1      -0.632   5.796  24.690  0.00  0.00    +0.020 A 
ATOM     30  C   UNL     1      -1.826   5.565  25.354  0.00  0.00    +0.111 A 
ENDBRANCH  23  25
ENDBRANCH  22  23
ENDBRANCH   8  22
ENDBRANCH  16  21
TORSDOF 7
ENDMDL
MODEL 8
REMARK VINA RESULT:       2.2      1.953      5.632
REMARK  Name = 75536037
REMARK  8 active torsions:
REMARK  status: ('A' for Active; 'I' for Inactive)
REMARK    1  A    between atoms: O_3  and  C_24
REMARK    2  A    between atoms: O_3  and  C_29
REMARK    3  A    between atoms: N_5  and  C_10
REMARK    4  A    between atoms: N_8  and  C_22
REMARK    5  A    between atoms: C_16  and  C_21
REMARK    6  A    between atoms: C_22  and  C_23
REMARK    7  A    between atoms: C_22  and  C_24
REMARK    8  A    between atoms: C_23  and  C_25
REMARK                            x       y       z     vdW  Elec       q    Type
REMARK                         _______ _______ _______ _____ _____    ______ ____
ROOT
ATOM      1  O   UNL     1      -0.930  -2.180  23.114  0.00  0.00    -0.253 OA
ATOM      5  N   UNL     1      -1.209  -1.298  25.214  0.00  0.00    -0.296 N 
ATOM      6  N   UNL     1       0.267  -0.267  23.674  0.00  0.00    -0.272 N 
ATOM      7  N   UNL     1       2.471   1.502  23.107  0.00  0.00    -0.312 NA
ATOM     16  C   UNL     1       0.531   0.881  24.557  0.00  0.00    +0.177 C 
ATOM     17  C   UNL     1       0.897  -0.217  22.349  0.00  0.00    +0.125 C 
ATOM     18  C   UNL     1       1.976   1.384  24.479  0.00  0.00    +0.113 C 
ATOM     19  C   UNL     1      -0.643  -1.310  23.944  0.00  0.00    +0.303 C 
ATOM     20  C   UNL     1       2.352   0.223  22.414  0.00  0.00    +0.100 C 
ATOM     31  H   UNL     1      -1.092  -0.498  25.819  0.00  0.00    +0.151 HD
ATOM     32  H   UNL     1       3.450   1.787  23.126  0.00  0.00    +0.122 HD
ENDROOT
BRANCH   5  10
ATOM     10  C   UNL     1      -2.164  -2.297  25.640  0.00  0.00    +0.074 C 
ATOM     11  C   UNL     1      -2.768  -3.030  24.438  0.00  0.00    +0.022 C 
ATOM     12  C   UNL     1      -3.256  -1.675  26.517  0.00  0.00    +0.022 C 
ATOM     13  C   UNL     1      -3.733  -2.151  23.641  0.00  0.00    +0.002 C 
ATOM     14  C   UNL     1      -4.220  -0.800  25.719  0.00  0.00    +0.002 C 
ATOM     15  C   UNL     1      -4.817  -1.553  24.534  0.00  0.00    +0.000 C 
ENDBRANCH   5  10
BRANCH  16  21
ATOM      2  O   UNL     1      -0.780   2.139  23.006  0.00  0.00    -0.274 OA
ATOM      8  N   UNL     1      -0.889   2.676  25.269  0.00  0.00    -0.301 N 
ATOM     21  C   UNL     1      -0.449   1.950  24.174  0.00  0.00    +0.236 C 
ATOM     33  H   UNL     1      -0.529   2.448  26.191  0.00  0.00    +0.150 HD
BRANCH   8  22
ATOM     22  C   UNL     1      -1.821   3.775  25.167  0.00  0.00    +0.186 C 
BRANCH  22  24
ATOM      4  O   UNL     1      -1.642   6.184  25.087  0.00  0.00    -0.249 OA
ATOM     24  C   UNL     1      -1.122   5.094  24.866  0.00  0.00    +0.328 C 
BRANCH  24   3
ATOM      3  O   UNL     1       0.111   4.909  24.319  0.00  0.00    -0.467 OA
ATOM     29  C   UNL     1       0.235   5.253  22.935  0.00  0.00    +0.280 C 
ENDBRANCH  24   3
ENDBRANCH  22  24
BRANCH  22  23
ATOM     23  C   UNL     1      -2.946   3.479  24.164  0.00  0.00    +0.070 C 
BRANCH  23  25
ATOM      9  N   UNL     1      -5.749   2.981  26.668  0.00  0.00    -0.263 NA
ATOM     25  C   UNL     1      -4.232   2.984  24.785  0.00  0.00    -0.027 A 
ATOM     26  C   UNL     1      -5.069   2.109  24.101  0.00  0.00    +0.006 A 
ATOM     27  C   UNL     1      -4.615   3.387  26.055  0.00  0.00    +0.114 A 
ATOM     28  C   UNL     1      -6.244   1.669  24.699  0.00  0.00    +0.020 A 
ATOM     30  C   UNL     1      -6.537   2.131  25.972  0.00  0.00    +0.111 A 
ENDBRANCH  23  25
ENDBRANCH  22  23
ENDBRANCH   8  22
ENDBRANCH  16  21
TORSDOF 7
ENDMDL
MODEL 9
REMARK VINA RESULT:       2.4      2.224      6.653
REMARK  Name = 75536037
REMARK  8 active torsions:
REMARK  status: ('A' for Active; 'I' for Inactive)
REMARK    1  A    between atoms: O_3  and  C_24
REMARK    2  A    between atoms: O_3  and  C_29
REMARK    3  A    between atoms: N_5  and  C_10
REMARK    4  A    between atoms: N_8  and  C_22
REMARK    5  A    between atoms: C_16  and  C_21
REMARK    6  A    between atoms: C_22  and  C_23
REMARK    7  A    between atoms: C_22  and  C_24
REMARK    8  A    between atoms: C_23  and  C_25
REMARK                            x       y       z     vdW  Elec       q    Type
REMARK                         _______ _______ _______ _____ _____    ______ ____
ROOT
ATOM      1  O   UNL     1      -5.855   0.952  26.556  0.00  0.00    -0.253 OA
ATOM      5  N   UNL     1      -4.286   0.376  24.984  0.00  0.00    -0.296 N 
ATOM      6  N   UNL     1      -4.885   2.647  25.294  0.00  0.00    -0.272 N 
ATOM      7  N   UNL     1      -4.987   5.369  24.351  0.00  0.00    -0.312 NA
ATOM     16  C   UNL     1      -3.855   3.140  24.365  0.00  0.00    +0.177 C 
ATOM     17  C   UNL     1      -5.672   3.675  25.985  0.00  0.00    +0.125 C 
ATOM     18  C   UNL     1      -4.309   4.352  23.546  0.00  0.00    +0.113 C 
ATOM     19  C   UNL     1      -5.065   1.300  25.672  0.00  0.00    +0.303 C 
ATOM     20  C   UNL     1      -6.129   4.784  25.048  0.00  0.00    +0.100 C 
ATOM     31  H   UNL     1      -3.534   0.685  24.384  0.00  0.00    +0.151 HD
ATOM     32  H   UNL     1      -5.311   6.119  23.742  0.00  0.00    +0.122 HD
ENDROOT
BRANCH   5  10
ATOM     10  C   UNL     1      -4.352  -1.043  25.260  0.00  0.00    +0.074 C 
ATOM     11  C   UNL     1      -3.349  -1.439  26.348  0.00  0.00    +0.022 C 
ATOM     12  C   UNL     1      -4.138  -1.862  23.983  0.00  0.00    +0.022 C 
ATOM     13  C   UNL     1      -1.902  -1.393  25.856  0.00  0.00    +0.002 C 
ATOM     14  C   UNL     1      -2.691  -1.817  23.494  0.00  0.00    +0.002 C 
ATOM     15  C   UNL     1      -1.712  -2.226  24.591  0.00  0.00    +0.000 C 
ENDBRANCH   5  10
BRANCH  16  21
ATOM      2  O   UNL     1      -2.728   4.066  26.256  0.00  0.00    -0.274 OA
ATOM      8  N   UNL     1      -1.475   2.996  24.611  0.00  0.00    -0.301 N 
ATOM     21  C   UNL     1      -2.645   3.453  25.195  0.00  0.00    +0.236 C 
ATOM     33  H   UNL     1      -1.522   2.520  23.715  0.00  0.00    +0.150 HD
BRANCH   8  22
ATOM     22  C   UNL     1      -0.170   3.190  25.199  0.00  0.00    +0.186 C 
BRANCH  22  24
ATOM      4  O   UNL     1      -0.566   1.197  26.507  0.00  0.00    -0.249 OA
ATOM     24  C   UNL     1       0.099   2.216  26.337  0.00  0.00    +0.328 C 
BRANCH  24   3
ATOM      3  O   UNL     1       1.130   2.621  27.128  0.00  0.00    -0.467 OA
ATOM     29  C   UNL     1       0.962   2.396  28.532  0.00  0.00    +0.280 C 
ENDBRANCH  24   3
ENDBRANCH  22  24
BRANCH  22  23
ATOM     23  C   UNL     1       0.943   3.158  24.140  0.00  0.00    +0.070 C 
BRANCH  23  25
ATOM      9  N   UNL     1       0.407  -0.383  22.897  0.00  0.00    -0.263 NA
ATOM     25  C   UNL     1       1.230   1.789  23.566  0.00  0.00    -0.027 A 
ATOM     26  C   UNL     1       2.518   1.425  23.189  0.00  0.00    +0.006 A 
ATOM     27  C   UNL     1       0.218   0.856  23.401  0.00  0.00    +0.114 A 
ATOM     28  C   UNL     1       2.751   0.159  22.666  0.00  0.00    +0.020 A 
ATOM     30  C   UNL     1       1.672  -0.701  22.540  0.00  0.00    +0.111 A 
ENDBRANCH  23  25
ENDBRANCH  22  23
ENDBRANCH   8  22
ENDBRANCH  16  21
TORSDOF 7
ENDMDL
MODEL 10
REMARK VINA RESULT:       2.6      2.191      5.607
REMARK  Name = 75536037
REMARK  8 active torsions:
REMARK  status: ('A' for Active; 'I' for Inactive)
REMARK    1  A    between atoms: O_3  and  C_24
REMARK    2  A    between atoms: O_3  and  C_29
REMARK    3  A    between atoms: N_5  and  C_10
REMARK    4  A    between atoms: N_8  and  C_22
REMARK    5  A    between atoms: C_16  and  C_21
REMARK    6  A    between atoms: C_22  and  C_23
REMARK    7  A    between atoms: C_22  and  C_24
REMARK    8  A    between atoms: C_23  and  C_25
REMARK                            x       y       z     vdW  Elec       q    Type
REMARK                         _______ _______ _______ _____ _____    ______ ____
ROOT
ATOM      1  O   UNL     1      -4.841   0.290  25.869  0.00  0.00    -0.253 OA
ATOM      5  N   UNL     1      -3.943  -0.735  24.023  0.00  0.00    -0.296 N 
ATOM      6  N   UNL     1      -4.031   1.629  24.150  0.00  0.00    -0.272 N 
ATOM      7  N   UNL     1      -3.957   4.216  22.881  0.00  0.00    -0.312 NA
ATOM     16  C   UNL     1      -3.263   1.814  22.907  0.00  0.00    +0.177 C 
ATOM     17  C   UNL     1      -4.387   2.855  24.874  0.00  0.00    +0.125 C 
ATOM     18  C   UNL     1      -3.736   3.013  22.078  0.00  0.00    +0.113 C 
ATOM     19  C   UNL     1      -4.310   0.387  24.758  0.00  0.00    +0.303 C 
ATOM     20  C   UNL     1      -4.914   3.943  23.950  0.00  0.00    +0.100 C 
ATOM     31  H   UNL     1      -3.368  -0.642  23.198  0.00  0.00    +0.151 HD
ATOM     32  H   UNL     1      -4.320   4.958  22.284  0.00  0.00    +0.122 HD
ENDROOT
BRANCH   5  10
ATOM     10  C   UNL     1      -4.158  -2.079  24.513  0.00  0.00    +0.074 C 
ATOM     11  C   UNL     1      -3.576  -2.252  25.920  0.00  0.00    +0.022 C 
ATOM     12  C   UNL     1      -3.583  -3.117  23.543  0.00  0.00    +0.022 C 
ATOM     13  C   UNL     1      -2.047  -2.276  25.922  0.00  0.00    +0.002 C 
ATOM     14  C   UNL     1      -2.056  -3.140  23.548  0.00  0.00    +0.002 C 
ATOM     15  C   UNL     1      -1.500  -3.324  24.958  0.00  0.00    +0.000 C 
ENDBRANCH   5  10
BRANCH  16  21
ATOM      2  O   UNL     1      -1.070   2.747  22.757  0.00  0.00    -0.274 OA
ATOM      8  N   UNL     1      -1.478   1.075  24.324  0.00  0.00    -0.301 N 
ATOM     21  C   UNL     1      -1.824   1.950  23.308  0.00  0.00    +0.236 C 
ATOM     33  H   UNL     1      -2.180   0.440  24.692  0.00  0.00    +0.150 HD
BRANCH   8  22
ATOM     22  C   UNL     1      -0.145   0.991  24.876  0.00  0.00    +0.186 C 
BRANCH  22  24
ATOM      4  O   UNL     1       1.759   1.917  23.712  0.00  0.00    -0.249 OA
ATOM     24  C   UNL     1       0.926   1.019  23.796  0.00  0.00    +0.328 C 
BRANCH  24   3
ATOM      3  O   UNL     1       0.830  -0.044  22.949  0.00  0.00    -0.467 OA
ATOM     29  C   UNL     1       1.927  -0.221  22.046  0.00  0.00    +0.280 C 
ENDBRANCH  24   3
ENDBRANCH  22  24
BRANCH  22  23
ATOM     23  C   UNL     1       0.095   2.061  25.952  0.00  0.00    +0.070 C 
BRANCH  23  25
ATOM      9  N   UNL     1      -0.812   5.517  24.684  0.00  0.00    -0.263 NA
ATOM     25  C   UNL     1      -0.669   3.349  25.745  0.00  0.00    -0.027 A 
ATOM     26  C   UNL     1      -1.883   3.574  26.384  0.00  0.00    +0.006 A 
ATOM     27  C   UNL     1      -0.181   4.344  24.911  0.00  0.00    +0.114 A 
ATOM     28  C   UNL     1      -2.561   4.769  26.175  0.00  0.00    +0.020 A 
ATOM     30  C   UNL     1      -1.990   5.700  25.323  0.00  0.00    +0.111 A 
ENDBRANCH  23  25
ENDBRANCH  22  23
ENDBRANCH   8  22
ENDBRANCH  16  21
TORSDOF 7
ENDMDL
