MODEL 1
REMARK VINA RESULT:      -1.7      0.000      0.000
REMARK  Name = 51137748
REMARK  4 active torsions:
REMARK  status: ('A' for Active; 'I' for Inactive)
REMARK    1  A    between atoms: N_6  and  C_24
REMARK    2  A    between atoms: C_9  and  C_13
REMARK    3  A    between atoms: C_14  and  C_15
REMARK    4  A    between atoms: C_16  and  C_17
REMARK                            x       y       z     vdW  Elec       q    Type
REMARK                         _______ _______ _______ _____ _____    ______ ____
ROOT
ATOM      2  O   UNL     1      -0.632  -8.927  12.780  0.00  0.00    -0.270 OA
ATOM      3  N   UNL     1      -2.420 -10.034  11.798  0.00  0.00    -0.297 N 
ATOM      9  C   UNL     1      -4.307 -10.600  10.462  0.00  0.00    +0.095 C 
ATOM     10  C   UNL     1      -3.066 -10.455   9.569  0.00  0.00    +0.033 C 
ATOM     11  C   UNL     1      -3.678 -10.781  11.852  0.00  0.00    +0.121 C 
ATOM     12  C   UNL     1      -2.084  -9.674  10.429  0.00  0.00    +0.109 C 
ATOM     14  C   UNL     1      -1.645  -9.617  12.868  0.00  0.00    +0.247 C 
ENDROOT
BRANCH  14  15
ATOM      8  N   UNL     1      -2.893 -10.777  16.780  0.00  0.00    -0.263 NA
ATOM     15  C   UNL     1      -2.075 -10.018  14.217  0.00  0.00    +0.040 A 
ATOM     18  C   UNL     1      -3.407 -10.335  14.459  0.00  0.00    +0.033 A 
ATOM     19  C   UNL     1      -1.151 -10.081  15.255  0.00  0.00    +0.033 A 
ATOM     22  C   UNL     1      -3.762 -10.705  15.746  0.00  0.00    +0.111 A 
ATOM     23  C   UNL     1      -1.607 -10.462  16.506  0.00  0.00    +0.111 A 
ENDBRANCH  14  15
BRANCH   9  13
ATOM      1  O   UNL     1      -6.571  -9.724  10.095  0.00  0.00    -0.419 OA
ATOM      4  N   UNL     1      -5.009  -8.138  10.314  0.00  0.00    -0.112 NA
ATOM      5  N   UNL     1      -6.226  -7.514  10.113  0.00  0.00    -0.106 NA
ATOM     13  C   UNL     1      -5.258  -9.427  10.296  0.00  0.00    +0.222 A 
ATOM     16  C   UNL     1      -7.109  -8.479   9.991  0.00  0.00    +0.266 A 
BRANCH  16  17
ATOM      6  N   UNL     1      -9.500  -8.797  10.505  0.00  0.00    -0.329 N 
ATOM      7  N   UNL     1     -10.484  -7.524   8.974  0.00  0.00    -0.243 NA
ATOM     17  C   UNL     1      -8.488  -8.246   9.770  0.00  0.00    +0.125 A 
ATOM     20  C   UNL     1      -9.120  -7.463   8.832  0.00  0.00    +0.143 A 
ATOM     21  C   UNL     1     -10.679  -8.335   9.990  0.00  0.00    +0.199 A 
ATOM     24  C   UNL     1      -9.375  -9.702  11.624  0.00  0.00    +0.150 C 
ENDBRANCH  16  17
ENDBRANCH   9  13
TORSDOF 3
ENDMDL
MODEL 2
REMARK VINA RESULT:      -1.2     15.341     17.362
REMARK  Name = 51137748
REMARK  4 active torsions:
REMARK  status: ('A' for Active; 'I' for Inactive)
REMARK    1  A    between atoms: N_6  and  C_24
REMARK    2  A    between atoms: C_9  and  C_13
REMARK    3  A    between atoms: C_14  and  C_15
REMARK    4  A    between atoms: C_16  and  C_17
REMARK                            x       y       z     vdW  Elec       q    Type
REMARK                         _______ _______ _______ _____ _____    ______ ____
ROOT
ATOM      2  O   UNL     1       1.668  -0.303  21.073  0.00  0.00    -0.270 OA
ATOM      3  N   UNL     1       0.738  -0.673  23.168  0.00  0.00    -0.297 N 
ATOM      9  C   UNL     1      -0.655  -0.613  25.096  0.00  0.00    +0.095 C 
ATOM     10  C   UNL     1      -1.417  -1.256  23.928  0.00  0.00    +0.033 C 
ATOM     11  C   UNL     1       0.803  -0.733  24.630  0.00  0.00    +0.121 C 
ATOM     12  C   UNL     1      -0.629  -0.830  22.698  0.00  0.00    +0.109 C 
ATOM     14  C   UNL     1       1.781  -0.418  22.291  0.00  0.00    +0.247 C 
ENDROOT
BRANCH  14  15
ATOM      8  N   UNL     1       5.686   0.044  23.948  0.00  0.00    -0.263 NA
ATOM     15  C   UNL     1       3.127  -0.258  22.864  0.00  0.00    +0.040 A 
ATOM     18  C   UNL     1       3.788   0.961  22.764  0.00  0.00    +0.033 A 
ATOM     19  C   UNL     1       3.744  -1.327  23.506  0.00  0.00    +0.033 A 
ATOM     22  C   UNL     1       5.054   1.060  23.318  0.00  0.00    +0.111 A 
ATOM     23  C   UNL     1       5.012  -1.126  24.026  0.00  0.00    +0.111 A 
ENDBRANCH  14  15
BRANCH   9  13
ATOM      1  O   UNL     1      -2.496   1.003  25.253  0.00  0.00    -0.419 OA
ATOM      4  N   UNL     1      -0.493   1.857  25.765  0.00  0.00    -0.112 NA
ATOM      5  N   UNL     1      -1.432   2.864  25.892  0.00  0.00    -0.106 NA
ATOM     13  C   UNL     1      -1.160   0.790  25.390  0.00  0.00    +0.222 A 
ATOM     16  C   UNL     1      -2.587   2.320  25.583  0.00  0.00    +0.266 A 
BRANCH  16  17
ATOM      6  N   UNL     1      -5.039   2.483  25.365  0.00  0.00    -0.329 N 
ATOM      7  N   UNL     1      -5.401   4.643  25.730  0.00  0.00    -0.243 NA
ATOM     17  C   UNL     1      -3.809   3.035  25.592  0.00  0.00    +0.125 A 
ATOM     20  C   UNL     1      -4.058   4.369  25.816  0.00  0.00    +0.143 A 
ATOM     21  C   UNL     1      -5.962   3.486  25.458  0.00  0.00    +0.199 A 
ATOM     24  C   UNL     1      -5.335   1.098  25.077  0.00  0.00    +0.150 C 
ENDBRANCH  16  17
ENDBRANCH   9  13
TORSDOF 3
ENDMDL
MODEL 3
REMARK VINA RESULT:       1.0     14.347     16.940
REMARK  Name = 51137748
REMARK  4 active torsions:
REMARK  status: ('A' for Active; 'I' for Inactive)
REMARK    1  A    between atoms: N_6  and  C_24
REMARK    2  A    between atoms: C_9  and  C_13
REMARK    3  A    between atoms: C_14  and  C_15
REMARK    4  A    between atoms: C_16  and  C_17
REMARK                            x       y       z     vdW  Elec       q    Type
REMARK                         _______ _______ _______ _____ _____    ______ ____
ROOT
ATOM      2  O   UNL     1       1.076   2.300  26.104  0.00  0.00    -0.270 OA
ATOM      3  N   UNL     1      -0.642   2.773  24.615  0.00  0.00    -0.297 N 
ATOM      9  C   UNL     1      -2.773   3.041  23.590  0.00  0.00    +0.095 C 
ATOM     10  C   UNL     1      -2.627   4.041  24.748  0.00  0.00    +0.033 C 
ATOM     11  C   UNL     1      -1.312   2.653  23.319  0.00  0.00    +0.121 C 
ATOM     12  C   UNL     1      -1.478   3.480  25.573  0.00  0.00    +0.109 C 
ATOM     14  C   UNL     1       0.583   2.238  24.980  0.00  0.00    +0.247 C 
ENDROOT
BRANCH  14  15
ATOM      8  N   UNL     1       2.807   0.172  21.980  0.00  0.00    -0.263 NA
ATOM     15  C   UNL     1       1.349   1.526  23.944  0.00  0.00    +0.040 A 
ATOM     18  C   UNL     1       0.782   0.448  23.274  0.00  0.00    +0.033 A 
ATOM     19  C   UNL     1       2.644   1.929  23.633  0.00  0.00    +0.033 A 
ATOM     22  C   UNL     1       1.546  -0.190  22.309  0.00  0.00    +0.111 A 
ATOM     23  C   UNL     1       3.324   1.225  22.652  0.00  0.00    +0.111 A 
ENDBRANCH  14  15
BRANCH   9  13
ATOM      1  O   UNL     1      -3.227   0.644  23.857  0.00  0.00    -0.419 OA
ATOM      4  N   UNL     1      -4.975   1.956  24.330  0.00  0.00    -0.112 NA
ATOM      5  N   UNL     1      -5.364   0.644  24.518  0.00  0.00    -0.106 NA
ATOM     13  C   UNL     1      -3.721   1.908  23.944  0.00  0.00    +0.222 A 
ATOM     16  C   UNL     1      -4.312  -0.088  24.230  0.00  0.00    +0.266 A 
BRANCH  16  17
ATOM      6  N   UNL     1      -3.675  -2.233  25.268  0.00  0.00    -0.329 N 
ATOM      7  N   UNL     1      -4.632  -3.712  23.917  0.00  0.00    -0.243 NA
ATOM     17  C   UNL     1      -4.306  -1.503  24.301  0.00  0.00    +0.125 A 
ATOM     20  C   UNL     1      -4.891  -2.437  23.479  0.00  0.00    +0.143 A 
ATOM     21  C   UNL     1      -3.899  -3.554  24.996  0.00  0.00    +0.199 A 
ATOM     24  C   UNL     1      -2.908  -1.729  26.384  0.00  0.00    +0.150 C 
ENDBRANCH  16  17
ENDBRANCH   9  13
TORSDOF 3
ENDMDL
MODEL 4
REMARK VINA RESULT:       1.0     15.609     18.744
REMARK  Name = 51137748
REMARK  4 active torsions:
REMARK  status: ('A' for Active; 'I' for Inactive)
REMARK    1  A    between atoms: N_6  and  C_24
REMARK    2  A    between atoms: C_9  and  C_13
REMARK    3  A    between atoms: C_14  and  C_15
REMARK    4  A    between atoms: C_16  and  C_17
REMARK                            x       y       z     vdW  Elec       q    Type
REMARK                         _______ _______ _______ _____ _____    ______ ____
ROOT
ATOM      2  O   UNL     1      -4.071   4.580  23.334  0.00  0.00    -0.270 OA
ATOM      3  N   UNL     1      -2.531   3.803  24.888  0.00  0.00    -0.297 N 
ATOM      9  C   UNL     1      -0.592   2.905  25.936  0.00  0.00    +0.095 C 
ATOM     10  C   UNL     1      -0.262   4.277  25.329  0.00  0.00    +0.033 C 
ATOM     11  C   UNL     1      -2.126   2.949  26.006  0.00  0.00    +0.121 C 
ATOM     12  C   UNL     1      -1.390   4.519  24.337  0.00  0.00    +0.109 C 
ATOM     14  C   UNL     1      -3.792   3.904  24.321  0.00  0.00    +0.247 C 
ENDROOT
BRANCH  14  15
ATOM      8  N   UNL     1      -6.940   1.654  26.120  0.00  0.00    -0.263 NA
ATOM     15  C   UNL     1      -4.879   3.128  24.941  0.00  0.00    +0.040 A 
ATOM     18  C   UNL     1      -5.577   3.649  26.024  0.00  0.00    +0.033 A 
ATOM     19  C   UNL     1      -5.210   1.872  24.445  0.00  0.00    +0.033 A 
ATOM     22  C   UNL     1      -6.590   2.879  26.573  0.00  0.00    +0.111 A 
ATOM     23  C   UNL     1      -6.239   1.181  25.064  0.00  0.00    +0.111 A 
ENDBRANCH  14  15
BRANCH   9  13
ATOM      1  O   UNL     1       1.177   2.044  24.469  0.00  0.00    -0.419 OA
ATOM      4  N   UNL     1      -0.405   0.542  24.961  0.00  0.00    -0.112 NA
ATOM      5  N   UNL     1       0.520  -0.068  24.135  0.00  0.00    -0.106 NA
ATOM     13  C   UNL     1       0.019   1.773  25.129  0.00  0.00    +0.222 A 
ATOM     16  C   UNL     1       1.426   0.846  23.873  0.00  0.00    +0.266 A 
BRANCH  16  17
ATOM      6  N   UNL     1       2.513   0.000  21.826  0.00  0.00    -0.329 N 
ATOM      7  N   UNL     1       4.646   0.499  22.186  0.00  0.00    -0.243 NA
ATOM     17  C   UNL     1       2.553   0.609  23.049  0.00  0.00    +0.125 A 
ATOM     20  C   UNL     1       3.880   0.909  23.249  0.00  0.00    +0.143 A 
ATOM     21  C   UNL     1       3.792  -0.043  21.347  0.00  0.00    +0.199 A 
ATOM     24  C   UNL     1       1.347  -0.511  21.143  0.00  0.00    +0.150 C 
ENDBRANCH  16  17
ENDBRANCH   9  13
TORSDOF 3
ENDMDL
MODEL 5
REMARK VINA RESULT:       1.4     14.996     17.454
REMARK  Name = 51137748
REMARK  4 active torsions:
REMARK  status: ('A' for Active; 'I' for Inactive)
REMARK    1  A    between atoms: N_6  and  C_24
REMARK    2  A    between atoms: C_9  and  C_13
REMARK    3  A    between atoms: C_14  and  C_15
REMARK    4  A    between atoms: C_16  and  C_17
REMARK                            x       y       z     vdW  Elec       q    Type
REMARK                         _______ _______ _______ _____ _____    ______ ____
ROOT
ATOM      2  O   UNL     1      -0.563  -1.425  26.499  0.00  0.00    -0.270 OA
ATOM      3  N   UNL     1      -0.536   0.132  24.778  0.00  0.00    -0.297 N 
ATOM      9  C   UNL     1      -0.526   2.152  23.519  0.00  0.00    +0.095 C 
ATOM     10  C   UNL     1       0.796   2.017  24.290  0.00  0.00    +0.033 C 
ATOM     11  C   UNL     1      -1.052   0.708  23.535  0.00  0.00    +0.121 C 
ATOM     12  C   UNL     1       0.490   0.981  25.362  0.00  0.00    +0.109 C 
ATOM     14  C   UNL     1      -0.976  -1.017  25.416  0.00  0.00    +0.247 C 
ENDROOT
BRANCH  14  15
ATOM      8  N   UNL     1      -4.031  -3.290  23.491  0.00  0.00    -0.263 NA
ATOM     15  C   UNL     1      -2.030  -1.802  24.754  0.00  0.00    +0.040 A 
ATOM     18  C   UNL     1      -1.717  -3.007  24.135  0.00  0.00    +0.033 A 
ATOM     19  C   UNL     1      -3.341  -1.340  24.742  0.00  0.00    +0.033 A 
ATOM     22  C   UNL     1      -2.745  -3.707  23.524  0.00  0.00    +0.111 A 
ATOM     23  C   UNL     1      -4.296  -2.114  24.103  0.00  0.00    +0.111 A 
ENDBRANCH  14  15
BRANCH   9  13
ATOM      1  O   UNL     1      -2.728   2.865  24.336  0.00  0.00    -0.419 OA
ATOM      4  N   UNL     1      -1.145   4.435  24.506  0.00  0.00    -0.112 NA
ATOM      5  N   UNL     1      -2.324   4.964  24.996  0.00  0.00    -0.106 NA
ATOM     13  C   UNL     1      -1.428   3.209  24.132  0.00  0.00    +0.222 A 
ATOM     16  C   UNL     1      -3.221   4.012  24.878  0.00  0.00    +0.266 A 
BRANCH  16  17
ATOM      6  N   UNL     1      -5.438   3.132  25.507  0.00  0.00    -0.329 N 
ATOM      7  N   UNL     1      -6.593   4.992  25.878  0.00  0.00    -0.243 NA
ATOM     17  C   UNL     1      -4.572   4.164  25.274  0.00  0.00    +0.125 A 
ATOM     20  C   UNL     1      -5.307   5.301  25.511  0.00  0.00    +0.143 A 
ATOM     21  C   UNL     1      -6.639   3.679  25.867  0.00  0.00    +0.199 A 
ATOM     24  C   UNL     1      -5.162   1.718  25.400  0.00  0.00    +0.150 C 
ENDBRANCH  16  17
ENDBRANCH   9  13
TORSDOF 3
ENDMDL
MODEL 6
REMARK VINA RESULT:       1.5     14.775     17.848
REMARK  Name = 51137748
REMARK  4 active torsions:
REMARK  status: ('A' for Active; 'I' for Inactive)
REMARK    1  A    between atoms: N_6  and  C_24
REMARK    2  A    between atoms: C_9  and  C_13
REMARK    3  A    between atoms: C_14  and  C_15
REMARK    4  A    between atoms: C_16  and  C_17
REMARK                            x       y       z     vdW  Elec       q    Type
REMARK                         _______ _______ _______ _____ _____    ______ ____
ROOT
ATOM      2  O   UNL     1      -5.073   1.206  23.769  0.00  0.00    -0.270 OA
ATOM      3  N   UNL     1      -3.225   1.646  25.104  0.00  0.00    -0.297 N 
ATOM      9  C   UNL     1      -1.177   2.494  25.970  0.00  0.00    +0.095 C 
ATOM     10  C   UNL     1      -2.221   3.619  25.921  0.00  0.00    +0.033 C 
ATOM     11  C   UNL     1      -2.058   1.238  25.888  0.00  0.00    +0.121 C 
ATOM     12  C   UNL     1      -3.281   3.093  24.963  0.00  0.00    +0.109 C 
ATOM     14  C   UNL     1      -4.147   0.821  24.480  0.00  0.00    +0.247 C 
ENDROOT
BRANCH  14  15
ATOM      8  N   UNL     1      -3.713  -3.388  25.028  0.00  0.00    -0.263 NA
ATOM     15  C   UNL     1      -3.999  -0.631  24.670  0.00  0.00    +0.040 A 
ATOM     18  C   UNL     1      -3.465  -1.129  25.853  0.00  0.00    +0.033 A 
ATOM     19  C   UNL     1      -4.390  -1.509  23.665  0.00  0.00    +0.033 A 
ATOM     22  C   UNL     1      -3.345  -2.503  25.982  0.00  0.00    +0.111 A 
ATOM     23  C   UNL     1      -4.227  -2.866  23.891  0.00  0.00    +0.111 A 
ENDBRANCH  14  15
BRANCH   9  13
ATOM      1  O   UNL     1       0.700   1.598  24.666  0.00  0.00    -0.419 OA
ATOM      4  N   UNL     1       0.121   3.685  24.107  0.00  0.00    -0.112 NA
ATOM      5  N   UNL     1       1.181   3.306  23.304  0.00  0.00    -0.106 NA
ATOM     13  C   UNL     1      -0.125   2.657  24.886  0.00  0.00    +0.222 A 
ATOM     16  C   UNL     1       1.486   2.081  23.665  0.00  0.00    +0.266 A 
BRANCH  16  17
ATOM      6  N   UNL     1       2.360   0.185  22.352  0.00  0.00    -0.329 N 
ATOM      7  N   UNL     1       4.546   0.573  22.364  0.00  0.00    -0.243 NA
ATOM     17  C   UNL     1       2.532   1.334  23.071  0.00  0.00    +0.125 A 
ATOM     20  C   UNL     1       3.889   1.554  23.064  0.00  0.00    +0.143 A 
ATOM     21  C   UNL     1       3.597  -0.235  21.948  0.00  0.00    +0.199 A 
ATOM     24  C   UNL     1       1.114  -0.484  22.058  0.00  0.00    +0.150 C 
ENDBRANCH  16  17
ENDBRANCH   9  13
TORSDOF 3
ENDMDL
MODEL 7
REMARK VINA RESULT:       1.8     15.311     17.993
REMARK  Name = 51137748
REMARK  4 active torsions:
REMARK  status: ('A' for Active; 'I' for Inactive)
REMARK    1  A    between atoms: N_6  and  C_24
REMARK    2  A    between atoms: C_9  and  C_13
REMARK    3  A    between atoms: C_14  and  C_15
REMARK    4  A    between atoms: C_16  and  C_17
REMARK                            x       y       z     vdW  Elec       q    Type
REMARK                         _______ _______ _______ _____ _____    ______ ____
ROOT
ATOM      2  O   UNL     1      -3.391  -0.839  26.650  0.00  0.00    -0.270 OA
ATOM      3  N   UNL     1      -2.420  -0.569  24.558  0.00  0.00    -0.297 N 
ATOM      9  C   UNL     1      -0.873  -0.409  22.757  0.00  0.00    +0.095 C 
ATOM     10  C   UNL     1      -0.932  -1.859  23.260  0.00  0.00    +0.033 C 
ATOM     11  C   UNL     1      -2.176   0.177  23.322  0.00  0.00    +0.121 C 
ATOM     12  C   UNL     1      -1.565  -1.743  24.639  0.00  0.00    +0.109 C 
ATOM     14  C   UNL     1      -3.271  -0.221  25.595  0.00  0.00    +0.247 C 
ENDROOT
BRANCH  14  15
ATOM      8  N   UNL     1      -5.633   3.301  25.112  0.00  0.00    -0.263 NA
ATOM     15  C   UNL     1      -4.086   0.994  25.427  0.00  0.00    +0.040 A 
ATOM     18  C   UNL     1      -3.483   2.247  25.451  0.00  0.00    +0.033 A 
ATOM     19  C   UNL     1      -5.461   0.893  25.244  0.00  0.00    +0.033 A 
ATOM     22  C   UNL     1      -4.294   3.359  25.290  0.00  0.00    +0.111 A 
ATOM     23  C   UNL     1      -6.183   2.065  25.093  0.00  0.00    +0.111 A 
ENDBRANCH  14  15
BRANCH   9  13
ATOM      1  O   UNL     1       1.575  -0.395  22.935  0.00  0.00    -0.419 OA
ATOM      4  N   UNL     1       0.595   1.447  23.742  0.00  0.00    -0.112 NA
ATOM      5  N   UNL     1       1.961   1.584  23.904  0.00  0.00    -0.106 NA
ATOM     13  C   UNL     1       0.416   0.277  23.173  0.00  0.00    +0.222 A 
ATOM     16  C   UNL     1       2.493   0.485  23.419  0.00  0.00    +0.266 A 
BRANCH  16  17
ATOM      6  N   UNL     1       4.472  -0.964  23.684  0.00  0.00    -0.329 N 
ATOM      7  N   UNL     1       6.138   0.427  23.217  0.00  0.00    -0.243 NA
ATOM     17  C   UNL     1       3.888   0.239  23.401  0.00  0.00    +0.125 A 
ATOM     20  C   UNL     1       4.936   1.081  23.115  0.00  0.00    +0.143 A 
ATOM     21  C   UNL     1       5.823  -0.802  23.561  0.00  0.00    +0.199 A 
ATOM     24  C   UNL     1       3.807  -2.194  24.048  0.00  0.00    +0.150 C 
ENDBRANCH  16  17
ENDBRANCH   9  13
TORSDOF 3
ENDMDL
MODEL 8
REMARK VINA RESULT:       1.9     14.899     17.595
REMARK  Name = 51137748
REMARK  4 active torsions:
REMARK  status: ('A' for Active; 'I' for Inactive)
REMARK    1  A    between atoms: N_6  and  C_24
REMARK    2  A    between atoms: C_9  and  C_13
REMARK    3  A    between atoms: C_14  and  C_15
REMARK    4  A    between atoms: C_16  and  C_17
REMARK                            x       y       z     vdW  Elec       q    Type
REMARK                         _______ _______ _______ _____ _____    ______ ____
ROOT
ATOM      2  O   UNL     1       1.308  -0.724  21.014  0.00  0.00    -0.270 OA
ATOM      3  N   UNL     1       0.488  -1.128  23.149  0.00  0.00    -0.297 N 
ATOM      9  C   UNL     1      -0.879  -1.231  25.094  0.00  0.00    +0.095 C 
ATOM     10  C   UNL     1      -1.480  -2.117  23.992  0.00  0.00    +0.033 C 
ATOM     11  C   UNL     1       0.568  -1.060  24.609  0.00  0.00    +0.121 C 
ATOM     12  C   UNL     1      -0.810  -1.623  22.718  0.00  0.00    +0.109 C 
ATOM     14  C   UNL     1       1.446  -0.716  22.235  0.00  0.00    +0.247 C 
ENDROOT
BRANCH  14  15
ATOM      8  N   UNL     1       5.151   0.732  23.778  0.00  0.00    -0.263 NA
ATOM     15  C   UNL     1       2.723  -0.216  22.768  0.00  0.00    +0.040 A 
ATOM     18  C   UNL     1       3.064   1.123  22.620  0.00  0.00    +0.033 A 
ATOM     19  C   UNL     1       3.594  -1.082  23.421  0.00  0.00    +0.033 A 
ATOM     22  C   UNL     1       4.279   1.544  23.138  0.00  0.00    +0.111 A 
ATOM     23  C   UNL     1       4.785  -0.563  23.902  0.00  0.00    +0.111 A 
ENDBRANCH  14  15
BRANCH   9  13
ATOM      1  O   UNL     1      -1.033   1.218  25.087  0.00  0.00    -0.419 OA
ATOM      4  N   UNL     1      -2.942   0.191  25.637  0.00  0.00    -0.112 NA
ATOM      5  N   UNL     1      -3.166   1.554  25.673  0.00  0.00    -0.106 NA
ATOM     13  C   UNL     1      -1.684   0.042  25.291  0.00  0.00    +0.222 A 
ATOM     16  C   UNL     1      -2.024   2.115  25.345  0.00  0.00    +0.266 A 
BRANCH  16  17
ATOM      6  N   UNL     1      -0.793   4.134  24.644  0.00  0.00    -0.329 N 
ATOM      7  N   UNL     1      -2.062   5.764  25.458  0.00  0.00    -0.243 NA
ATOM     17  C   UNL     1      -1.841   3.517  25.268  0.00  0.00    +0.125 A 
ATOM     20  C   UNL     1      -2.611   4.543  25.761  0.00  0.00    +0.143 A 
ATOM     21  C   UNL     1      -0.969   5.482  24.785  0.00  0.00    +0.199 A 
ATOM     24  C   UNL     1       0.310   3.503  23.956  0.00  0.00    +0.150 C 
ENDBRANCH  16  17
ENDBRANCH   9  13
TORSDOF 3
ENDMDL
