MODEL 1
REMARK VINA RESULT:       7.2      0.000      0.000
REMARK  Name = 40777720
REMARK  10 active torsions:
REMARK  status: ('A' for Active; 'I' for Inactive)
REMARK    1  A    between atoms: N_3  and  C_15
REMARK    2  A    between atoms: N_4  and  C_8
REMARK    3  A    between atoms: C_6  and  C_9
REMARK    4  A    between atoms: C_12  and  C_16
REMARK    5  A    between atoms: C_13  and  C_18
REMARK    6  A    between atoms: C_14  and  C_17
REMARK    7  A    between atoms: C_14  and  C_24
REMARK    8  A    between atoms: C_14  and  C_25
REMARK    9  A    between atoms: C_14  and  C_26
REMARK   10  A    between atoms: C_21  and  C_27
REMARK                            x       y       z     vdW  Elec       q    Type
REMARK                         _______ _______ _______ _____ _____    ______ ____
ROOT
ATOM      3  N   UNL     1      -3.866  -9.726  12.215  0.00  0.00    -0.236 N 
ATOM      5  N   UNL     1      -3.678 -10.388  13.370  0.00  0.00    -0.171 NA
ATOM      9  C   UNL     1      -1.800  -9.251  12.740  0.00  0.00    +0.003 A 
ATOM     12  C   UNL     1      -2.772  -9.030  11.795  0.00  0.00    +0.046 A 
ATOM     13  C   UNL     1      -2.415 -10.093  13.686  0.00  0.00    +0.064 A 
ATOM     16  C   UNL     1      -2.747  -8.230  10.552  0.00  0.00    +0.066 C 
ATOM     18  C   UNL     1      -1.827 -10.648  14.918  0.00  0.00    +0.068 C 
ENDROOT
BRANCH   3  15
ATOM     15  C   UNL     1      -5.101  -9.798  11.569  0.00  0.00    +0.066 A 
ATOM     17  C   UNL     1      -7.571  -9.951  10.282  0.00  0.00    -0.042 A 
ATOM     19  C   UNL     1      -6.172  -9.026  12.020  0.00  0.00    +0.028 A 
ATOM     20  C   UNL     1      -5.266 -10.647  10.473  0.00  0.00    +0.028 A 
ATOM     22  C   UNL     1      -7.406  -9.103  11.376  0.00  0.00    +0.006 A 
ATOM     23  C   UNL     1      -6.500 -10.722   9.830  0.00  0.00    +0.006 A 
BRANCH  17  14
ATOM     14  C   UNL     1      -8.891 -10.032   9.593  0.00  0.00    -0.013 C 
ATOM     24  C   UNL     1      -8.774 -10.781   8.229  0.00  0.00    +0.015 C 
ATOM     25  C   UNL     1      -9.465  -8.611   9.300  0.00  0.00    +0.015 C 
ATOM     26  C   UNL     1     -10.017 -10.780  10.384  0.00  0.00    +0.015 C 
ENDBRANCH  17  14
ENDBRANCH   3  15
BRANCH   9   6
ATOM      6  C   UNL     1      -0.389  -8.709  12.757  0.00  0.00    +0.047 C 
ATOM      7  C   UNL     1       0.197  -8.489  11.346  0.00  0.00    +0.039 C 
ATOM      8  C   UNL     1       1.096  -7.252  11.455  0.00  0.00    +0.097 C 
ATOM     10  C   UNL     1      -0.245  -7.351  13.381  0.00  0.00    -0.021 C 
ATOM     11  C   UNL     1       0.569  -6.563  12.670  0.00  0.00    -0.009 C 
BRANCH   8   4
ATOM      1  O   UNL     1       3.135  -5.535  12.526  0.00  0.00    -0.267 OA
ATOM      4  N   UNL     1       2.480  -7.587  11.665  0.00  0.00    -0.303 N 
ATOM     21  C   UNL     1       3.399  -6.687  12.192  0.00  0.00    +0.280 C 
ATOM     31  H   UNL     1       2.808  -8.508  11.383  0.00  0.00    +0.150 HD
BRANCH  21  27
ATOM      2  O   UNL     1       5.505  -6.794  13.415  0.00  0.00    -0.458 OA
ATOM     27  C   UNL     1       4.795  -7.179  12.322  0.00  0.00    +0.189 A 
ATOM     28  C   UNL     1       5.555  -7.992  11.513  0.00  0.00    +0.054 A 
ATOM     29  C   UNL     1       6.812  -8.115  12.150  0.00  0.00    +0.042 A 
ATOM     30  C   UNL     1       6.731  -7.368  13.303  0.00  0.00    +0.196 A 
ENDBRANCH  21  27
ENDBRANCH   8   4
ENDBRANCH   9   6
TORSDOF 5
ENDMDL
