MODEL 1
REMARK VINA RESULT:      -3.2      0.000      0.000
REMARK  Name = 75536059
REMARK  8 active torsions:
REMARK  status: ('A' for Active; 'I' for Inactive)
REMARK    1  A    between atoms: O_1  and  C_8
REMARK    2  A    between atoms: O_2  and  C_10
REMARK    3  A    between atoms: O_4  and  C_22
REMARK    4  A    between atoms: O_4  and  C_25
REMARK    5  A    between atoms: N_5  and  C_7
REMARK    6  A    between atoms: C_6  and  C_11
REMARK    7  A    between atoms: C_12  and  C_16
REMARK    8  A    between atoms: C_14  and  C_19
REMARK                            x       y       z     vdW  Elec       q    Type
REMARK                         _______ _______ _______ _____ _____    ______ ____
ROOT
ATOM      6  C   UNL     1      -2.131  -0.147  25.512  0.00  0.00    +0.045 C 
ATOM      7  C   UNL     1      -1.537  -0.944  24.328  0.00  0.00    +0.112 C 
ATOM      8  C   UNL     1      -1.847  -2.397  24.685  0.00  0.00    +0.164 C 
ATOM      9  C   UNL     1      -3.214  -1.064  26.137  0.00  0.00    +0.044 C 
ATOM     10  C   UNL     1      -3.253  -2.318  25.266  0.00  0.00    +0.145 C 
ENDROOT
BRANCH   6  11
ATOM     11  C   UNL     1      -2.629   1.225  25.112  0.00  0.00    -0.039 A 
ATOM     12  C   UNL     1      -1.858   2.364  25.345  0.00  0.00    -0.047 A 
ATOM     13  C   UNL     1      -3.879   1.341  24.503  0.00  0.00    +0.004 A 
ATOM     15  C   UNL     1      -2.338   3.619  24.969  0.00  0.00    +0.003 A 
ATOM     16  C   UNL     1      -0.518   2.266  25.995  0.00  0.00    +0.044 C 
ATOM     17  C   UNL     1      -4.358   2.597  24.127  0.00  0.00    +0.000 A 
ATOM     18  C   UNL     1      -3.587   3.736  24.361  0.00  0.00    +0.000 A 
ENDBRANCH   6  11
BRANCH   7   5
ATOM      3  O   UNL     1      -0.278   0.857  22.480  0.00  0.00    -0.270 OA
ATOM      5  N   UNL     1      -0.123  -0.715  24.177  0.00  0.00    -0.305 N 
ATOM     14  C   UNL     1       0.396   0.180  23.252  0.00  0.00    +0.244 C 
ATOM     26  H   UNL     1       0.491  -1.167  24.847  0.00  0.00    +0.149 HD
BRANCH  14  19
ATOM     19  C   UNL     1       1.878   0.281  23.203  0.00  0.00    +0.040 A 
ATOM     20  C   UNL     1       2.663  -0.808  23.577  0.00  0.00    +0.058 A 
ATOM     21  C   UNL     1       2.482   1.466  22.783  0.00  0.00    +0.013 A 
ATOM     22  C   UNL     1       4.054  -0.713  23.531  0.00  0.00    +0.121 A 
ATOM     23  C   UNL     1       3.873   1.562  22.737  0.00  0.00    +0.004 A 
ATOM     24  C   UNL     1       4.660   0.472  23.111  0.00  0.00    +0.045 A 
BRANCH  22   4
ATOM      4  O   UNL     1       4.822  -1.776  23.895  0.00  0.00    -0.495 OA
ATOM     25  C   UNL     1       6.152  -1.497  24.330  0.00  0.00    +0.277 C 
ENDBRANCH  22   4
ENDBRANCH  14  19
ENDBRANCH   7   5
BRANCH   8   1
ATOM      1  O   UNL     1      -1.806  -3.247  23.556  0.00  0.00    -0.387 OA
ATOM     27  H   UNL     1      -2.725  -3.438  23.301  0.00  0.00    +0.210 HD
ENDBRANCH   8   1
BRANCH  10   2
ATOM      2  O   UNL     1      -4.220  -2.131  24.238  0.00  0.00    -0.389 OA
ATOM     28  H   UNL     1      -4.995  -2.674  24.462  0.00  0.00    +0.210 HD
ENDBRANCH  10   2
TORSDOF 6
ENDMDL
MODEL 2
REMARK VINA RESULT:      -1.0      2.053      3.789
REMARK  Name = 75536059
REMARK  8 active torsions:
REMARK  status: ('A' for Active; 'I' for Inactive)
REMARK    1  A    between atoms: O_1  and  C_8
REMARK    2  A    between atoms: O_2  and  C_10
REMARK    3  A    between atoms: O_4  and  C_22
REMARK    4  A    between atoms: O_4  and  C_25
REMARK    5  A    between atoms: N_5  and  C_7
REMARK    6  A    between atoms: C_6  and  C_11
REMARK    7  A    between atoms: C_12  and  C_16
REMARK    8  A    between atoms: C_14  and  C_19
REMARK                            x       y       z     vdW  Elec       q    Type
REMARK                         _______ _______ _______ _____ _____    ______ ____
ROOT
ATOM      6  C   UNL     1      -3.128   1.166  23.687  0.00  0.00    +0.045 C 
ATOM      7  C   UNL     1      -1.917   1.796  24.414  0.00  0.00    +0.112 C 
ATOM      8  C   UNL     1      -2.270   3.281  24.472  0.00  0.00    +0.164 C 
ATOM      9  C   UNL     1      -4.307   2.151  23.899  0.00  0.00    +0.044 C 
ATOM     10  C   UNL     1      -3.761   3.271  24.782  0.00  0.00    +0.145 C 
ENDROOT
BRANCH   6  11
ATOM     11  C   UNL     1      -3.412  -0.253  24.129  0.00  0.00    -0.039 A 
ATOM     12  C   UNL     1      -3.033  -0.699  25.396  0.00  0.00    -0.047 A 
ATOM     13  C   UNL     1      -4.061  -1.119  23.250  0.00  0.00    +0.004 A 
ATOM     15  C   UNL     1      -3.305  -2.012  25.781  0.00  0.00    +0.003 A 
ATOM     16  C   UNL     1      -2.338   0.209  26.355  0.00  0.00    +0.044 C 
ATOM     17  C   UNL     1      -4.332  -2.432  23.636  0.00  0.00    +0.000 A 
ATOM     18  C   UNL     1      -3.954  -2.879  24.903  0.00  0.00    +0.000 A 
ENDBRANCH   6  11
BRANCH   7   5
ATOM      3  O   UNL     1      -0.250  -0.534  24.603  0.00  0.00    -0.270 OA
ATOM      5  N   UNL     1      -0.682   1.562  23.710  0.00  0.00    -0.305 N 
ATOM     14  C   UNL     1       0.059   0.399  23.866  0.00  0.00    +0.244 C 
ATOM     26  H   UNL     1      -0.413   2.247  23.010  0.00  0.00    +0.149 HD
BRANCH  14  19
ATOM     19  C   UNL     1       1.323   0.322  23.089  0.00  0.00    +0.040 A 
ATOM     20  C   UNL     1       2.514   0.787  23.647  0.00  0.00    +0.058 A 
ATOM     21  C   UNL     1       1.319  -0.213  21.801  0.00  0.00    +0.013 A 
ATOM     22  C   UNL     1       3.701   0.715  22.918  0.00  0.00    +0.121 A 
ATOM     23  C   UNL     1       2.506  -0.285  21.071  0.00  0.00    +0.004 A 
ATOM     24  C   UNL     1       3.697   0.179  21.630  0.00  0.00    +0.045 A 
BRANCH  22   4
ATOM      4  O   UNL     1       4.863   1.167  23.463  0.00  0.00    -0.495 OA
ATOM     25  C   UNL     1       5.731   0.193  24.040  0.00  0.00    +0.277 C 
ENDBRANCH  22   4
ENDBRANCH  14  19
ENDBRANCH   7   5
BRANCH   8   1
ATOM      1  O   UNL     1      -1.543   3.967  25.473  0.00  0.00    -0.387 OA
ATOM     27  H   UNL     1      -2.142   4.100  26.228  0.00  0.00    +0.210 HD
ENDBRANCH   8   1
BRANCH  10   2
ATOM      2  O   UNL     1      -3.996   2.932  26.146  0.00  0.00    -0.389 OA
ATOM     28  H   UNL     1      -4.147   1.972  26.188  0.00  0.00    +0.210 HD
ENDBRANCH  10   2
TORSDOF 6
ENDMDL
MODEL 3
REMARK VINA RESULT:      -0.8      3.210      5.573
REMARK  Name = 75536059
REMARK  8 active torsions:
REMARK  status: ('A' for Active; 'I' for Inactive)
REMARK    1  A    between atoms: O_1  and  C_8
REMARK    2  A    between atoms: O_2  and  C_10
REMARK    3  A    between atoms: O_4  and  C_22
REMARK    4  A    between atoms: O_4  and  C_25
REMARK    5  A    between atoms: N_5  and  C_7
REMARK    6  A    between atoms: C_6  and  C_11
REMARK    7  A    between atoms: C_12  and  C_16
REMARK    8  A    between atoms: C_14  and  C_19
REMARK                            x       y       z     vdW  Elec       q    Type
REMARK                         _______ _______ _______ _____ _____    ______ ____
ROOT
ATOM      6  C   UNL     1      -3.450   3.365  26.223  0.00  0.00    +0.045 C 
ATOM      7  C   UNL     1      -4.374   2.612  25.240  0.00  0.00    +0.112 C 
ATOM      8  C   UNL     1      -5.773   2.860  25.803  0.00  0.00    +0.164 C 
ATOM      9  C   UNL     1      -4.339   4.442  26.897  0.00  0.00    +0.044 C 
ATOM     10  C   UNL     1      -5.714   4.317  26.244  0.00  0.00    +0.145 C 
ENDROOT
BRANCH   6  11
ATOM     11  C   UNL     1      -2.201   3.910  25.563  0.00  0.00    -0.039 A 
ATOM     12  C   UNL     1      -1.050   3.129  25.452  0.00  0.00    -0.047 A 
ATOM     13  C   UNL     1      -2.213   5.212  25.064  0.00  0.00    +0.004 A 
ATOM     15  C   UNL     1       0.089   3.653  24.841  0.00  0.00    +0.003 A 
ATOM     16  C   UNL     1      -1.014   1.733  25.979  0.00  0.00    +0.044 C 
ATOM     17  C   UNL     1      -1.072   5.735  24.453  0.00  0.00    +0.000 A 
ATOM     18  C   UNL     1       0.079   4.954  24.341  0.00  0.00    +0.000 A 
ENDBRANCH   6  11
BRANCH   7   5
ATOM      3  O   UNL     1      -3.321   1.195  22.974  0.00  0.00    -0.270 OA
ATOM      5  N   UNL     1      -4.062   1.207  25.172  0.00  0.00    -0.305 N 
ATOM     14  C   UNL     1      -3.554   0.608  24.028  0.00  0.00    +0.244 C 
ATOM     26  H   UNL     1      -4.137   0.676  26.034  0.00  0.00    +0.149 HD
BRANCH  14  19
ATOM     19  C   UNL     1      -3.309  -0.856  24.112  0.00  0.00    +0.040 A 
ATOM     20  C   UNL     1      -2.068  -1.331  24.535  0.00  0.00    +0.058 A 
ATOM     21  C   UNL     1      -4.320  -1.753  23.769  0.00  0.00    +0.013 A 
ATOM     22  C   UNL     1      -1.838  -2.705  24.615  0.00  0.00    +0.121 A 
ATOM     23  C   UNL     1      -4.091  -3.127  23.848  0.00  0.00    +0.004 A 
ATOM     24  C   UNL     1      -2.850  -3.603  24.272  0.00  0.00    +0.045 A 
BRANCH  22   4
ATOM      4  O   UNL     1      -0.628  -3.170  25.028  0.00  0.00    -0.495 OA
ATOM     25  C   UNL     1       0.332  -2.201  25.445  0.00  0.00    +0.277 C 
ENDBRANCH  22   4
ENDBRANCH  14  19
ENDBRANCH   7   5
BRANCH   8   1
ATOM      1  O   UNL     1      -6.785   2.658  24.836  0.00  0.00    -0.387 OA
ATOM     27  H   UNL     1      -6.642   3.306  24.125  0.00  0.00    +0.210 HD
ENDBRANCH   8   1
BRANCH  10   2
ATOM      2  O   UNL     1      -5.767   5.193  25.121  0.00  0.00    -0.389 OA
ATOM     28  H   UNL     1      -5.507   6.078  25.428  0.00  0.00    +0.210 HD
ENDBRANCH  10   2
TORSDOF 6
ENDMDL
