MODEL 1
REMARK VINA RESULT:       7.5      0.000      0.000
REMARK  Name = 11884381
REMARK  7 active torsions:
REMARK  status: ('A' for Active; 'I' for Inactive)
REMARK    1  A    between atoms: O_3  and  C_22
REMARK    2  A    between atoms: O_6  and  C_30
REMARK    3  A    between atoms: O_6  and  C_31
REMARK    4  A    between atoms: N_9  and  C_20
REMARK    5  A    between atoms: C_19  and  C_22
REMARK    6  A    between atoms: C_23  and  C_24
REMARK    7  A    between atoms: C_24  and  C_25
REMARK                            x       y       z     vdW  Elec       q    Type
REMARK                         _______ _______ _______ _____ _____    ______ ____
ROOT
ATOM      1  O   UNL     1      -0.282   1.735  26.091  0.00  0.00    -0.266 OA
ATOM      2  O   UNL     1      -5.613   0.579  24.872  0.00  0.00    -0.263 OA
ATOM      7  N   UNL     1      -1.930   2.795  24.819  0.00  0.00    -0.310 N 
ATOM      8  N   UNL     1      -5.128   2.843  25.194  0.00  0.00    -0.291 N 
ATOM     10  C   UNL     1      -3.457   4.616  25.769  0.00  0.00    +0.027 C 
ATOM     11  C   UNL     1      -3.720   3.902  23.433  0.00  0.00    +0.054 C 
ATOM     12  C   UNL     1      -3.525   5.119  24.333  0.00  0.00    +0.018 C 
ATOM     13  C   UNL     1      -2.222   3.719  25.922  0.00  0.00    +0.130 C 
ATOM     14  C   UNL     1      -4.754   3.882  26.156  0.00  0.00    +0.113 C 
ATOM     15  C   UNL     1      -5.055   3.221  23.780  0.00  0.00    +0.118 C 
ATOM     16  C   UNL     1      -2.580   2.913  23.586  0.00  0.00    +0.027 A 
ATOM     17  C   UNL     1      -2.215   2.135  22.553  0.00  0.00    +0.024 A 
ATOM     18  C   UNL     1      -0.895   1.863  25.030  0.00  0.00    +0.273 A 
ATOM     19  C   UNL     1      -5.653   1.604  25.544  0.00  0.00    +0.324 C 
ATOM     20  C   UNL     1      -0.534   0.999  23.862  0.00  0.00    +0.099 A 
ATOM     21  C   UNL     1      -1.171   1.159  22.697  0.00  0.00    +0.030 A 
ENDROOT
BRANCH  20   9
ATOM      5  O   UNL     1       1.010  -0.231  21.789  0.00  0.00    -0.275 OA
ATOM      9  N   UNL     1       0.454   0.074  24.030  0.00  0.00    -0.281 N 
ATOM     23  C   UNL     1       1.170  -0.488  22.980  0.00  0.00    +0.222 C 
ATOM     32  H   UNL     1       0.500  -0.375  24.941  0.00  0.00    +0.155 HD
BRANCH  23  24
ATOM     24  C   UNL     1       2.200  -1.482  23.485  0.00  0.00    +0.131 C 
BRANCH  24  25
ATOM     25  C   UNL     1       3.602  -0.935  23.498  0.00  0.00    -0.038 A 
ATOM     26  C   UNL     1       4.653  -1.757  23.877  0.00  0.00    +0.007 A 
ATOM     27  C   UNL     1       3.823   0.385  23.132  0.00  0.00    +0.007 A 
ATOM     28  C   UNL     1       5.952  -1.250  23.889  0.00  0.00    +0.046 A 
ATOM     29  C   UNL     1       5.122   0.893  23.145  0.00  0.00    +0.046 A 
ATOM     30  C   UNL     1       6.186   0.076  23.523  0.00  0.00    +0.120 A 
BRANCH  30   6
ATOM      6  O   UNL     1       7.455   0.570  23.535  0.00  0.00    -0.495 OA
ATOM     31  C   UNL     1       8.501  -0.319  23.147  0.00  0.00    +0.277 C 
ENDBRANCH  30   6
ENDBRANCH  24  25
ENDBRANCH  23  24
ENDBRANCH  20   9
BRANCH  19  22
ATOM      4  O   UNL     1      -6.194   0.355  27.484  0.00  0.00    -0.240 OA
ATOM     22  C   UNL     1      -6.369   1.358  26.822  0.00  0.00    +0.392 C 
BRANCH  22   3
ATOM      3  O   UNL     1      -7.181   2.392  27.080  0.00  0.00    -0.474 OA
ATOM     33  H   UNL     1      -7.929   2.142  27.663  0.00  0.00    +0.296 HD
ENDBRANCH  22   3
ENDBRANCH  19  22
TORSDOF 6
ENDMDL
MODEL 2
REMARK VINA RESULT:       8.0      2.086      3.192
REMARK  Name = 11884381
REMARK  7 active torsions:
REMARK  status: ('A' for Active; 'I' for Inactive)
REMARK    1  A    between atoms: O_3  and  C_22
REMARK    2  A    between atoms: O_6  and  C_30
REMARK    3  A    between atoms: O_6  and  C_31
REMARK    4  A    between atoms: N_9  and  C_20
REMARK    5  A    between atoms: C_19  and  C_22
REMARK    6  A    between atoms: C_23  and  C_24
REMARK    7  A    between atoms: C_24  and  C_25
REMARK                            x       y       z     vdW  Elec       q    Type
REMARK                         _______ _______ _______ _____ _____    ______ ____
ROOT
ATOM      1  O   UNL     1      -2.072   1.151  22.123  0.00  0.00    -0.266 OA
ATOM      2  O   UNL     1      -2.256   3.594  27.145  0.00  0.00    -0.263 OA
ATOM      7  N   UNL     1      -3.626   1.178  23.867  0.00  0.00    -0.310 N 
ATOM      8  N   UNL     1      -4.296   3.484  26.011  0.00  0.00    -0.291 N 
ATOM     10  C   UNL     1      -5.576   2.834  23.959  0.00  0.00    +0.027 C 
ATOM     11  C   UNL     1      -5.273   1.206  25.773  0.00  0.00    +0.054 C 
ATOM     12  C   UNL     1      -6.280   1.752  24.765  0.00  0.00    +0.018 C 
ATOM     13  C   UNL     1      -4.425   2.196  23.172  0.00  0.00    +0.130 C 
ATOM     14  C   UNL     1      -5.084   3.970  24.876  0.00  0.00    +0.113 C 
ATOM     15  C   UNL     1      -4.847   2.333  26.730  0.00  0.00    +0.118 C 
ATOM     16  C   UNL     1      -4.054   0.629  25.080  0.00  0.00    +0.027 A 
ATOM     17  C   UNL     1      -3.372  -0.385  25.640  0.00  0.00    +0.024 A 
ATOM     18  C   UNL     1      -2.476   0.711  23.200  0.00  0.00    +0.273 A 
ATOM     19  C   UNL     1      -3.160   4.116  26.502  0.00  0.00    +0.324 C 
ATOM     20  C   UNL     1      -1.731  -0.402  23.869  0.00  0.00    +0.099 A 
ATOM     21  C   UNL     1      -2.187  -0.908  25.020  0.00  0.00    +0.030 A 
ENDROOT
BRANCH  20   9
ATOM      5  O   UNL     1       0.788   0.946  23.686  0.00  0.00    -0.275 OA
ATOM      9  N   UNL     1      -0.603  -0.873  23.262  0.00  0.00    -0.281 N 
ATOM     23  C   UNL     1       0.593  -0.168  23.206  0.00  0.00    +0.222 C 
ATOM     32  H   UNL     1      -0.726  -1.667  22.638  0.00  0.00    +0.155 HD
BRANCH  23  24
ATOM     24  C   UNL     1       1.660  -0.953  22.465  0.00  0.00    +0.131 C 
BRANCH  24  25
ATOM     25  C   UNL     1       3.062  -0.585  22.871  0.00  0.00    -0.038 A 
ATOM     26  C   UNL     1       3.812  -1.477  23.623  0.00  0.00    +0.007 A 
ATOM     27  C   UNL     1       3.584   0.643  22.489  0.00  0.00    +0.007 A 
ATOM     28  C   UNL     1       5.111  -1.135  24.000  0.00  0.00    +0.046 A 
ATOM     29  C   UNL     1       4.882   0.985  22.866  0.00  0.00    +0.046 A 
ATOM     30  C   UNL     1       5.646   0.096  23.621  0.00  0.00    +0.120 A 
BRANCH  30   6
ATOM      6  O   UNL     1       6.914   0.428  23.989  0.00  0.00    -0.495 OA
ATOM     31  C   UNL     1       7.980  -0.194  23.274  0.00  0.00    +0.277 C 
ENDBRANCH  30   6
ENDBRANCH  24  25
ENDBRANCH  23  24
ENDBRANCH  20   9
BRANCH  19  22
ATOM      4  O   UNL     1      -3.513   6.425  26.906  0.00  0.00    -0.240 OA
ATOM     22  C   UNL     1      -2.892   5.566  26.313  0.00  0.00    +0.392 C 
BRANCH  22   3
ATOM      3  O   UNL     1      -1.897   5.720  25.429  0.00  0.00    -0.474 OA
ATOM     33  H   UNL     1      -1.448   6.587  25.522  0.00  0.00    +0.296 HD
ENDBRANCH  22   3
ENDBRANCH  19  22
TORSDOF 6
ENDMDL
