MODEL 1
REMARK VINA RESULT:       1.6      0.000      0.000
REMARK  Name = 11884353
REMARK  5 active torsions:
REMARK  status: ('A' for Active; 'I' for Inactive)
REMARK    1  A    between atoms: O_3  and  C_11
REMARK    2  A    between atoms: O_5  and  C_20
REMARK    3  A    between atoms: O_5  and  C_21
REMARK    4  A    between atoms: N_6  and  C_10
REMARK    5  A    between atoms: N_7  and  C_15
REMARK                            x       y       z     vdW  Elec       q    Type
REMARK                         _______ _______ _______ _____ _____    ______ ____
ROOT
ATOM      4  O   UNL     1      -4.231  -9.101  11.294  0.00  0.00    -0.252 OA
ATOM      6  N   UNL     1      -2.499 -10.512  11.888  0.00  0.00    -0.292 N 
ATOM      7  N   UNL     1      -4.544 -10.781  12.903  0.00  0.00    -0.269 N 
ATOM     14  C   UNL     1      -3.815 -10.040  11.968  0.00  0.00    +0.304 C 
ATOM     27  H   UNL     1      -2.213 -11.250  12.524  0.00  0.00    +0.151 HD
ATOM     29  H   UNL     1      -4.045 -11.530  13.377  0.00  0.00    +0.156 HD
ENDROOT
BRANCH   6  10
ATOM      1  O   UNL     1      -1.375  -7.623  11.555  0.00  0.00    -0.369 OA
ATOM      2  O   UNL     1       0.882  -9.527  10.770  0.00  0.00    -0.369 OA
ATOM      8  C   UNL     1      -0.194  -9.670  11.723  0.00  0.00    +0.172 C 
ATOM      9  C   UNL     1      -0.398  -8.309  12.359  0.00  0.00    +0.179 C 
ATOM     10  C   UNL     1      -1.495  -9.936  10.996  0.00  0.00    +0.131 C 
ATOM     11  C   UNL     1       0.969  -7.682  12.230  0.00  0.00    +0.171 C 
ATOM     12  C   UNL     1      -1.913  -8.533  10.583  0.00  0.00    +0.185 C 
ATOM     13  C   UNL     1       1.439  -8.209  10.894  0.00  0.00    +0.194 C 
BRANCH  11   3
ATOM      3  O   UNL     1       0.947  -6.272  12.265  0.00  0.00    -0.387 OA
ATOM     28  H   UNL     1       0.074  -5.993  12.590  0.00  0.00    +0.210 HD
ENDBRANCH  11   3
ENDBRANCH   6  10
BRANCH   7  15
ATOM     15  C   UNL     1      -5.898 -10.619  13.274  0.00  0.00    +0.035 A 
ATOM     16  C   UNL     1      -6.887 -10.774  12.316  0.00  0.00    +0.027 A 
ATOM     17  C   UNL     1      -6.210 -10.308  14.588  0.00  0.00    +0.027 A 
ATOM     18  C   UNL     1      -8.224 -10.614  12.682  0.00  0.00    +0.048 A 
ATOM     19  C   UNL     1      -7.545 -10.148  14.954  0.00  0.00    +0.048 A 
ATOM     20  C   UNL     1      -8.553 -10.300  14.001  0.00  0.00    +0.129 A 
BRANCH  20   5
ATOM      5  O   UNL     1      -9.857 -10.145  14.358  0.00  0.00    -0.456 OA
BRANCH   5  21
ATOM     21  C   UNL     1     -10.145  -9.245  15.369  0.00  0.00    +0.128 A 
ATOM     22  C   UNL     1     -10.379  -7.920  15.045  0.00  0.00    +0.046 A 
ATOM     23  C   UNL     1     -10.190  -9.691  16.677  0.00  0.00    +0.046 A 
ATOM     24  C   UNL     1     -10.668  -7.012  16.063  0.00  0.00    +0.004 A 
ATOM     25  C   UNL     1     -10.480  -8.782  17.695  0.00  0.00    +0.004 A 
ATOM     26  C   UNL     1     -10.720  -7.443  17.388  0.00  0.00    +0.000 A 
ENDBRANCH   5  21
ENDBRANCH  20   5
ENDBRANCH   7  15
TORSDOF 5
ENDMDL
MODEL 2
REMARK VINA RESULT:       4.5     14.280     15.613
REMARK  Name = 11884353
REMARK  5 active torsions:
REMARK  status: ('A' for Active; 'I' for Inactive)
REMARK    1  A    between atoms: O_3  and  C_11
REMARK    2  A    between atoms: O_5  and  C_20
REMARK    3  A    between atoms: O_5  and  C_21
REMARK    4  A    between atoms: N_6  and  C_10
REMARK    5  A    between atoms: N_7  and  C_15
REMARK                            x       y       z     vdW  Elec       q    Type
REMARK                         _______ _______ _______ _____ _____    ______ ____
ROOT
ATOM      4  O   UNL     1       1.096   0.085  22.682  0.00  0.00    -0.252 OA
ATOM      6  N   UNL     1       2.476  -1.449  23.725  0.00  0.00    -0.292 N 
ATOM      7  N   UNL     1       0.297  -1.261  24.432  0.00  0.00    -0.269 N 
ATOM     14  C   UNL     1       1.257  -0.787  23.533  0.00  0.00    +0.304 C 
ATOM     27  H   UNL     1       2.549  -2.111  24.491  0.00  0.00    +0.151 HD
ATOM     29  H   UNL     1       0.598  -1.989  25.075  0.00  0.00    +0.156 HD
ENDROOT
BRANCH   6  10
ATOM      1  O   UNL     1       4.210   1.115  23.347  0.00  0.00    -0.369 OA
ATOM      2  O   UNL     1       6.093  -1.265  22.988  0.00  0.00    -0.369 OA
ATOM      8  C   UNL     1       4.910  -1.102  23.801  0.00  0.00    +0.172 C 
ATOM      9  C   UNL     1       4.926   0.325  24.313  0.00  0.00    +0.179 C 
ATOM     10  C   UNL     1       3.672  -1.169  22.933  0.00  0.00    +0.131 C 
ATOM     11  C   UNL     1       6.399   0.653  24.320  0.00  0.00    +0.171 C 
ATOM     12  C   UNL     1       3.606   0.246  22.376  0.00  0.00    +0.185 C 
ATOM     13  C   UNL     1       6.895  -0.079  23.094  0.00  0.00    +0.194 C 
BRANCH  11   3
ATOM      3  O   UNL     1       6.668   2.035  24.257  0.00  0.00    -0.387 OA
ATOM     28  H   UNL     1       6.526   2.328  23.341  0.00  0.00    +0.210 HD
ENDBRANCH  11   3
ENDBRANCH   6  10
BRANCH   7  15
ATOM     15  C   UNL     1      -1.049  -0.851  24.560  0.00  0.00    +0.035 A 
ATOM     16  C   UNL     1      -1.328   0.454  24.930  0.00  0.00    +0.027 A 
ATOM     17  C   UNL     1      -2.063  -1.763  24.315  0.00  0.00    +0.027 A 
ATOM     18  C   UNL     1      -2.657   0.860  25.057  0.00  0.00    +0.048 A 
ATOM     19  C   UNL     1      -3.391  -1.359  24.441  0.00  0.00    +0.048 A 
ATOM     20  C   UNL     1      -3.689  -0.047  24.813  0.00  0.00    +0.129 A 
BRANCH  20   5
ATOM      5  O   UNL     1      -4.985   0.348  24.936  0.00  0.00    -0.456 OA
BRANCH   5  21
ATOM     21  C   UNL     1      -5.234   1.700  25.096  0.00  0.00    +0.128 A 
ATOM     22  C   UNL     1      -4.528   2.611  24.330  0.00  0.00    +0.046 A 
ATOM     23  C   UNL     1      -6.180   2.107  26.019  0.00  0.00    +0.046 A 
ATOM     24  C   UNL     1      -4.777   3.973  24.492  0.00  0.00    +0.004 A 
ATOM     25  C   UNL     1      -6.428   3.470  26.181  0.00  0.00    +0.004 A 
ATOM     26  C   UNL     1      -5.728   4.403  25.417  0.00  0.00    +0.000 A 
ENDBRANCH   5  21
ENDBRANCH  20   5
ENDBRANCH   7  15
TORSDOF 5
ENDMDL
MODEL 3
REMARK VINA RESULT:       4.5     15.189     16.403
REMARK  Name = 11884353
REMARK  5 active torsions:
REMARK  status: ('A' for Active; 'I' for Inactive)
REMARK    1  A    between atoms: O_3  and  C_11
REMARK    2  A    between atoms: O_5  and  C_20
REMARK    3  A    between atoms: O_5  and  C_21
REMARK    4  A    between atoms: N_6  and  C_10
REMARK    5  A    between atoms: N_7  and  C_15
REMARK                            x       y       z     vdW  Elec       q    Type
REMARK                         _______ _______ _______ _____ _____    ______ ____
ROOT
ATOM      4  O   UNL     1       0.406   0.147  23.609  0.00  0.00    -0.252 OA
ATOM      6  N   UNL     1       2.453   1.148  23.217  0.00  0.00    -0.292 N 
ATOM      7  N   UNL     1       0.670   2.471  23.812  0.00  0.00    -0.269 N 
ATOM     14  C   UNL     1       1.094   1.164  23.556  0.00  0.00    +0.304 C 
ATOM     27  H   UNL     1       2.938   2.036  23.132  0.00  0.00    +0.151 HD
ATOM     29  H   UNL     1       1.371   3.201  23.723  0.00  0.00    +0.156 HD
ENDROOT
BRANCH   6  10
ATOM      1  O   UNL     1       5.338   0.624  22.159  0.00  0.00    -0.369 OA
ATOM      2  O   UNL     1       4.585  -1.802  23.858  0.00  0.00    -0.369 OA
ATOM      8  C   UNL     1       4.203  -0.413  23.961  0.00  0.00    +0.172 C 
ATOM      9  C   UNL     1       5.420   0.404  23.579  0.00  0.00    +0.179 C 
ATOM     10  C   UNL     1       3.183  -0.076  22.895  0.00  0.00    +0.131 C 
ATOM     11  C   UNL     1       6.559  -0.521  23.935  0.00  0.00    +0.171 C 
ATOM     12  C   UNL     1       4.069   0.154  21.679  0.00  0.00    +0.185 C 
ATOM     13  C   UNL     1       5.992  -1.877  23.581  0.00  0.00    +0.194 C 
BRANCH  11   3
ATOM      3  O   UNL     1       7.749  -0.245  23.232  0.00  0.00    -0.387 OA
ATOM     28  H   UNL     1       8.074   0.625  23.521  0.00  0.00    +0.210 HD
ENDBRANCH  11   3
ENDBRANCH   6  10
BRANCH   7  15
ATOM     15  C   UNL     1      -0.622   2.908  24.182  0.00  0.00    +0.035 A 
ATOM     16  C   UNL     1      -1.731   2.316  23.599  0.00  0.00    +0.027 A 
ATOM     17  C   UNL     1      -0.755   3.919  25.120  0.00  0.00    +0.027 A 
ATOM     18  C   UNL     1      -3.007   2.747  23.965  0.00  0.00    +0.048 A 
ATOM     19  C   UNL     1      -2.029   4.350  25.485  0.00  0.00    +0.048 A 
ATOM     20  C   UNL     1      -3.156   3.765  24.907  0.00  0.00    +0.129 A 
BRANCH  20   5
ATOM      5  O   UNL     1      -4.400   4.184  25.264  0.00  0.00    -0.456 OA
BRANCH   5  21
ATOM     21  C   UNL     1      -5.333   3.218  25.603  0.00  0.00    +0.128 A 
ATOM     22  C   UNL     1      -5.633   3.012  26.937  0.00  0.00    +0.046 A 
ATOM     23  C   UNL     1      -5.938   2.484  24.600  0.00  0.00    +0.046 A 
ATOM     24  C   UNL     1      -6.572   2.038  27.280  0.00  0.00    +0.004 A 
ATOM     25  C   UNL     1      -6.877   1.511  24.943  0.00  0.00    +0.004 A 
ATOM     26  C   UNL     1      -7.194   1.288  26.283  0.00  0.00    +0.000 A 
ENDBRANCH   5  21
ENDBRANCH  20   5
ENDBRANCH   7  15
TORSDOF 5
ENDMDL
