MODEL 1
REMARK VINA RESULT:       3.6      0.000      0.000
REMARK  Name = 75537033
REMARK  4 active torsions:
REMARK  status: ('A' for Active; 'I' for Inactive)
REMARK    1  A    between atoms: N_5  and  C_15
REMARK    2  A    between atoms: N_7  and  C_22
REMARK    3  A    between atoms: C_15  and  C_17
REMARK    4  A    between atoms: C_16  and  C_18
REMARK                            x       y       z     vdW  Elec       q    Type
REMARK                         _______ _______ _______ _____ _____    ______ ____
ROOT
ATOM      2  O   UNL     1       2.335  -1.085  23.574  0.00  0.00    -0.252 OA
ATOM      3  O   UNL     1      -4.512  -1.063  24.961  0.00  0.00    -0.270 OA
ATOM      4  N   UNL     1       0.198  -0.265  24.105  0.00  0.00    -0.278 N 
ATOM      5  N   UNL     1       1.793   1.210  23.533  0.00  0.00    -0.276 N 
ATOM      6  N   UNL     1      -2.576  -0.112  24.062  0.00  0.00    -0.294 N 
ATOM      9  C   UNL     1      -0.421   1.036  24.294  0.00  0.00    +0.112 C 
ATOM     10  C   UNL     1       0.594   2.010  23.701  0.00  0.00    +0.134 C 
ATOM     11  C   UNL     1      -1.797   1.065  23.634  0.00  0.00    +0.132 C 
ATOM     12  C   UNL     1      -0.549  -1.473  24.412  0.00  0.00    +0.128 C 
ATOM     13  C   UNL     1      -1.938  -1.405  23.779  0.00  0.00    +0.127 C 
ATOM     14  C   UNL     1       1.543  -0.164  23.723  0.00  0.00    +0.306 C 
ATOM     16  C   UNL     1      -3.844  -0.080  24.645  0.00  0.00    +0.247 C 
ENDROOT
BRANCH  16  18
ATOM      1 CL   UNL     1      -6.288   5.256  25.785  0.00  0.00    -0.084 Cl
ATOM     18  C   UNL     1      -4.444   1.230  24.924  0.00  0.00    +0.037 A 
ATOM     20  C   UNL     1      -3.808   2.395  24.495  0.00  0.00    +0.014 A 
ATOM     21  C   UNL     1      -5.651   1.311  25.619  0.00  0.00    +0.014 A 
ATOM     24  C   UNL     1      -4.377   3.640  24.761  0.00  0.00    +0.021 A 
ATOM     25  C   UNL     1      -6.221   2.556  25.886  0.00  0.00    +0.021 A 
ATOM     26  C   UNL     1      -5.584   3.720  25.456  0.00  0.00    +0.041 A 
ENDBRANCH  16  18
BRANCH   5  15
ATOM     15  C   UNL     1       3.042   1.787  23.089  0.00  0.00    +0.183 C 
BRANCH  15  17
ATOM      7  N   UNL     1       4.784   0.103  22.422  0.00  0.00    -0.336 N 
ATOM      8  N   UNL     1       4.808   0.756  24.544  0.00  0.00    -0.239 NA
ATOM     17  C   UNL     1       4.212   0.891  23.381  0.00  0.00    +0.127 A 
ATOM     19  C   UNL     1       5.811  -0.578  23.011  0.00  0.00    +0.106 A 
ATOM     22  C   UNL     1       4.389  -0.003  21.037  0.00  0.00    +0.150 C 
ATOM     23  C   UNL     1       5.806  -0.159  24.320  0.00  0.00    +0.130 A 
ENDBRANCH  15  17
ENDBRANCH   5  15
TORSDOF 3
ENDMDL
MODEL 2
REMARK VINA RESULT:       4.1      1.685      2.474
REMARK  Name = 75537033
REMARK  4 active torsions:
REMARK  status: ('A' for Active; 'I' for Inactive)
REMARK    1  A    between atoms: N_5  and  C_15
REMARK    2  A    between atoms: N_7  and  C_22
REMARK    3  A    between atoms: C_15  and  C_17
REMARK    4  A    between atoms: C_16  and  C_18
REMARK                            x       y       z     vdW  Elec       q    Type
REMARK                         _______ _______ _______ _____ _____    ______ ____
ROOT
ATOM      2  O   UNL     1       0.409  -3.085  25.539  0.00  0.00    -0.252 OA
ATOM      3  O   UNL     1      -5.405   0.759  26.024  0.00  0.00    -0.270 OA
ATOM      4  N   UNL     1      -1.048  -1.256  25.307  0.00  0.00    -0.278 N 
ATOM      5  N   UNL     1       0.877  -1.238  24.148  0.00  0.00    -0.276 N 
ATOM      6  N   UNL     1      -3.458   0.074  24.927  0.00  0.00    -0.294 N 
ATOM      9  C   UNL     1      -1.019   0.046  24.663  0.00  0.00    +0.112 C 
ATOM     10  C   UNL     1       0.176  -0.042  23.718  0.00  0.00    +0.134 C 
ATOM     11  C   UNL     1      -2.355   0.325  23.980  0.00  0.00    +0.132 C 
ATOM     12  C   UNL     1      -2.156  -1.609  26.177  0.00  0.00    +0.128 C 
ATOM     13  C   UNL     1      -3.483  -1.283  25.492  0.00  0.00    +0.127 C 
ATOM     14  C   UNL     1       0.118  -1.995  25.062  0.00  0.00    +0.306 C 
ATOM     16  C   UNL     1      -4.461   0.983  25.268  0.00  0.00    +0.247 C 
ENDROOT
BRANCH  16  18
ATOM      1 CL   UNL     1      -4.193   6.480  22.931  0.00  0.00    -0.084 Cl
ATOM     18  C   UNL     1      -4.395   2.333  24.694  0.00  0.00    +0.037 A 
ATOM     20  C   UNL     1      -4.793   3.433  25.453  0.00  0.00    +0.014 A 
ATOM     21  C   UNL     1      -3.934   2.515  23.390  0.00  0.00    +0.014 A 
ATOM     24  C   UNL     1      -4.731   4.716  24.908  0.00  0.00    +0.021 A 
ATOM     25  C   UNL     1      -3.872   3.797  22.845  0.00  0.00    +0.021 A 
ATOM     26  C   UNL     1      -4.271   4.898  23.604  0.00  0.00    +0.041 A 
ENDBRANCH  16  18
BRANCH   5  15
ATOM     15  C   UNL     1       2.143  -1.632  23.573  0.00  0.00    +0.183 C 
BRANCH  15  17
ATOM      7  N   UNL     1       4.347  -0.427  23.506  0.00  0.00    -0.336 N 
ATOM      8  N   UNL     1       2.600   0.674  22.691  0.00  0.00    -0.239 NA
ATOM     17  C   UNL     1       3.006  -0.447  23.245  0.00  0.00    +0.127 A 
ATOM     19  C   UNL     1       4.828   0.782  23.091  0.00  0.00    +0.106 A 
ATOM     22  C   UNL     1       5.129  -1.482  24.107  0.00  0.00    +0.150 C 
ATOM     23  C   UNL     1       3.731   1.444  22.593  0.00  0.00    +0.130 A 
ENDBRANCH  15  17
ENDBRANCH   5  15
TORSDOF 3
ENDMDL
MODEL 3
REMARK VINA RESULT:       5.8      3.600      8.357
REMARK  Name = 75537033
REMARK  4 active torsions:
REMARK  status: ('A' for Active; 'I' for Inactive)
REMARK    1  A    between atoms: N_5  and  C_15
REMARK    2  A    between atoms: N_7  and  C_22
REMARK    3  A    between atoms: C_15  and  C_17
REMARK    4  A    between atoms: C_16  and  C_18
REMARK                            x       y       z     vdW  Elec       q    Type
REMARK                         _______ _______ _______ _____ _____    ______ ____
ROOT
ATOM      2  O   UNL     1      -3.758   3.016  23.568  0.00  0.00    -0.252 OA
ATOM      3  O   UNL     1       1.442  -0.665  20.700  0.00  0.00    -0.270 OA
ATOM      4  N   UNL     1      -1.622   2.081  23.274  0.00  0.00    -0.278 N 
ATOM      5  N   UNL     1      -2.108   3.026  25.253  0.00  0.00    -0.276 N 
ATOM      6  N   UNL     1       0.272   0.186  22.535  0.00  0.00    -0.294 N 
ATOM      9  C   UNL     1      -0.378   2.026  24.022  0.00  0.00    +0.112 C 
ATOM     10  C   UNL     1      -0.778   2.471  25.426  0.00  0.00    +0.134 C 
ATOM     11  C   UNL     1       0.222   0.625  23.942  0.00  0.00    +0.132 C 
ATOM     12  C   UNL     1      -1.671   1.575  21.913  0.00  0.00    +0.128 C 
ATOM     13  C   UNL     1      -1.027   0.191  21.846  0.00  0.00    +0.127 C 
ATOM     14  C   UNL     1      -2.636   2.746  23.978  0.00  0.00    +0.306 C 
ATOM     16  C   UNL     1       1.410  -0.259  21.860  0.00  0.00    +0.247 C 
ENDROOT
BRANCH  16  18
ATOM      1 CL   UNL     1       6.629  -0.166  24.774  0.00  0.00    -0.084 Cl
ATOM     18  C   UNL     1       2.691  -0.236  22.576  0.00  0.00    +0.037 A 
ATOM     20  C   UNL     1       3.480   0.914  22.557  0.00  0.00    +0.014 A 
ATOM     21  C   UNL     1       3.120  -1.364  23.275  0.00  0.00    +0.014 A 
ATOM     24  C   UNL     1       4.699   0.936  23.237  0.00  0.00    +0.021 A 
ATOM     25  C   UNL     1       4.338  -1.343  23.955  0.00  0.00    +0.021 A 
ATOM     26  C   UNL     1       5.127  -0.192  23.936  0.00  0.00    +0.041 A 
ENDBRANCH  16  18
BRANCH   5  15
ATOM     15  C   UNL     1      -2.818   3.666  26.338  0.00  0.00    +0.183 C 
BRANCH  15  17
ATOM      7  N   UNL     1      -5.057   2.585  25.979  0.00  0.00    -0.336 N 
ATOM      8  N   UNL     1      -5.022   4.805  25.958  0.00  0.00    -0.239 NA
ATOM     17  C   UNL     1      -4.298   3.716  26.092  0.00  0.00    +0.127 A 
ATOM     19  C   UNL     1      -6.347   2.976  25.760  0.00  0.00    +0.106 A 
ATOM     22  C   UNL     1      -4.597   1.219  26.072  0.00  0.00    +0.150 C 
ATOM     23  C   UNL     1      -6.300   4.351  25.751  0.00  0.00    +0.130 A 
ENDBRANCH  15  17
ENDBRANCH   5  15
TORSDOF 3
ENDMDL
MODEL 4
REMARK VINA RESULT:       6.3      2.862      3.702
REMARK  Name = 75537033
REMARK  4 active torsions:
REMARK  status: ('A' for Active; 'I' for Inactive)
REMARK    1  A    between atoms: N_5  and  C_15
REMARK    2  A    between atoms: N_7  and  C_22
REMARK    3  A    between atoms: C_15  and  C_17
REMARK    4  A    between atoms: C_16  and  C_18
REMARK                            x       y       z     vdW  Elec       q    Type
REMARK                         _______ _______ _______ _____ _____    ______ ____
ROOT
ATOM      2  O   UNL     1       3.066   2.766  23.182  0.00  0.00    -0.252 OA
ATOM      3  O   UNL     1      -3.319   1.707  25.814  0.00  0.00    -0.270 OA
ATOM      4  N   UNL     1       0.996   1.731  23.593  0.00  0.00    -0.278 N 
ATOM      5  N   UNL     1       2.592   0.545  22.546  0.00  0.00    -0.276 N 
ATOM      6  N   UNL     1      -1.243   0.958  25.044  0.00  0.00    -0.294 N 
ATOM      9  C   UNL     1       0.351   0.477  23.243  0.00  0.00    +0.112 C 
ATOM     10  C   UNL     1       1.498  -0.391  22.731  0.00  0.00    +0.134 C 
ATOM     11  C   UNL     1      -0.389  -0.089  24.452  0.00  0.00    +0.132 C 
ATOM     12  C   UNL     1       0.239   2.770  24.268  0.00  0.00    +0.128 C 
ATOM     13  C   UNL     1      -0.528   2.176  25.448  0.00  0.00    +0.127 C 
ATOM     14  C   UNL     1       2.311   1.804  23.112  0.00  0.00    +0.306 C 
ATOM     16  C   UNL     1      -2.615   0.851  25.280  0.00  0.00    +0.247 C 
ENDROOT
BRANCH  16  18
ATOM      1 CL   UNL     1      -5.395  -4.143  23.526  0.00  0.00    -0.084 Cl
ATOM     18  C   UNL     1      -3.298  -0.375  24.850  0.00  0.00    +0.037 A 
ATOM     20  C   UNL     1      -3.009  -1.589  25.472  0.00  0.00    +0.014 A 
ATOM     21  C   UNL     1      -4.236  -0.326  23.818  0.00  0.00    +0.014 A 
ATOM     24  C   UNL     1      -3.657  -2.755  25.063  0.00  0.00    +0.021 A 
ATOM     25  C   UNL     1      -4.884  -1.491  23.408  0.00  0.00    +0.021 A 
ATOM     26  C   UNL     1      -4.595  -2.706  24.031  0.00  0.00    +0.041 A 
ENDBRANCH  16  18
BRANCH   5  15
ATOM     15  C   UNL     1       3.853   0.142  21.965  0.00  0.00    +0.183 C 
BRANCH  15  17
ATOM      7  N   UNL     1       5.020  -1.055  23.840  0.00  0.00    -0.336 N 
ATOM      8  N   UNL     1       5.899   0.886  23.215  0.00  0.00    -0.239 NA
ATOM     17  C   UNL     1       4.936   0.018  22.998  0.00  0.00    +0.127 A 
ATOM     19  C   UNL     1       6.105  -0.860  24.646  0.00  0.00    +0.106 A 
ATOM     22  C   UNL     1       4.133  -2.194  23.885  0.00  0.00    +0.150 C 
ATOM     23  C   UNL     1       6.631   0.345  24.241  0.00  0.00    +0.130 A 
ENDBRANCH  15  17
ENDBRANCH   5  15
TORSDOF 3
ENDMDL
MODEL 5
REMARK VINA RESULT:       7.1      2.203      2.869
REMARK  Name = 75537033
REMARK  4 active torsions:
REMARK  status: ('A' for Active; 'I' for Inactive)
REMARK    1  A    between atoms: N_5  and  C_15
REMARK    2  A    between atoms: N_7  and  C_22
REMARK    3  A    between atoms: C_15  and  C_17
REMARK    4  A    between atoms: C_16  and  C_18
REMARK                            x       y       z     vdW  Elec       q    Type
REMARK                         _______ _______ _______ _____ _____    ______ ____
ROOT
ATOM      2  O   UNL     1       2.839   1.768  23.878  0.00  0.00    -0.252 OA
ATOM      3  O   UNL     1      -3.021   4.452  26.574  0.00  0.00    -0.270 OA
ATOM      4  N   UNL     1       0.546   2.112  24.260  0.00  0.00    -0.278 N 
ATOM      5  N   UNL     1       1.171   0.298  23.091  0.00  0.00    -0.276 N 
ATOM      6  N   UNL     1      -1.758   2.690  25.702  0.00  0.00    -0.294 N 
ATOM      9  C   UNL     1      -0.702   1.502  23.833  0.00  0.00    +0.112 C 
ATOM     10  C   UNL     1      -0.268   0.169  23.231  0.00  0.00    +0.134 C 
ATOM     11  C   UNL     1      -1.663   1.389  25.013  0.00  0.00    +0.132 C 
ATOM     12  C   UNL     1       0.524   3.344  25.029  0.00  0.00    +0.128 C 
ATOM     13  C   UNL     1      -0.475   3.225  26.179  0.00  0.00    +0.127 C 
ATOM     14  C   UNL     1       1.667   1.437  23.755  0.00  0.00    +0.306 C 
ATOM     16  C   UNL     1      -2.938   3.389  25.962  0.00  0.00    +0.247 C 
ENDROOT
BRANCH  16  18
ATOM      1 CL   UNL     1      -8.071   1.111  23.910  0.00  0.00    -0.084 Cl
ATOM     18  C   UNL     1      -4.198   2.830  25.458  0.00  0.00    +0.037 A 
ATOM     20  C   UNL     1      -5.394   3.523  25.647  0.00  0.00    +0.014 A 
ATOM     21  C   UNL     1      -4.200   1.605  24.790  0.00  0.00    +0.014 A 
ATOM     24  C   UNL     1      -6.592   2.991  25.169  0.00  0.00    +0.021 A 
ATOM     25  C   UNL     1      -5.398   1.073  24.311  0.00  0.00    +0.021 A 
ATOM     26  C   UNL     1      -6.594   1.767  24.500  0.00  0.00    +0.041 A 
ENDBRANCH  16  18
BRANCH   5  15
ATOM     15  C   UNL     1       1.972  -0.721  22.451  0.00  0.00    +0.183 C 
BRANCH  15  17
ATOM      7  N   UNL     1       4.342   0.104  22.582  0.00  0.00    -0.336 N 
ATOM      8  N   UNL     1       3.821  -1.602  23.903  0.00  0.00    -0.239 NA
ATOM     17  C   UNL     1       3.371  -0.763  22.997  0.00  0.00    +0.127 A 
ATOM     19  C   UNL     1       5.484  -0.199  23.267  0.00  0.00    +0.106 A 
ATOM     22  C   UNL     1       4.204   1.155  21.601  0.00  0.00    +0.150 C 
ATOM     23  C   UNL     1       5.137  -1.256  24.076  0.00  0.00    +0.130 A 
ENDBRANCH  15  17
ENDBRANCH   5  15
TORSDOF 3
ENDMDL
