MODEL 1
REMARK VINA RESULT:      -1.7      0.000      0.000
REMARK  Name = 28961242
REMARK  11 active torsions:
REMARK  status: ('A' for Active; 'I' for Inactive)
REMARK    1  A    between atoms: O_4  and  C_11
REMARK    2  A    between atoms: O_5  and  C_18
REMARK    3  A    between atoms: N_6  and  C_9
REMARK    4  A    between atoms: N_7  and  C_21
REMARK    5  A    between atoms: N_8  and  C_13
REMARK    6  A    between atoms: N_8  and  C_19
REMARK    7  A    between atoms: N_8  and  C_20
REMARK    8  A    between atoms: C_10  and  C_13
REMARK    9  A    between atoms: C_12  and  C_18
REMARK   10  A    between atoms: C_19  and  C_22
REMARK   11  A    between atoms: C_20  and  C_23
REMARK                            x       y       z     vdW  Elec       q    Type
REMARK                         _______ _______ _______ _____ _____    ______ ____
ROOT
ATOM     13  C   UNL     1      -1.295   1.018  23.461  0.00  0.00    +0.118 C 
ENDROOT
BRANCH  13  10
ATOM      3  O   UNL     1      -1.542  -1.358  23.533  0.00  0.00    -0.366 OA
ATOM      9  C   UNL     1      -3.384  -0.169  24.460  0.00  0.00    +0.118 C 
ATOM     10  C   UNL     1      -2.292  -0.132  23.383  0.00  0.00    +0.152 C 
ATOM     11  C   UNL     1      -2.783  -1.069  25.528  0.00  0.00    +0.165 C 
ATOM     12  C   UNL     1      -2.060  -2.092  24.659  0.00  0.00    +0.174 C 
BRANCH   9   6
ATOM      6  N   UNL     1      -3.867   1.126  24.934  0.00  0.00    -0.292 NA
ATOM      7  N   UNL     1      -5.783   3.290  25.009  0.00  0.00    -0.303 NA
ATOM     14  C   UNL     1      -3.984   2.079  23.824  0.00  0.00    +0.100 C 
ATOM     15  C   UNL     1      -5.156   0.982  25.624  0.00  0.00    +0.100 C 
ATOM     16  C   UNL     1      -4.494   3.436  24.320  0.00  0.00    +0.099 C 
ATOM     17  C   UNL     1      -5.664   2.338  26.120  0.00  0.00    +0.099 C 
ATOM     21  C   UNL     1      -6.267   4.585  25.482  0.00  0.00    +0.105 C 
ENDBRANCH   9   6
BRANCH  11   4
ATOM      4  O   UNL     1      -1.853  -0.364  26.340  0.00  0.00    -0.388 OA
ATOM     34  H   UNL     1      -1.055  -0.914  26.420  0.00  0.00    +0.210 HD
ENDBRANCH  11   4
BRANCH  12  18
ATOM     18  C   UNL     1      -0.925  -2.838  25.336  0.00  0.00    +0.190 C 
BRANCH  18   5
ATOM      5  O   UNL     1       0.162  -1.946  25.527  0.00  0.00    -0.392 OA
ATOM     35  H   UNL     1       0.118  -1.633  26.446  0.00  0.00    +0.210 HD
ENDBRANCH  18   5
ENDBRANCH  12  18
ENDBRANCH  13  10
BRANCH  13   8
ATOM      8  N   UNL     1       0.031   0.536  23.818  0.00  0.00    -0.291 NA
BRANCH   8  19
ATOM     19  C   UNL     1       0.750   1.534  24.613  0.00  0.00    +0.120 C 
BRANCH  19  22
ATOM      1 CL   UNL     1      -2.964   3.975  27.333  0.00  0.00    -0.084 Cl
ATOM     22  C   UNL     1      -0.077   2.771  24.841  0.00  0.00    -0.032 A 
ATOM     24  C   UNL     1      -1.026   2.798  25.863  0.00  0.00    +0.025 A 
ATOM     25  C   UNL     1       0.105   3.891  24.030  0.00  0.00    +0.005 A 
ATOM     28  C   UNL     1      -1.793   3.943  26.073  0.00  0.00    +0.041 A 
ATOM     29  C   UNL     1      -0.662   5.038  24.240  0.00  0.00    +0.002 A 
ATOM     32  C   UNL     1      -1.611   5.063  25.262  0.00  0.00    +0.020 A 
ENDBRANCH  19  22
ENDBRANCH   8  19
BRANCH   8  20
ATOM     20  C   UNL     1       0.800   0.198  22.617  0.00  0.00    +0.120 C 
BRANCH  20  23
ATOM      2 CL   UNL     1       6.676  -0.328  23.794  0.00  0.00    -0.084 Cl
ATOM     23  C   UNL     1       2.271   0.066  22.911  0.00  0.00    -0.033 A 
ATOM     26  C   UNL     1       3.130   1.135  22.661  0.00  0.00    +0.006 A 
ATOM     27  C   UNL     1       2.774  -1.126  23.433  0.00  0.00    +0.006 A 
ATOM     30  C   UNL     1       4.492   1.013  22.934  0.00  0.00    +0.020 A 
ATOM     31  C   UNL     1       4.136  -1.248  23.705  0.00  0.00    +0.020 A 
ATOM     33  C   UNL     1       4.995  -0.179  23.455  0.00  0.00    +0.041 A 
ENDBRANCH  20  23
ENDBRANCH   8  20
ENDBRANCH  13   8
TORSDOF 10
ENDMDL
MODEL 2
REMARK VINA RESULT:       1.0      1.276      4.942
REMARK  Name = 28961242
REMARK  11 active torsions:
REMARK  status: ('A' for Active; 'I' for Inactive)
REMARK    1  A    between atoms: O_4  and  C_11
REMARK    2  A    between atoms: O_5  and  C_18
REMARK    3  A    between atoms: N_6  and  C_9
REMARK    4  A    between atoms: N_7  and  C_21
REMARK    5  A    between atoms: N_8  and  C_13
REMARK    6  A    between atoms: N_8  and  C_19
REMARK    7  A    between atoms: N_8  and  C_20
REMARK    8  A    between atoms: C_10  and  C_13
REMARK    9  A    between atoms: C_12  and  C_18
REMARK   10  A    between atoms: C_19  and  C_22
REMARK   11  A    between atoms: C_20  and  C_23
REMARK                            x       y       z     vdW  Elec       q    Type
REMARK                         _______ _______ _______ _____ _____    ______ ____
ROOT
ATOM     13  C   UNL     1      -1.308   0.035  24.529  0.00  0.00    +0.118 C 
ENDROOT
BRANCH  13  10
ATOM      3  O   UNL     1      -2.393  -1.876  23.586  0.00  0.00    -0.366 OA
ATOM      9  C   UNL     1      -3.829  -0.000  23.884  0.00  0.00    +0.118 C 
ATOM     10  C   UNL     1      -2.392  -0.430  23.563  0.00  0.00    +0.152 C 
ATOM     11  C   UNL     1      -4.368  -1.174  24.687  0.00  0.00    +0.165 C 
ATOM     12  C   UNL     1      -3.704  -2.339  23.962  0.00  0.00    +0.174 C 
BRANCH   9   6
ATOM      6  N   UNL     1      -3.986   1.310  24.511  0.00  0.00    -0.292 NA
ATOM      7  N   UNL     1      -5.397   3.791  24.974  0.00  0.00    -0.303 NA
ATOM     14  C   UNL     1      -4.009   2.374  23.500  0.00  0.00    +0.100 C 
ATOM     15  C   UNL     1      -5.205   1.354  25.329  0.00  0.00    +0.100 C 
ATOM     16  C   UNL     1      -4.177   3.748  24.157  0.00  0.00    +0.099 C 
ATOM     17  C   UNL     1      -5.373   2.727  25.986  0.00  0.00    +0.099 C 
ATOM     21  C   UNL     1      -5.556   5.102  25.600  0.00  0.00    +0.105 C 
ENDBRANCH   9   6
BRANCH  11   4
ATOM      4  O   UNL     1      -3.934  -1.121  26.040  0.00  0.00    -0.388 OA
ATOM     34  H   UNL     1      -4.619  -0.658  26.551  0.00  0.00    +0.210 HD
ENDBRANCH  11   4
BRANCH  12  18
ATOM     18  C   UNL     1      -3.571  -3.619  24.767  0.00  0.00    +0.190 C 
BRANCH  18   5
ATOM      5  O   UNL     1      -2.574  -3.436  25.759  0.00  0.00    -0.392 OA
ATOM     35  H   UNL     1      -2.904  -2.761  26.376  0.00  0.00    +0.210 HD
ENDBRANCH  18   5
ENDBRANCH  12  18
ENDBRANCH  13  10
BRANCH  13   8
ATOM      8  N   UNL     1      -0.129   0.493  23.809  0.00  0.00    -0.291 NA
BRANCH   8  19
ATOM     19  C   UNL     1       0.714  -0.639  23.419  0.00  0.00    +0.120 C 
BRANCH  19  22
ATOM      1 CL   UNL     1       5.748  -1.703  24.248  0.00  0.00    -0.084 Cl
ATOM     22  C   UNL     1       2.157  -0.237  23.269  0.00  0.00    -0.032 A 
ATOM     24  C   UNL     1       3.166  -1.060  23.769  0.00  0.00    +0.025 A 
ATOM     25  C   UNL     1       2.486   0.957  22.629  0.00  0.00    +0.005 A 
ATOM     28  C   UNL     1       4.503  -0.688  23.630  0.00  0.00    +0.041 A 
ATOM     29  C   UNL     1       3.823   1.330  22.489  0.00  0.00    +0.002 A 
ATOM     32  C   UNL     1       4.832   0.507  22.991  0.00  0.00    +0.020 A 
ENDBRANCH  19  22
ENDBRANCH   8  19
BRANCH   8  20
ATOM     20  C   UNL     1       0.640   1.439  24.623  0.00  0.00    +0.120 C 
BRANCH  20  23
ATOM      2 CL   UNL     1      -2.273   6.651  25.359  0.00  0.00    -0.084 Cl
ATOM     23  C   UNL     1      -0.090   2.743  24.807  0.00  0.00    -0.033 A 
ATOM     26  C   UNL     1      -0.946   2.916  25.894  0.00  0.00    +0.006 A 
ATOM     27  C   UNL     1       0.090   3.778  23.889  0.00  0.00    +0.006 A 
ATOM     30  C   UNL     1      -1.622   4.124  26.064  0.00  0.00    +0.020 A 
ATOM     31  C   UNL     1      -0.585   4.986  24.059  0.00  0.00    +0.020 A 
ATOM     33  C   UNL     1      -1.442   5.159  25.147  0.00  0.00    +0.041 A 
ENDBRANCH  20  23
ENDBRANCH   8  20
ENDBRANCH  13   8
TORSDOF 10
ENDMDL
