MODEL 1
REMARK VINA RESULT:      -4.2      0.000      0.000
REMARK  Name = 38028017
REMARK  10 active torsions:
REMARK  status: ('A' for Active; 'I' for Inactive)
REMARK    1  A    between atoms: N_3  and  C_13
REMARK    2  A    between atoms: N_5  and  C_30
REMARK    3  A    between atoms: C_6  and  C_10
REMARK    4  A    between atoms: C_7  and  C_13
REMARK    5  A    between atoms: C_9  and  C_14
REMARK    6  A    between atoms: C_10  and  C_15
REMARK    7  A    between atoms: C_10  and  C_16
REMARK    8  A    between atoms: C_11  and  C_18
REMARK    9  A    between atoms: C_14  and  C_19
REMARK   10  A    between atoms: C_17  and  C_22
REMARK                            x       y       z     vdW  Elec       q    Type
REMARK                         _______ _______ _______ _____ _____    ______ ____
ROOT
ATOM      6  C   UNL     1      -1.310   0.388  24.846  0.00  0.00    +0.000 C 
ATOM      7  C   UNL     1      -0.694  -0.907  24.260  0.00  0.00    +0.032 C 
ATOM      8  C   UNL     1      -2.356   0.047  25.918  0.00  0.00    +0.012 C 
ATOM      9  C   UNL     1      -3.497  -0.827  25.362  0.00  0.00    +0.023 C 
ATOM     11  C   UNL     1      -2.969  -1.985  24.539  0.00  0.00    -0.073 C 
ATOM     12  C   UNL     1      -1.710  -2.009  24.066  0.00  0.00    -0.022 C 
ATOM     18  C   UNL     1      -3.909  -3.135  24.309  0.00  0.00    +0.039 C 
ENDROOT
BRANCH   6  10
ATOM     10  C   UNL     1      -0.238   1.308  25.441  0.00  0.00    -0.013 C 
ATOM     15  C   UNL     1       0.389   2.169  24.350  0.00  0.00    +0.007 C 
ATOM     16  C   UNL     1      -0.837   2.178  26.541  0.00  0.00    +0.007 C 
ENDBRANCH   6  10
BRANCH   7  13
ATOM     13  C   UNL     1       0.016  -0.629  22.930  0.00  0.00    +0.112 C 
BRANCH  13   3
ATOM      2  O   UNL     1       2.040  -0.184  20.897  0.00  0.00    -0.276 OA
ATOM      3  N   UNL     1       1.434  -0.594  23.110  0.00  0.00    -0.315 N 
ATOM     22  C   UNL     1       2.339  -0.374  22.074  0.00  0.00    +0.216 C 
ATOM     31  H   UNL     1       1.785  -0.637  24.061  0.00  0.00    +0.149 HD
BRANCH  22  17
ATOM     17  C   UNL     1       3.763  -0.363  22.540  0.00  0.00    +0.075 C 
ATOM     20  C   UNL     1       4.143   1.040  23.016  0.00  0.00    +0.013 C 
ATOM     21  C   UNL     1       3.938  -1.399  23.652  0.00  0.00    +0.013 C 
ATOM     23  C   UNL     1       5.555   1.070  23.596  0.00  0.00    +0.001 C 
ATOM     24  C   UNL     1       5.349  -1.365  24.233  0.00  0.00    +0.001 C 
ATOM     25  C   UNL     1       5.730   0.036  24.705  0.00  0.00    +0.000 C 
ENDBRANCH  22  17
ENDBRANCH  13   3
ENDBRANCH   7  13
BRANCH   9  14
ATOM     14  C   UNL     1      -4.491   0.014  24.554  0.00  0.00    +0.103 C 
BRANCH  14  19
ATOM      1  O   UNL     1      -5.694   1.072  26.301  0.00  0.00    -0.276 OA
ATOM      4  N   UNL     1      -4.380   2.446  24.965  0.00  0.00    -0.299 N 
ATOM      5  N   UNL     1      -2.771   4.806  24.740  0.00  0.00    -0.302 NA
ATOM     19  C   UNL     1      -4.915   1.219  25.354  0.00  0.00    +0.216 C 
ATOM     26  C   UNL     1      -4.738   3.661  25.694  0.00  0.00    +0.123 C 
ATOM     27  C   UNL     1      -3.561   2.672  23.771  0.00  0.00    +0.123 C 
ATOM     28  C   UNL     1      -3.506   4.519  25.981  0.00  0.00    +0.103 C 
ATOM     29  C   UNL     1      -2.353   3.555  24.091  0.00  0.00    +0.103 C 
ATOM     30  C   UNL     1      -1.612   5.655  25.015  0.00  0.00    +0.105 C 
ENDBRANCH  14  19
ENDBRANCH   9  14
TORSDOF 6
ENDMDL
