MODEL 1
REMARK VINA RESULT:      -4.9      0.000      0.000
REMARK  Name = 11882007
REMARK  13 active torsions:
REMARK  status: ('A' for Active; 'I' for Inactive)
REMARK    1  A    between atoms: S_1  and  C_22
REMARK    2  A    between atoms: S_1  and  C_26
REMARK    3  A    between atoms: O_2  and  C_13
REMARK    4  A    between atoms: O_3  and  C_15
REMARK    5  A    between atoms: N_9  and  C_14
REMARK    6  A    between atoms: N_10  and  C_20
REMARK    7  A    between atoms: N_12  and  C_25
REMARK    8  A    between atoms: N_12  and  C_27
REMARK    9  A    between atoms: C_17  and  C_19
REMARK   10  A    between atoms: C_20  and  C_21
REMARK   11  A    between atoms: C_20  and  C_24
REMARK   12  A    between atoms: C_21  and  C_22
REMARK   13  A    between atoms: C_23  and  C_25
REMARK                            x       y       z     vdW  Elec       q    Type
REMARK                         _______ _______ _______ _____ _____    ______ ____
ROOT
ATOM     13  C   UNL     1      -0.411  -2.052  24.669  0.00  0.00    +0.167 C 
ATOM     14  C   UNL     1      -0.271  -0.963  23.587  0.00  0.00    +0.127 C 
ATOM     15  C   UNL     1      -1.873  -2.472  24.856  0.00  0.00    +0.149 C 
ATOM     16  C   UNL     1      -2.783  -1.275  25.184  0.00  0.00    +0.074 C 
ATOM     17  C   UNL     1      -2.428  -0.031  24.421  0.00  0.00    +0.015 C 
ATOM     18  C   UNL     1      -1.310   0.120  23.695  0.00  0.00    +0.006 C 
ENDROOT
BRANCH  17  19
ATOM      4  O   UNL     1      -3.869   1.528  23.414  0.00  0.00    -0.271 OA
ATOM     10  N   UNL     1      -3.611   1.560  25.731  0.00  0.00    -0.300 N 
ATOM     19  C   UNL     1      -3.372   1.090  24.451  0.00  0.00    +0.241 C 
ATOM     29  H   UNL     1      -3.084   1.200  26.518  0.00  0.00    +0.150 HD
BRANCH  10  20
ATOM     20  C   UNL     1      -4.505   2.661  26.013  0.00  0.00    +0.160 C 
BRANCH  20  24
ATOM      8  O   UNL     1      -6.370   2.092  24.563  0.00  0.00    -0.274 OA
ATOM     11  N   UNL     1      -6.627   1.840  26.831  0.00  0.00    -0.328 N 
ATOM     24  C   UNL     1      -5.920   2.191  25.701  0.00  0.00    +0.231 C 
ATOM     32  H   UNL     1      -7.580   1.496  26.763  0.00  0.00    +0.145 HD
ATOM     33  H   UNL     1      -6.241   1.923  27.766  0.00  0.00    +0.145 HD
ENDBRANCH  20  24
BRANCH  20  21
ATOM     21  C   UNL     1      -4.159   3.905  25.193  0.00  0.00    +0.054 C 
BRANCH  21  22
ATOM     22  C   UNL     1      -2.985   4.678  25.780  0.00  0.00    +0.168 C 
BRANCH  22   1
ATOM      1  S   UNL     1      -1.475   4.268  24.962  0.00  0.00    -0.034 S 
ATOM      6  O   UNL     1      -1.799   3.544  23.745  0.00  0.00    -0.175 OA
ATOM      7  O   UNL     1      -0.645   5.459  24.914  0.00  0.00    -0.175 OA
ATOM     26  C   UNL     1      -0.702   3.121  26.078  0.00  0.00    +0.194 C 
ENDBRANCH  22   1
ENDBRANCH  21  22
ENDBRANCH  20  21
ENDBRANCH  10  20
ENDBRANCH  17  19
BRANCH  14   9
ATOM      5  O   UNL     1       1.447  -0.419  21.324  0.00  0.00    -0.274 OA
ATOM      9  N   UNL     1       1.038  -0.356  23.609  0.00  0.00    -0.305 N 
ATOM     23  C   UNL     1       1.795  -0.133  22.467  0.00  0.00    +0.227 C 
ATOM     28  H   UNL     1       1.440  -0.118  24.511  0.00  0.00    +0.149 HD
BRANCH  23  25
ATOM     25  C   UNL     1       3.139   0.488  22.790  0.00  0.00    +0.177 C 
BRANCH  25  12
ATOM     12  N   UNL     1       3.992  -0.529  23.391  0.00  0.00    -0.311 NA
ATOM     27  C   UNL     1       5.354  -0.038  23.550  0.00  0.00    +0.101 C 
ATOM     34  H   UNL     1       3.623  -0.785  24.305  0.00  0.00    +0.122 HD
ENDBRANCH  25  12
ENDBRANCH  23  25
ENDBRANCH  14   9
BRANCH  13   2
ATOM      2  O   UNL     1       0.088  -1.558  25.914  0.00  0.00    -0.387 OA
ATOM     30  H   UNL     1      -0.456  -1.948  26.619  0.00  0.00    +0.210 HD
ENDBRANCH  13   2
BRANCH  15   3
ATOM      3  O   UNL     1      -2.346  -3.140  23.688  0.00  0.00    -0.389 OA
ATOM     31  H   UNL     1      -1.632  -3.700  23.344  0.00  0.00    +0.210 HD
ENDBRANCH  15   3
TORSDOF 11
ENDMDL
MODEL 2
REMARK VINA RESULT:      -3.9      1.761      3.149
REMARK  Name = 11882007
REMARK  13 active torsions:
REMARK  status: ('A' for Active; 'I' for Inactive)
REMARK    1  A    between atoms: S_1  and  C_22
REMARK    2  A    between atoms: S_1  and  C_26
REMARK    3  A    between atoms: O_2  and  C_13
REMARK    4  A    between atoms: O_3  and  C_15
REMARK    5  A    between atoms: N_9  and  C_14
REMARK    6  A    between atoms: N_10  and  C_20
REMARK    7  A    between atoms: N_12  and  C_25
REMARK    8  A    between atoms: N_12  and  C_27
REMARK    9  A    between atoms: C_17  and  C_19
REMARK   10  A    between atoms: C_20  and  C_21
REMARK   11  A    between atoms: C_20  and  C_24
REMARK   12  A    between atoms: C_21  and  C_22
REMARK   13  A    between atoms: C_23  and  C_25
REMARK                            x       y       z     vdW  Elec       q    Type
REMARK                         _______ _______ _______ _____ _____    ______ ____
ROOT
ATOM     13  C   UNL     1      -0.274  -1.877  24.650  0.00  0.00    +0.167 C 
ATOM     14  C   UNL     1       0.107  -0.935  23.492  0.00  0.00    +0.127 C 
ATOM     15  C   UNL     1      -1.794  -2.051  24.756  0.00  0.00    +0.149 C 
ATOM     16  C   UNL     1      -2.522  -0.703  24.903  0.00  0.00    +0.074 C 
ATOM     17  C   UNL     1      -1.925   0.390  24.064  0.00  0.00    +0.015 C 
ATOM     18  C   UNL     1      -0.752   0.298  23.420  0.00  0.00    +0.006 C 
ENDROOT
BRANCH  17  19
ATOM      4  O   UNL     1      -3.560   1.753  23.068  0.00  0.00    -0.271 OA
ATOM     10  N   UNL     1      -2.286   2.614  24.821  0.00  0.00    -0.300 N 
ATOM     19  C   UNL     1      -2.679   1.640  23.920  0.00  0.00    +0.241 C 
ATOM     29  H   UNL     1      -1.486   2.465  25.424  0.00  0.00    +0.150 HD
BRANCH  10  20
ATOM     20  C   UNL     1      -2.884   3.930  24.870  0.00  0.00    +0.160 C 
BRANCH  20  24
ATOM      8  O   UNL     1      -1.937   6.133  25.269  0.00  0.00    -0.274 OA
ATOM     11  N   UNL     1      -0.507   4.353  25.018  0.00  0.00    -0.328 N 
ATOM     24  C   UNL     1      -1.756   4.936  25.058  0.00  0.00    +0.231 C 
ATOM     32  H   UNL     1       0.332   4.910  25.145  0.00  0.00    +0.145 HD
ATOM     33  H   UNL     1      -0.372   3.362  24.847  0.00  0.00    +0.145 HD
ENDBRANCH  20  24
BRANCH  20  21
ATOM     21  C   UNL     1      -3.907   4.054  26.000  0.00  0.00    +0.054 C 
BRANCH  21  22
ATOM     22  C   UNL     1      -5.332   3.801  25.523  0.00  0.00    +0.168 C 
BRANCH  22   1
ATOM      1  S   UNL     1      -5.859   2.164  25.917  0.00  0.00    -0.034 S 
ATOM      6  O   UNL     1      -4.691   1.301  25.934  0.00  0.00    -0.175 OA
ATOM      7  O   UNL     1      -6.742   2.235  27.070  0.00  0.00    -0.175 OA
ATOM     26  C   UNL     1      -6.847   1.702  24.514  0.00  0.00    +0.194 C 
ENDBRANCH  22   1
ENDBRANCH  21  22
ENDBRANCH  20  21
ENDBRANCH  10  20
ENDBRANCH  17  19
BRANCH  14   9
ATOM      5  O   UNL     1       1.834  -0.189  21.294  0.00  0.00    -0.274 OA
ATOM      9  N   UNL     1       1.491  -0.535  23.565  0.00  0.00    -0.305 N 
ATOM     23  C   UNL     1       2.247  -0.192  22.452  0.00  0.00    +0.227 C 
ATOM     28  H   UNL     1       1.945  -0.543  24.475  0.00  0.00    +0.149 HD
BRANCH  23  25
ATOM     25  C   UNL     1       3.675   0.156  22.821  0.00  0.00    +0.177 C 
BRANCH  25  12
ATOM     12  N   UNL     1       4.221  -0.916  23.642  0.00  0.00    -0.311 NA
ATOM     27  C   UNL     1       5.494  -0.525  24.230  0.00  0.00    +0.101 C 
ATOM     34  H   UNL     1       3.565  -1.140  24.389  0.00  0.00    +0.122 HD
ENDBRANCH  25  12
ENDBRANCH  23  25
ENDBRANCH  14   9
BRANCH  13   2
ATOM      2  O   UNL     1       0.214  -1.343  25.883  0.00  0.00    -0.387 OA
ATOM     30  H   UNL     1      -0.552  -1.226  26.470  0.00  0.00    +0.210 HD
ENDBRANCH  13   2
BRANCH  15   3
ATOM      3  O   UNL     1      -2.289  -2.752  23.617  0.00  0.00    -0.389 OA
ATOM     31  H   UNL     1      -2.011  -2.276  22.818  0.00  0.00    +0.210 HD
ENDBRANCH  15   3
TORSDOF 11
ENDMDL
MODEL 3
REMARK VINA RESULT:      -2.9      2.284      7.331
REMARK  Name = 11882007
REMARK  13 active torsions:
REMARK  status: ('A' for Active; 'I' for Inactive)
REMARK    1  A    between atoms: S_1  and  C_22
REMARK    2  A    between atoms: S_1  and  C_26
REMARK    3  A    between atoms: O_2  and  C_13
REMARK    4  A    between atoms: O_3  and  C_15
REMARK    5  A    between atoms: N_9  and  C_14
REMARK    6  A    between atoms: N_10  and  C_20
REMARK    7  A    between atoms: N_12  and  C_25
REMARK    8  A    between atoms: N_12  and  C_27
REMARK    9  A    between atoms: C_17  and  C_19
REMARK   10  A    between atoms: C_20  and  C_21
REMARK   11  A    between atoms: C_20  and  C_24
REMARK   12  A    between atoms: C_21  and  C_22
REMARK   13  A    between atoms: C_23  and  C_25
REMARK                            x       y       z     vdW  Elec       q    Type
REMARK                         _______ _______ _______ _____ _____    ______ ____
ROOT
ATOM     13  C   UNL     1      -2.957   4.661  25.237  0.00  0.00    +0.167 C 
ATOM     14  C   UNL     1      -3.158   3.736  24.021  0.00  0.00    +0.127 C 
ATOM     15  C   UNL     1      -1.502   5.131  25.351  0.00  0.00    +0.149 C 
ATOM     16  C   UNL     1      -0.514   3.952  25.409  0.00  0.00    +0.074 C 
ATOM     17  C   UNL     1      -0.891   2.816  24.502  0.00  0.00    +0.015 C 
ATOM     18  C   UNL     1      -2.068   2.710  23.867  0.00  0.00    +0.006 C 
ENDROOT
BRANCH  17  19
ATOM      4  O   UNL     1       1.303   2.004  24.278  0.00  0.00    -0.271 OA
ATOM     10  N   UNL     1      -0.479   0.515  24.071  0.00  0.00    -0.300 N 
ATOM     19  C   UNL     1       0.097   1.757  24.275  0.00  0.00    +0.241 C 
ATOM     29  H   UNL     1      -1.485   0.421  23.991  0.00  0.00    +0.150 HD
BRANCH  10  20
ATOM     20  C   UNL     1       0.293  -0.683  23.825  0.00  0.00    +0.160 C 
BRANCH  20  24
ATOM      8  O   UNL     1       0.842  -0.306  21.488  0.00  0.00    -0.274 OA
ATOM     11  N   UNL     1       2.528  -0.192  23.042  0.00  0.00    -0.328 N 
ATOM     24  C   UNL     1       1.221  -0.394  22.652  0.00  0.00    +0.231 C 
ATOM     32  H   UNL     1       3.248   0.024  22.360  0.00  0.00    +0.145 HD
ATOM     33  H   UNL     1       2.827  -0.264  24.009  0.00  0.00    +0.145 HD
ENDBRANCH  20  24
BRANCH  20  21
ATOM     21  C   UNL     1      -0.599  -1.887  23.520  0.00  0.00    +0.054 C 
BRANCH  21  22
ATOM     22  C   UNL     1      -1.362  -2.369  24.747  0.00  0.00    +0.168 C 
BRANCH  22   1
ATOM      1  S   UNL     1      -3.097  -2.094  24.572  0.00  0.00    -0.034 S 
ATOM      6  O   UNL     1      -3.293  -1.030  23.603  0.00  0.00    -0.175 OA
ATOM      7  O   UNL     1      -3.746  -3.382  24.396  0.00  0.00    -0.175 OA
ATOM     26  C   UNL     1      -3.576  -1.465  26.164  0.00  0.00    +0.194 C 
ENDBRANCH  22   1
ENDBRANCH  21  22
ENDBRANCH  20  21
ENDBRANCH  10  20
ENDBRANCH  17  19
BRANCH  14   9
ATOM      5  O   UNL     1      -3.795   1.304  25.452  0.00  0.00    -0.274 OA
ATOM      9  N   UNL     1      -4.431   3.060  24.071  0.00  0.00    -0.305 N 
ATOM     23  C   UNL     1      -4.647   1.890  24.787  0.00  0.00    +0.227 C 
ATOM     28  H   UNL     1      -5.196   3.439  23.520  0.00  0.00    +0.149 HD
BRANCH  23  25
ATOM     25  C   UNL     1      -6.068   1.386  24.635  0.00  0.00    +0.177 C 
BRANCH  25  12
ATOM     12  N   UNL     1      -6.914   2.072  25.602  0.00  0.00    -0.311 NA
ATOM     27  C   UNL     1      -6.596   1.656  26.961  0.00  0.00    +0.101 C 
ATOM     34  H   UNL     1      -6.773   3.079  25.523  0.00  0.00    +0.122 HD
ENDBRANCH  25  12
ENDBRANCH  23  25
ENDBRANCH  14   9
BRANCH  13   2
ATOM      2  O   UNL     1      -3.308   3.962  26.434  0.00  0.00    -0.387 OA
ATOM     30  H   UNL     1      -4.270   4.049  26.548  0.00  0.00    +0.210 HD
ENDBRANCH  13   2
BRANCH  15   3
ATOM      3  O   UNL     1      -1.176   5.988  24.259  0.00  0.00    -0.389 OA
ATOM     31  H   UNL     1      -1.649   5.676  23.471  0.00  0.00    +0.210 HD
ENDBRANCH  15   3
TORSDOF 11
ENDMDL
MODEL 4
REMARK VINA RESULT:      -1.9      2.425      6.022
REMARK  Name = 11882007
REMARK  13 active torsions:
REMARK  status: ('A' for Active; 'I' for Inactive)
REMARK    1  A    between atoms: S_1  and  C_22
REMARK    2  A    between atoms: S_1  and  C_26
REMARK    3  A    between atoms: O_2  and  C_13
REMARK    4  A    between atoms: O_3  and  C_15
REMARK    5  A    between atoms: N_9  and  C_14
REMARK    6  A    between atoms: N_10  and  C_20
REMARK    7  A    between atoms: N_12  and  C_25
REMARK    8  A    between atoms: N_12  and  C_27
REMARK    9  A    between atoms: C_17  and  C_19
REMARK   10  A    between atoms: C_20  and  C_21
REMARK   11  A    between atoms: C_20  and  C_24
REMARK   12  A    between atoms: C_21  and  C_22
REMARK   13  A    between atoms: C_23  and  C_25
REMARK                            x       y       z     vdW  Elec       q    Type
REMARK                         _______ _______ _______ _____ _____    ______ ____
ROOT
ATOM     13  C   UNL     1      -5.433   3.384  25.526  0.00  0.00    +0.167 C 
ATOM     14  C   UNL     1      -4.090   3.042  26.198  0.00  0.00    +0.127 C 
ATOM     15  C   UNL     1      -6.326   2.145  25.392  0.00  0.00    +0.149 C 
ATOM     16  C   UNL     1      -5.625   1.004  24.634  0.00  0.00    +0.074 C 
ATOM     17  C   UNL     1      -4.167   0.875  24.969  0.00  0.00    +0.015 C 
ATOM     18  C   UNL     1      -3.468   1.775  25.676  0.00  0.00    +0.006 C 
ENDROOT
BRANCH  17  19
ATOM      4  O   UNL     1      -4.074  -1.327  24.153  0.00  0.00    -0.271 OA
ATOM     10  N   UNL     1      -2.081  -0.182  24.542  0.00  0.00    -0.300 N 
ATOM     19  C   UNL     1      -3.458  -0.325  24.513  0.00  0.00    +0.241 C 
ATOM     29  H   UNL     1      -1.658   0.647  24.944  0.00  0.00    +0.150 HD
BRANCH  10  20
ATOM     20  C   UNL     1      -1.170  -1.230  24.140  0.00  0.00    +0.160 C 
BRANCH  20  24
ATOM      8  O   UNL     1       0.397  -2.603  25.392  0.00  0.00    -0.274 OA
ATOM     11  N   UNL     1      -0.793  -0.993  26.518  0.00  0.00    -0.328 N 
ATOM     24  C   UNL     1      -0.444  -1.708  25.391  0.00  0.00    +0.231 C 
ATOM     32  H   UNL     1      -0.371  -1.200  27.417  0.00  0.00    +0.145 HD
ATOM     33  H   UNL     1      -1.487  -0.253  26.502  0.00  0.00    +0.145 HD
ENDBRANCH  20  24
BRANCH  20  21
ATOM     21  C   UNL     1      -0.168  -0.748  23.090  0.00  0.00    +0.054 C 
BRANCH  21  22
ATOM     22  C   UNL     1       0.883   0.186  23.676  0.00  0.00    +0.168 C 
BRANCH  22   1
ATOM      1  S   UNL     1       2.358   0.179  22.708  0.00  0.00    -0.034 S 
ATOM      6  O   UNL     1       2.013  -0.220  21.355  0.00  0.00    -0.175 OA
ATOM      7  O   UNL     1       3.069   1.422  22.953  0.00  0.00    -0.175 OA
ATOM     26  C   UNL     1       3.315  -1.136  23.427  0.00  0.00    +0.194 C 
ENDBRANCH  22   1
ENDBRANCH  21  22
ENDBRANCH  20  21
ENDBRANCH  10  20
ENDBRANCH  17  19
BRANCH  14   9
ATOM      5  O   UNL     1      -2.504   3.698  23.869  0.00  0.00    -0.274 OA
ATOM      9  N   UNL     1      -3.138   4.118  26.063  0.00  0.00    -0.305 N 
ATOM     23  C   UNL     1      -2.417   4.359  24.901  0.00  0.00    +0.227 C 
ATOM     28  H   UNL     1      -2.958   4.703  26.875  0.00  0.00    +0.149 HD
BRANCH  23  25
ATOM     25  C   UNL     1      -1.470   5.532  25.054  0.00  0.00    +0.177 C 
BRANCH  25  12
ATOM     12  N   UNL     1      -0.126   5.098  24.696  0.00  0.00    -0.311 NA
ATOM     27  C   UNL     1       0.060   3.684  24.992  0.00  0.00    +0.101 C 
ATOM     34  H   UNL     1       0.027   5.251  23.700  0.00  0.00    +0.122 HD
ENDBRANCH  25  12
ENDBRANCH  23  25
ENDBRANCH  14   9
BRANCH  13   2
ATOM      2  O   UNL     1      -5.194   3.920  24.222  0.00  0.00    -0.387 OA
ATOM     30  H   UNL     1      -4.338   4.380  24.251  0.00  0.00    +0.210 HD
ENDBRANCH  13   2
BRANCH  15   3
ATOM      3  O   UNL     1      -6.736   1.694  26.682  0.00  0.00    -0.389 OA
ATOM     31  H   UNL     1      -6.169   2.113  27.349  0.00  0.00    +0.210 HD
ENDBRANCH  15   3
TORSDOF 11
ENDMDL
MODEL 5
REMARK VINA RESULT:      -1.6      2.435      5.683
REMARK  Name = 11882007
REMARK  13 active torsions:
REMARK  status: ('A' for Active; 'I' for Inactive)
REMARK    1  A    between atoms: S_1  and  C_22
REMARK    2  A    between atoms: S_1  and  C_26
REMARK    3  A    between atoms: O_2  and  C_13
REMARK    4  A    between atoms: O_3  and  C_15
REMARK    5  A    between atoms: N_9  and  C_14
REMARK    6  A    between atoms: N_10  and  C_20
REMARK    7  A    between atoms: N_12  and  C_25
REMARK    8  A    between atoms: N_12  and  C_27
REMARK    9  A    between atoms: C_17  and  C_19
REMARK   10  A    between atoms: C_20  and  C_21
REMARK   11  A    between atoms: C_20  and  C_24
REMARK   12  A    between atoms: C_21  and  C_22
REMARK   13  A    between atoms: C_23  and  C_25
REMARK                            x       y       z     vdW  Elec       q    Type
REMARK                         _______ _______ _______ _____ _____    ______ ____
ROOT
ATOM     13  C   UNL     1      -3.919  -1.971  24.477  0.00  0.00    +0.167 C 
ATOM     14  C   UNL     1      -3.846  -0.902  25.584  0.00  0.00    +0.127 C 
ATOM     15  C   UNL     1      -2.585  -2.713  24.325  0.00  0.00    +0.149 C 
ATOM     16  C   UNL     1      -1.414  -1.751  24.060  0.00  0.00    +0.074 C 
ATOM     17  C   UNL     1      -1.503  -0.475  24.846  0.00  0.00    +0.015 C 
ATOM     18  C   UNL     1      -2.583  -0.085  25.541  0.00  0.00    +0.006 C 
ENDROOT
BRANCH  17  19
ATOM      4  O   UNL     1       0.606   0.236  24.093  0.00  0.00    -0.271 OA
ATOM     10  N   UNL     1      -0.407   1.377  25.855  0.00  0.00    -0.300 N 
ATOM     19  C   UNL     1      -0.327   0.400  24.878  0.00  0.00    +0.241 C 
ATOM     29  H   UNL     1      -1.171   1.378  26.521  0.00  0.00    +0.150 HD
BRANCH  10  20
ATOM     20  C   UNL     1       0.633   2.356  26.079  0.00  0.00    +0.160 C 
BRANCH  20  24
ATOM      8  O   UNL     1      -0.173   2.486  28.369  0.00  0.00    -0.274 OA
ATOM     11  N   UNL     1       2.080   2.715  27.984  0.00  0.00    -0.328 N 
ATOM     24  C   UNL     1       0.772   2.537  27.585  0.00  0.00    +0.231 C 
ATOM     32  H   UNL     1       2.313   2.833  28.965  0.00  0.00    +0.145 HD
ATOM     33  H   UNL     1       2.852   2.751  27.327  0.00  0.00    +0.145 HD
ENDBRANCH  20  24
BRANCH  20  21
ATOM     21  C   UNL     1       0.319   3.693  25.405  0.00  0.00    +0.054 C 
BRANCH  21  22
ATOM     22  C   UNL     1      -0.842   3.587  24.424  0.00  0.00    +0.168 C 
BRANCH  22   1
ATOM      1  S   UNL     1      -2.204   4.588  24.932  0.00  0.00    -0.034 S 
ATOM      6  O   UNL     1      -1.701   5.911  25.258  0.00  0.00    -0.175 OA
ATOM      7  O   UNL     1      -3.276   4.423  23.966  0.00  0.00    -0.175 OA
ATOM     26  C   UNL     1      -2.729   3.825  26.450  0.00  0.00    +0.194 C 
ENDBRANCH  22   1
ENDBRANCH  21  22
ENDBRANCH  20  21
ENDBRANCH  10  20
ENDBRANCH  17  19
BRANCH  14   9
ATOM      5  O   UNL     1      -4.093   1.539  24.050  0.00  0.00    -0.274 OA
ATOM      9  N   UNL     1      -4.978  -0.010  25.538  0.00  0.00    -0.305 N 
ATOM     23  C   UNL     1      -5.010   1.147  24.769  0.00  0.00    +0.227 C 
ATOM     28  H   UNL     1      -5.778  -0.219  26.130  0.00  0.00    +0.149 HD
BRANCH  23  25
ATOM     25  C   UNL     1      -6.310   1.905  24.938  0.00  0.00    +0.177 C 
BRANCH  25  12
ATOM     12  N   UNL     1      -6.168   2.838  26.047  0.00  0.00    -0.311 NA
ATOM     27  C   UNL     1      -6.042   4.207  25.563  0.00  0.00    +0.101 C 
ATOM     34  H   UNL     1      -6.985   2.775  26.653  0.00  0.00    +0.122 HD
ENDBRANCH  25  12
ENDBRANCH  23  25
ENDBRANCH  14   9
BRANCH  13   2
ATOM      2  O   UNL     1      -4.244  -1.351  23.231  0.00  0.00    -0.387 OA
ATOM     30  H   UNL     1      -5.203  -1.191  23.229  0.00  0.00    +0.210 HD
ENDBRANCH  13   2
BRANCH  15   3
ATOM      3  O   UNL     1      -2.323  -3.495  25.488  0.00  0.00    -0.389 OA
ATOM     31  H   UNL     1      -1.492  -3.979  25.352  0.00  0.00    +0.210 HD
ENDBRANCH  15   3
TORSDOF 11
ENDMDL
MODEL 6
REMARK VINA RESULT:      -1.6      2.815      5.679
REMARK  Name = 11882007
REMARK  13 active torsions:
REMARK  status: ('A' for Active; 'I' for Inactive)
REMARK    1  A    between atoms: S_1  and  C_22
REMARK    2  A    between atoms: S_1  and  C_26
REMARK    3  A    between atoms: O_2  and  C_13
REMARK    4  A    between atoms: O_3  and  C_15
REMARK    5  A    between atoms: N_9  and  C_14
REMARK    6  A    between atoms: N_10  and  C_20
REMARK    7  A    between atoms: N_12  and  C_25
REMARK    8  A    between atoms: N_12  and  C_27
REMARK    9  A    between atoms: C_17  and  C_19
REMARK   10  A    between atoms: C_20  and  C_21
REMARK   11  A    between atoms: C_20  and  C_24
REMARK   12  A    between atoms: C_21  and  C_22
REMARK   13  A    between atoms: C_23  and  C_25
REMARK                            x       y       z     vdW  Elec       q    Type
REMARK                         _______ _______ _______ _____ _____    ______ ____
ROOT
ATOM     13  C   UNL     1      -4.827   3.866  25.519  0.00  0.00    +0.167 C 
ATOM     14  C   UNL     1      -3.559   3.142  26.010  0.00  0.00    +0.127 C 
ATOM     15  C   UNL     1      -6.052   2.944  25.562  0.00  0.00    +0.149 C 
ATOM     16  C   UNL     1      -5.832   1.649  24.760  0.00  0.00    +0.074 C 
ATOM     17  C   UNL     1      -4.442   1.096  24.893  0.00  0.00    +0.015 C 
ATOM     18  C   UNL     1      -3.416   1.750  25.458  0.00  0.00    +0.006 C 
ENDROOT
BRANCH  17  19
ATOM      4  O   UNL     1      -5.103  -0.956  23.959  0.00  0.00    -0.271 OA
ATOM     10  N   UNL     1      -2.854  -0.620  24.468  0.00  0.00    -0.300 N 
ATOM     19  C   UNL     1      -4.187  -0.258  24.391  0.00  0.00    +0.241 C 
ATOM     29  H   UNL     1      -2.182  -0.016  24.928  0.00  0.00    +0.150 HD
BRANCH  10  20
ATOM     20  C   UNL     1      -2.359  -1.908  24.035  0.00  0.00    +0.160 C 
BRANCH  20  24
ATOM      8  O   UNL     1      -3.175  -3.128  25.972  0.00  0.00    -0.274 OA
ATOM     11  N   UNL     1      -3.953  -3.721  23.895  0.00  0.00    -0.328 N 
ATOM     24  C   UNL     1      -3.174  -2.975  24.753  0.00  0.00    +0.231 C 
ATOM     32  H   UNL     1      -4.557  -4.457  24.246  0.00  0.00    +0.145 HD
ATOM     33  H   UNL     1      -3.946  -3.581  22.890  0.00  0.00    +0.145 HD
ENDBRANCH  20  24
BRANCH  20  21
ATOM     21  C   UNL     1      -0.869  -2.080  24.333  0.00  0.00    +0.054 C 
BRANCH  21  22
ATOM     22  C   UNL     1      -0.208  -0.775  24.759  0.00  0.00    +0.168 C 
BRANCH  22   1
ATOM      1  S   UNL     1       0.110   0.266  23.369  0.00  0.00    -0.034 S 
ATOM      6  O   UNL     1       0.653  -0.555  22.300  0.00  0.00    -0.175 OA
ATOM      7  O   UNL     1      -1.063   1.093  23.142  0.00  0.00    -0.175 OA
ATOM     26  C   UNL     1       1.413   1.330  23.942  0.00  0.00    +0.194 C 
ENDBRANCH  22   1
ENDBRANCH  21  22
ENDBRANCH  20  21
ENDBRANCH  10  20
ENDBRANCH  17  19
BRANCH  14   9
ATOM      5  O   UNL     1      -0.816   2.272  26.310  0.00  0.00    -0.274 OA
ATOM      9  N   UNL     1      -2.366   3.891  25.699  0.00  0.00    -0.305 N 
ATOM     23  C   UNL     1      -1.082   3.391  25.877  0.00  0.00    +0.227 C 
ATOM     28  H   UNL     1      -2.472   4.847  25.372  0.00  0.00    +0.149 HD
BRANCH  23  25
ATOM     25  C   UNL     1      -0.021   4.404  25.499  0.00  0.00    +0.177 C 
BRANCH  25  12
ATOM     12  N   UNL     1      -0.563   5.290  24.477  0.00  0.00    -0.311 NA
ATOM     27  C   UNL     1      -0.148   4.867  23.147  0.00  0.00    +0.101 C 
ATOM     34  H   UNL     1      -1.581   5.281  24.525  0.00  0.00    +0.122 HD
ENDBRANCH  25  12
ENDBRANCH  23  25
ENDBRANCH  14   9
BRANCH  13   2
ATOM      2  O   UNL     1      -4.636   4.310  24.173  0.00  0.00    -0.387 OA
ATOM     30  H   UNL     1      -5.473   4.704  23.877  0.00  0.00    +0.210 HD
ENDBRANCH  13   2
BRANCH  15   3
ATOM      3  O   UNL     1      -6.383   2.631  26.913  0.00  0.00    -0.389 OA
ATOM     31  H   UNL     1      -7.294   2.294  26.937  0.00  0.00    +0.210 HD
ENDBRANCH  15   3
TORSDOF 11
ENDMDL
MODEL 7
REMARK VINA RESULT:      -1.5      2.223      4.320
REMARK  Name = 11882007
REMARK  13 active torsions:
REMARK  status: ('A' for Active; 'I' for Inactive)
REMARK    1  A    between atoms: S_1  and  C_22
REMARK    2  A    between atoms: S_1  and  C_26
REMARK    3  A    between atoms: O_2  and  C_13
REMARK    4  A    between atoms: O_3  and  C_15
REMARK    5  A    between atoms: N_9  and  C_14
REMARK    6  A    between atoms: N_10  and  C_20
REMARK    7  A    between atoms: N_12  and  C_25
REMARK    8  A    between atoms: N_12  and  C_27
REMARK    9  A    between atoms: C_17  and  C_19
REMARK   10  A    between atoms: C_20  and  C_21
REMARK   11  A    between atoms: C_20  and  C_24
REMARK   12  A    between atoms: C_21  and  C_22
REMARK   13  A    between atoms: C_23  and  C_25
REMARK                            x       y       z     vdW  Elec       q    Type
REMARK                         _______ _______ _______ _____ _____    ______ ____
ROOT
ATOM     13  C   UNL     1       0.569   3.492  24.705  0.00  0.00    +0.167 C 
ATOM     14  C   UNL     1       0.546   1.971  24.462  0.00  0.00    +0.127 C 
ATOM     15  C   UNL     1      -0.700   3.965  25.425  0.00  0.00    +0.149 C 
ATOM     16  C   UNL     1      -1.979   3.564  24.670  0.00  0.00    +0.074 C 
ATOM     17  C   UNL     1      -1.903   2.195  24.055  0.00  0.00    +0.015 C 
ATOM     18  C   UNL     1      -0.781   1.467  23.963  0.00  0.00    +0.006 C 
ENDROOT
BRANCH  17  19
ATOM      4  O   UNL     1      -3.273   1.363  22.337  0.00  0.00    -0.271 OA
ATOM     10  N   UNL     1      -4.078   1.362  24.525  0.00  0.00    -0.300 N 
ATOM     19  C   UNL     1      -3.139   1.602  23.537  0.00  0.00    +0.241 C 
ATOM     29  H   UNL     1      -3.919   1.678  25.475  0.00  0.00    +0.150 HD
BRANCH  10  20
ATOM     20  C   UNL     1      -5.375   0.782  24.258  0.00  0.00    +0.160 C 
BRANCH  20  24
ATOM      8  O   UNL     1      -6.199   1.787  26.312  0.00  0.00    -0.274 OA
ATOM     11  N   UNL     1      -7.525   1.875  24.439  0.00  0.00    -0.328 N 
ATOM     24  C   UNL     1      -6.389   1.511  25.130  0.00  0.00    +0.231 C 
ATOM     32  H   UNL     1      -8.275   2.381  24.900  0.00  0.00    +0.145 HD
ATOM     33  H   UNL     1      -7.668   1.645  23.462  0.00  0.00    +0.145 HD
ENDBRANCH  20  24
BRANCH  20  21
ATOM     21  C   UNL     1      -5.403  -0.720  24.544  0.00  0.00    +0.054 C 
BRANCH  21  22
ATOM     22  C   UNL     1      -4.240  -1.456  23.891  0.00  0.00    +0.168 C 
BRANCH  22   1
ATOM      1  S   UNL     1      -3.113  -2.074  25.101  0.00  0.00    -0.034 S 
ATOM      6  O   UNL     1      -2.954  -1.064  26.133  0.00  0.00    -0.175 OA
ATOM      7  O   UNL     1      -3.513  -3.428  25.446  0.00  0.00    -0.175 OA
ATOM     26  C   UNL     1      -1.576  -2.180  24.214  0.00  0.00    +0.194 C 
ENDBRANCH  22   1
ENDBRANCH  21  22
ENDBRANCH  20  21
ENDBRANCH  10  20
ENDBRANCH  17  19
BRANCH  14   9
ATOM      5  O   UNL     1       0.938  -0.659  23.321  0.00  0.00    -0.274 OA
ATOM      9  N   UNL     1       1.577   1.564  23.539  0.00  0.00    -0.305 N 
ATOM     23  C   UNL     1       1.689   0.272  23.040  0.00  0.00    +0.227 C 
ATOM     28  H   UNL     1       2.279   2.248  23.272  0.00  0.00    +0.149 HD
BRANCH  23  25
ATOM     25  C   UNL     1       2.881   0.123  22.116  0.00  0.00    +0.177 C 
BRANCH  25  12
ATOM     12  N   UNL     1       3.935   1.023  22.563  0.00  0.00    -0.311 NA
ATOM     27  C   UNL     1       5.023   0.282  23.187  0.00  0.00    +0.101 C 
ATOM     34  H   UNL     1       4.302   1.540  21.765  0.00  0.00    +0.122 HD
ENDBRANCH  25  12
ENDBRANCH  23  25
ENDBRANCH  14   9
BRANCH  13   2
ATOM      2  O   UNL     1       0.667   4.176  23.453  0.00  0.00    -0.387 OA
ATOM     30  H   UNL     1       1.325   3.703  22.916  0.00  0.00    +0.210 HD
ENDBRANCH  13   2
BRANCH  15   3
ATOM      3  O   UNL     1      -0.733   3.445  26.753  0.00  0.00    -0.389 OA
ATOM     31  H   UNL     1      -0.000   3.837  27.255  0.00  0.00    +0.210 HD
ENDBRANCH  15   3
TORSDOF 11
ENDMDL
MODEL 8
REMARK VINA RESULT:      -1.4      1.556      5.958
REMARK  Name = 11882007
REMARK  13 active torsions:
REMARK  status: ('A' for Active; 'I' for Inactive)
REMARK    1  A    between atoms: S_1  and  C_22
REMARK    2  A    between atoms: S_1  and  C_26
REMARK    3  A    between atoms: O_2  and  C_13
REMARK    4  A    between atoms: O_3  and  C_15
REMARK    5  A    between atoms: N_9  and  C_14
REMARK    6  A    between atoms: N_10  and  C_20
REMARK    7  A    between atoms: N_12  and  C_25
REMARK    8  A    between atoms: N_12  and  C_27
REMARK    9  A    between atoms: C_17  and  C_19
REMARK   10  A    between atoms: C_20  and  C_21
REMARK   11  A    between atoms: C_20  and  C_24
REMARK   12  A    between atoms: C_21  and  C_22
REMARK   13  A    between atoms: C_23  and  C_25
REMARK                            x       y       z     vdW  Elec       q    Type
REMARK                         _______ _______ _______ _____ _____    ______ ____
ROOT
ATOM     13  C   UNL     1      -4.312  -2.176  24.868  0.00  0.00    +0.167 C 
ATOM     14  C   UNL     1      -3.886  -0.939  25.681  0.00  0.00    +0.127 C 
ATOM     15  C   UNL     1      -3.163  -3.184  24.736  0.00  0.00    +0.149 C 
ATOM     16  C   UNL     1      -1.903  -2.550  24.123  0.00  0.00    +0.074 C 
ATOM     17  C   UNL     1      -1.650  -1.148  24.598  0.00  0.00    +0.015 C 
ATOM     18  C   UNL     1      -2.526  -0.417  25.304  0.00  0.00    +0.006 C 
ENDROOT
BRANCH  17  19
ATOM      4  O   UNL     1       0.697  -1.063  24.656  0.00  0.00    -0.271 OA
ATOM     10  N   UNL     1      -0.468   0.641  23.573  0.00  0.00    -0.300 N 
ATOM     19  C   UNL     1      -0.353  -0.537  24.290  0.00  0.00    +0.241 C 
ATOM     29  H   UNL     1      -1.379   1.050  23.396  0.00  0.00    +0.150 HD
BRANCH  10  20
ATOM     20  C   UNL     1       0.673   1.424  23.154  0.00  0.00    +0.160 C 
BRANCH  20  24
ATOM      8  O   UNL     1       1.569  -0.366  21.776  0.00  0.00    -0.274 OA
ATOM     11  N   UNL     1       2.948   0.621  23.325  0.00  0.00    -0.328 N 
ATOM     24  C   UNL     1       1.743   0.452  22.675  0.00  0.00    +0.231 C 
ATOM     32  H   UNL     1       3.750   0.046  23.090  0.00  0.00    +0.145 HD
ATOM     33  H   UNL     1       3.079   1.304  24.064  0.00  0.00    +0.145 HD
ENDBRANCH  20  24
BRANCH  20  21
ATOM     21  C   UNL     1       1.212   2.302  24.284  0.00  0.00    +0.054 C 
BRANCH  21  22
ATOM     22  C   UNL     1       0.178   2.541  25.377  0.00  0.00    +0.168 C 
BRANCH  22   1
ATOM      1  S   UNL     1      -1.034   3.718  24.866  0.00  0.00    -0.034 S 
ATOM      6  O   UNL     1      -0.409   5.029  24.834  0.00  0.00    -0.175 OA
ATOM      7  O   UNL     1      -1.712   3.194  23.693  0.00  0.00    -0.175 OA
ATOM     26  C   UNL     1      -2.202   3.714  26.206  0.00  0.00    +0.194 C 
ENDBRANCH  22   1
ENDBRANCH  21  22
ENDBRANCH  20  21
ENDBRANCH  10  20
ENDBRANCH  17  19
BRANCH  14   9
ATOM      5  O   UNL     1      -3.874   1.218  23.754  0.00  0.00    -0.274 OA
ATOM      9  N   UNL     1      -4.845   0.132  25.562  0.00  0.00    -0.305 N 
ATOM     23  C   UNL     1      -4.760   1.131  24.601  0.00  0.00    +0.227 C 
ATOM     28  H   UNL     1      -5.598   0.178  26.243  0.00  0.00    +0.149 HD
BRANCH  23  25
ATOM     25  C   UNL     1      -5.883   2.140  24.730  0.00  0.00    +0.177 C 
BRANCH  25  12
ATOM     12  N   UNL     1      -5.693   2.896  25.961  0.00  0.00    -0.311 NA
ATOM     27  C   UNL     1      -5.666   4.328  25.693  0.00  0.00    +0.101 C 
ATOM     34  H   UNL     1      -6.456   2.694  26.606  0.00  0.00    +0.122 HD
ENDBRANCH  25  12
ENDBRANCH  23  25
ENDBRANCH  14   9
BRANCH  13   2
ATOM      2  O   UNL     1      -4.719  -1.772  23.558  0.00  0.00    -0.387 OA
ATOM     30  H   UNL     1      -3.944  -1.848  22.978  0.00  0.00    +0.210 HD
ENDBRANCH  13   2
BRANCH  15   3
ATOM      3  O   UNL     1      -2.856  -3.747  26.010  0.00  0.00    -0.389 OA
ATOM     31  H   UNL     1      -2.576  -4.668  25.880  0.00  0.00    +0.210 HD
ENDBRANCH  15   3
TORSDOF 11
ENDMDL
MODEL 9
REMARK VINA RESULT:      -1.1      2.386      5.045
REMARK  Name = 11882007
REMARK  13 active torsions:
REMARK  status: ('A' for Active; 'I' for Inactive)
REMARK    1  A    between atoms: S_1  and  C_22
REMARK    2  A    between atoms: S_1  and  C_26
REMARK    3  A    between atoms: O_2  and  C_13
REMARK    4  A    between atoms: O_3  and  C_15
REMARK    5  A    between atoms: N_9  and  C_14
REMARK    6  A    between atoms: N_10  and  C_20
REMARK    7  A    between atoms: N_12  and  C_25
REMARK    8  A    between atoms: N_12  and  C_27
REMARK    9  A    between atoms: C_17  and  C_19
REMARK   10  A    between atoms: C_20  and  C_21
REMARK   11  A    between atoms: C_20  and  C_24
REMARK   12  A    between atoms: C_21  and  C_22
REMARK   13  A    between atoms: C_23  and  C_25
REMARK                            x       y       z     vdW  Elec       q    Type
REMARK                         _______ _______ _______ _____ _____    ______ ____
ROOT
ATOM     13  C   UNL     1       1.222  -0.504  22.736  0.00  0.00    +0.167 C 
ATOM     14  C   UNL     1       0.437  -0.856  24.014  0.00  0.00    +0.127 C 
ATOM     15  C   UNL     1       2.076   0.755  22.931  0.00  0.00    +0.149 C 
ATOM     16  C   UNL     1       1.236   1.960  23.389  0.00  0.00    +0.074 C 
ATOM     17  C   UNL     1       0.160   1.596  24.371  0.00  0.00    +0.015 C 
ATOM     18  C   UNL     1      -0.203   0.339  24.668  0.00  0.00    +0.006 C 
ENDROOT
BRANCH  17  19
ATOM      4  O   UNL     1      -0.181   3.034  26.198  0.00  0.00    -0.271 OA
ATOM     10  N   UNL     1      -1.569   3.226  24.335  0.00  0.00    -0.300 N 
ATOM     19  C   UNL     1      -0.531   2.683  25.072  0.00  0.00    +0.241 C 
ATOM     29  H   UNL     1      -1.848   2.810  23.454  0.00  0.00    +0.150 HD
BRANCH  10  20
ATOM     20  C   UNL     1      -2.398   4.309  24.817  0.00  0.00    +0.160 C 
BRANCH  20  24
ATOM      8  O   UNL     1      -1.890   6.610  25.413  0.00  0.00    -0.274 OA
ATOM     11  N   UNL     1      -0.220   5.316  24.513  0.00  0.00    -0.328 N 
ATOM     24  C   UNL     1      -1.511   5.541  24.941  0.00  0.00    +0.231 C 
ATOM     32  H   UNL     1       0.478   6.051  24.555  0.00  0.00    +0.145 HD
ATOM     33  H   UNL     1       0.081   4.426  24.128  0.00  0.00    +0.145 HD
ENDBRANCH  20  24
BRANCH  20  21
ATOM     21  C   UNL     1      -3.048   3.979  26.162  0.00  0.00    +0.054 C 
BRANCH  21  22
ATOM     22  C   UNL     1      -4.493   3.519  26.010  0.00  0.00    +0.168 C 
BRANCH  22   1
ATOM      1  S   UNL     1      -4.624   2.192  24.854  0.00  0.00    -0.034 S 
ATOM      6  O   UNL     1      -4.521   2.744  23.514  0.00  0.00    -0.175 OA
ATOM      7  O   UNL     1      -3.737   1.124  25.284  0.00  0.00    -0.175 OA
ATOM     26  C   UNL     1      -6.293   1.621  25.072  0.00  0.00    +0.194 C 
ENDBRANCH  22   1
ENDBRANCH  21  22
ENDBRANCH  20  21
ENDBRANCH  10  20
ENDBRANCH  17  19
BRANCH  14   9
ATOM      5  O   UNL     1      -1.766  -1.592  25.739  0.00  0.00    -0.274 OA
ATOM      9  N   UNL     1      -0.580  -1.846  23.758  0.00  0.00    -0.305 N 
ATOM     23  C   UNL     1      -1.606  -2.136  24.649  0.00  0.00    +0.227 C 
ATOM     28  H   UNL     1      -0.516  -2.387  22.900  0.00  0.00    +0.149 HD
BRANCH  23  25
ATOM     25  C   UNL     1      -2.508  -3.239  24.134  0.00  0.00    +0.177 C 
BRANCH  25  12
ATOM     12  N   UNL     1      -3.887  -2.908  24.467  0.00  0.00    -0.311 NA
ATOM     27  C   UNL     1      -4.327  -1.722  23.746  0.00  0.00    +0.101 C 
ATOM     34  H   UNL     1      -4.494  -3.690  24.220  0.00  0.00    +0.122 HD
ENDBRANCH  25  12
ENDBRANCH  23  25
ENDBRANCH  14   9
BRANCH  13   2
ATOM      2  O   UNL     1       0.310  -0.278  21.659  0.00  0.00    -0.387 OA
ATOM     30  H   UNL     1      -0.586  -0.266  22.037  0.00  0.00    +0.210 HD
ENDBRANCH  13   2
BRANCH  15   3
ATOM      3  O   UNL     1       3.119   0.502  23.869  0.00  0.00    -0.389 OA
ATOM     31  H   UNL     1       3.494  -0.374  23.684  0.00  0.00    +0.210 HD
ENDBRANCH  15   3
TORSDOF 11
ENDMDL
