MODEL 1
REMARK VINA RESULT:       4.3      0.000      0.000
REMARK  Name = 11911859
REMARK  8 active torsions:
REMARK  status: ('A' for Active; 'I' for Inactive)
REMARK    1  A    between atoms: S_1  and  N_7
REMARK    2  A    between atoms: S_1  and  C_19
REMARK    3  A    between atoms: N_7  and  C_14
REMARK    4  A    between atoms: N_8  and  C_15
REMARK    5  A    between atoms: N_11  and  C_29
REMARK    6  A    between atoms: N_11  and  C_32
REMARK    7  A    between atoms: N_11  and  C_33
REMARK    8  A    between atoms: C_21  and  C_26
REMARK                            x       y       z     vdW  Elec       q    Type
REMARK                         _______ _______ _______ _____ _____    ______ ____
ROOT
ATOM      3  O   UNL     1      -2.343   3.351  24.171  0.00  0.00    -0.370 OA
ATOM      4  O   UNL     1      -4.999   3.220  25.814  0.00  0.00    -0.370 OA
ATOM     12  C   UNL     1      -3.648   2.809  26.085  0.00  0.00    +0.170 C 
ATOM     13  C   UNL     1      -3.069   2.275  24.790  0.00  0.00    +0.171 C 
ATOM     14  C   UNL     1      -2.792   4.009  26.406  0.00  0.00    +0.133 C 
ATOM     15  C   UNL     1      -4.281   1.917  23.962  0.00  0.00    +0.130 C 
ATOM     16  C   UNL     1      -2.372   4.498  25.033  0.00  0.00    +0.183 C 
ATOM     17  C   UNL     1      -5.322   2.909  24.450  0.00  0.00    +0.185 C 
ENDROOT
BRANCH  15   8
ATOM      8  N   UNL     1      -4.701   0.565  24.258  0.00  0.00    -0.306 N 
ATOM      9  N   UNL     1      -2.514  -0.268  24.091  0.00  0.00    -0.214 NA
ATOM     10  N   UNL     1      -4.358  -1.729  24.612  0.00  0.00    -0.223 NA
ATOM     18  C   UNL     1      -3.831  -0.509  24.323  0.00  0.00    +0.216 A 
ATOM     21  C   UNL     1      -1.695  -1.338  24.161  0.00  0.00    +0.076 A 
ATOM     22  C   UNL     1      -3.483  -2.754  24.666  0.00  0.00    +0.116 A 
ATOM     24  C   UNL     1      -2.128  -2.617  24.448  0.00  0.00    +0.048 A 
ATOM     35  H   UNL     1      -5.673   0.383  24.483  0.00  0.00    +0.149 HD
BRANCH  21  26
ATOM     26  C   UNL     1      -0.301  -1.060  23.914  0.00  0.00    +0.001 A 
ATOM     27  C   UNL     1       0.065  -0.060  23.011  0.00  0.00    +0.012 A 
ATOM     28  C   UNL     1       0.688  -1.792  24.574  0.00  0.00    +0.012 A 
ATOM     29  C   UNL     1       2.398  -0.525  23.432  0.00  0.00    +0.029 A 
ATOM     30  C   UNL     1       1.413   0.208  22.770  0.00  0.00    +0.024 A 
ATOM     31  C   UNL     1       2.036  -1.524  24.334  0.00  0.00    +0.024 A 
BRANCH  29  11
ATOM     11  N   UNL     1       3.761  -0.254  23.189  0.00  0.00    -0.336 N 
ATOM     32  C   UNL     1       4.791  -1.076  23.793  0.00  0.00    +0.129 C 
ATOM     33  C   UNL     1       4.149   0.859  22.346  0.00  0.00    +0.129 C 
ENDBRANCH  29  11
ENDBRANCH  21  26
ENDBRANCH  15   8
BRANCH  14   7
ATOM      7  N   UNL     1      -1.595   3.579  27.169  0.00  0.00    -0.182 NA
ATOM     34  H   UNL     1      -1.408   4.094  28.039  0.00  0.00    +0.149 HD
BRANCH   7   1
ATOM      1  S   UNL     1      -0.292   2.852  26.359  0.00  0.00    +0.065 S 
ATOM      5  O   UNL     1       0.188   3.742  25.320  0.00  0.00    -0.153 OA
ATOM      6  O   UNL     1      -0.645   1.482  26.042  0.00  0.00    -0.153 OA
BRANCH   1  19
ATOM      2  S   UNL     1       0.383   2.157  29.118  0.00  0.00    -0.077 S 
ATOM     19  C   UNL     1       0.936   2.788  27.629  0.00  0.00    +0.142 A 
ATOM     20  C   UNL     1       2.259   3.143  27.667  0.00  0.00    +0.036 A 
ATOM     23  C   UNL     1       2.838   2.894  28.946  0.00  0.00    +0.010 A 
ATOM     25  C   UNL     1       1.928   2.358  29.829  0.00  0.00    +0.047 A 
ENDBRANCH   1  19
ENDBRANCH   7   1
ENDBRANCH  14   7
TORSDOF 6
ENDMDL
MODEL 2
REMARK VINA RESULT:       4.7      2.433      5.554
REMARK  Name = 11911859
REMARK  8 active torsions:
REMARK  status: ('A' for Active; 'I' for Inactive)
REMARK    1  A    between atoms: S_1  and  N_7
REMARK    2  A    between atoms: S_1  and  C_19
REMARK    3  A    between atoms: N_7  and  C_14
REMARK    4  A    between atoms: N_8  and  C_15
REMARK    5  A    between atoms: N_11  and  C_29
REMARK    6  A    between atoms: N_11  and  C_32
REMARK    7  A    between atoms: N_11  and  C_33
REMARK    8  A    between atoms: C_21  and  C_26
REMARK                            x       y       z     vdW  Elec       q    Type
REMARK                         _______ _______ _______ _____ _____    ______ ____
ROOT
ATOM      3  O   UNL     1      -2.280  -1.582  26.005  0.00  0.00    -0.370 OA
ATOM      4  O   UNL     1      -3.147  -1.608  23.002  0.00  0.00    -0.370 OA
ATOM     12  C   UNL     1      -2.102  -0.932  23.723  0.00  0.00    +0.170 C 
ATOM     13  C   UNL     1      -2.662  -0.551  25.079  0.00  0.00    +0.171 C 
ATOM     14  C   UNL     1      -0.984  -1.894  24.042  0.00  0.00    +0.133 C 
ATOM     15  C   UNL     1      -4.159  -0.557  24.876  0.00  0.00    +0.130 C 
ATOM     16  C   UNL     1      -1.457  -2.543  25.329  0.00  0.00    +0.183 C 
ATOM     17  C   UNL     1      -4.344  -1.605  23.794  0.00  0.00    +0.185 C 
ENDROOT
BRANCH  15   8
ATOM      8  N   UNL     1      -4.600   0.736  24.400  0.00  0.00    -0.306 N 
ATOM      9  N   UNL     1      -2.862   1.859  25.506  0.00  0.00    -0.214 NA
ATOM     10  N   UNL     1      -4.479   3.070  24.194  0.00  0.00    -0.223 NA
ATOM     18  C   UNL     1      -3.961   1.924  24.709  0.00  0.00    +0.216 A 
ATOM     21  C   UNL     1      -2.264   3.035  25.788  0.00  0.00    +0.076 A 
ATOM     22  C   UNL     1      -3.832   4.210  24.516  0.00  0.00    +0.116 A 
ATOM     24  C   UNL     1      -2.709   4.253  25.315  0.00  0.00    +0.048 A 
ATOM     35  H   UNL     1      -5.387   0.791  23.764  0.00  0.00    +0.149 HD
BRANCH  21  26
ATOM     26  C   UNL     1      -1.099   2.944  26.634  0.00  0.00    +0.001 A 
ATOM     27  C   UNL     1       0.171   2.816  26.068  0.00  0.00    +0.012 A 
ATOM     28  C   UNL     1      -1.237   2.980  28.024  0.00  0.00    +0.012 A 
ATOM     29  C   UNL     1       1.156   2.762  28.272  0.00  0.00    +0.029 A 
ATOM     30  C   UNL     1       1.297   2.726  26.886  0.00  0.00    +0.024 A 
ATOM     31  C   UNL     1      -0.110   2.890  28.841  0.00  0.00    +0.024 A 
BRANCH  29  11
ATOM     11  N   UNL     1       2.295   2.671  29.100  0.00  0.00    -0.336 N 
ATOM     32  C   UNL     1       2.272   1.848  30.293  0.00  0.00    +0.129 C 
ATOM     33  C   UNL     1       3.498   3.413  28.777  0.00  0.00    +0.129 C 
ENDBRANCH  29  11
ENDBRANCH  21  26
ENDBRANCH  15   8
BRANCH  14   7
ATOM      7  N   UNL     1       0.267  -1.138  24.298  0.00  0.00    -0.182 NA
ATOM     34  H   UNL     1       0.474  -0.933  25.284  0.00  0.00    +0.149 HD
BRANCH   7   1
ATOM      1  S   UNL     1       0.889  -0.103  23.104  0.00  0.00    +0.065 S 
ATOM      5  O   UNL     1       0.575   1.271  23.446  0.00  0.00    -0.153 OA
ATOM      6  O   UNL     1       0.537  -0.629  21.801  0.00  0.00    -0.153 OA
BRANCH   1  19
ATOM      2  S   UNL     1       3.580   0.985  22.755  0.00  0.00    -0.077 S 
ATOM     19  C   UNL     1       2.631  -0.328  23.299  0.00  0.00    +0.142 A 
ATOM     20  C   UNL     1       3.389  -1.353  23.804  0.00  0.00    +0.036 A 
ATOM     23  C   UNL     1       4.783  -1.058  23.746  0.00  0.00    +0.010 A 
ATOM     25  C   UNL     1       5.026   0.182  23.197  0.00  0.00    +0.047 A 
ENDBRANCH   1  19
ENDBRANCH   7   1
ENDBRANCH  14   7
TORSDOF 6
ENDMDL
MODEL 3
REMARK VINA RESULT:       4.7      2.696      5.341
REMARK  Name = 11911859
REMARK  8 active torsions:
REMARK  status: ('A' for Active; 'I' for Inactive)
REMARK    1  A    between atoms: S_1  and  N_7
REMARK    2  A    between atoms: S_1  and  C_19
REMARK    3  A    between atoms: N_7  and  C_14
REMARK    4  A    between atoms: N_8  and  C_15
REMARK    5  A    between atoms: N_11  and  C_29
REMARK    6  A    between atoms: N_11  and  C_32
REMARK    7  A    between atoms: N_11  and  C_33
REMARK    8  A    between atoms: C_21  and  C_26
REMARK                            x       y       z     vdW  Elec       q    Type
REMARK                         _______ _______ _______ _____ _____    ______ ____
ROOT
ATOM      3  O   UNL     1      -1.055   2.951  23.249  0.00  0.00    -0.370 OA
ATOM      4  O   UNL     1      -0.734   4.655  25.849  0.00  0.00    -0.370 OA
ATOM     12  C   UNL     1      -1.085   3.283  25.605  0.00  0.00    +0.170 C 
ATOM     13  C   UNL     1      -1.932   3.249  24.348  0.00  0.00    +0.171 C 
ATOM     14  C   UNL     1       0.144   2.486  25.243  0.00  0.00    +0.133 C 
ATOM     15  C   UNL     1      -2.466   4.658  24.224  0.00  0.00    +0.130 C 
ATOM     16  C   UNL     1       0.270   2.723  23.750  0.00  0.00    +0.183 C 
ATOM     17  C   UNL     1      -1.369   5.487  24.866  0.00  0.00    +0.185 C 
ENDROOT
BRANCH  15   8
ATOM      8  N   UNL     1      -3.696   4.789  24.974  0.00  0.00    -0.306 N 
ATOM      9  N   UNL     1      -4.058   2.471  24.998  0.00  0.00    -0.214 NA
ATOM     10  N   UNL     1      -5.611   3.976  26.060  0.00  0.00    -0.223 NA
ATOM     18  C   UNL     1      -4.478   3.713  25.356  0.00  0.00    +0.216 A 
ATOM     21  C   UNL     1      -4.845   1.446  25.385  0.00  0.00    +0.076 A 
ATOM     22  C   UNL     1      -6.350   2.905  26.415  0.00  0.00    +0.116 A 
ATOM     24  C   UNL     1      -6.014   1.605  26.103  0.00  0.00    +0.048 A 
ATOM     35  H   UNL     1      -3.991   5.706  25.290  0.00  0.00    +0.149 HD
BRANCH  21  26
ATOM     26  C   UNL     1      -4.381   0.136  24.997  0.00  0.00    +0.001 A 
ATOM     27  C   UNL     1      -3.712  -0.673  25.917  0.00  0.00    +0.012 A 
ATOM     28  C   UNL     1      -4.596  -0.327  23.696  0.00  0.00    +0.012 A 
ATOM     29  C   UNL     1      -3.478  -2.398  24.243  0.00  0.00    +0.029 A 
ATOM     30  C   UNL     1      -3.262  -1.939  25.541  0.00  0.00    +0.024 A 
ATOM     31  C   UNL     1      -4.146  -1.593  23.320  0.00  0.00    +0.024 A 
BRANCH  29  11
ATOM     11  N   UNL     1      -3.023  -3.678  23.862  0.00  0.00    -0.336 N 
ATOM     32  C   UNL     1      -1.630  -3.891  23.523  0.00  0.00    +0.129 C 
ATOM     33  C   UNL     1      -3.947  -4.793  23.789  0.00  0.00    +0.129 C 
ENDBRANCH  29  11
ENDBRANCH  21  26
ENDBRANCH  15   8
BRANCH  14   7
ATOM      7  N   UNL     1      -0.101   1.045  25.498  0.00  0.00    -0.182 NA
ATOM     34  H   UNL     1       0.208   0.693  26.413  0.00  0.00    +0.149 HD
BRANCH   7   1
ATOM      1  S   UNL     1      -0.193  -0.041  24.197  0.00  0.00    +0.065 S 
ATOM      5  O   UNL     1      -1.257   0.368  23.300  0.00  0.00    -0.153 OA
ATOM      6  O   UNL     1      -0.155  -1.394  24.714  0.00  0.00    -0.153 OA
BRANCH   1  19
ATOM      2  S   UNL     1       1.473  -0.480  21.834  0.00  0.00    -0.077 S 
ATOM     19  C   UNL     1       1.348   0.242  23.378  0.00  0.00    +0.142 A 
ATOM     20  C   UNL     1       2.479   0.932  23.730  0.00  0.00    +0.036 A 
ATOM     23  C   UNL     1       3.475   0.869  22.712  0.00  0.00    +0.010 A 
ATOM     25  C   UNL     1       3.058   0.133  21.625  0.00  0.00    +0.047 A 
ENDBRANCH   1  19
ENDBRANCH   7   1
ENDBRANCH  14   7
TORSDOF 6
ENDMDL
