MODEL 1
REMARK VINA RESULT:      11.8      0.000      0.000
REMARK  Name = 7662560
REMARK  11 active torsions:
REMARK  status: ('A' for Active; 'I' for Inactive)
REMARK    1  A    between atoms: O_4  and  C_29
REMARK    2  A    between atoms: O_4  and  C_35
REMARK    3  A    between atoms: N_7  and  C_11
REMARK    4  A    between atoms: N_9  and  C_25
REMARK    5  A    between atoms: N_10  and  C_32
REMARK    6  A    between atoms: N_10  and  C_33
REMARK    7  A    between atoms: N_10  and  C_34
REMARK    8  A    between atoms: C_17  and  C_22
REMARK    9  A    between atoms: C_23  and  C_24
REMARK   10  A    between atoms: C_25  and  C_28
REMARK   11  A    between atoms: C_25  and  C_29
REMARK                            x       y       z     vdW  Elec       q    Type
REMARK                         _______ _______ _______ _____ _____    ______ ____
ROOT
ATOM      1  O   UNL     1      -3.381  -0.378  26.434  0.00  0.00    -0.253 OA
ATOM      3  O   UNL     1       1.155  -0.511  20.664  0.00  0.00    -0.270 OA
ATOM      6  N   UNL     1      -2.298  -0.103  24.395  0.00  0.00    -0.271 N 
ATOM      7  N   UNL     1      -4.497   0.698  24.737  0.00  0.00    -0.296 N 
ATOM      8  N   UNL     1       0.088  -0.387  22.740  0.00  0.00    -0.294 N 
ATOM     17  C   UNL     1      -2.323   0.229  22.962  0.00  0.00    +0.181 C 
ATOM     18  C   UNL     1      -1.252  -0.511  22.160  0.00  0.00    +0.140 C 
ATOM     19  C   UNL     1      -1.096  -0.780  24.891  0.00  0.00    +0.129 C 
ATOM     20  C   UNL     1       0.172  -0.290  24.203  0.00  0.00    +0.127 C 
ATOM     21  C   UNL     1      -3.393   0.041  25.272  0.00  0.00    +0.303 C 
ATOM     23  C   UNL     1       1.200  -0.431  21.892  0.00  0.00    +0.247 C 
ATOM     36  H   UNL     1      -4.431   1.133  23.826  0.00  0.00    +0.151 HD
ENDROOT
BRANCH   7  11
ATOM     11  C   UNL     1      -5.699   0.930  25.505  0.00  0.00    +0.074 C 
ATOM     12  C   UNL     1      -6.785   1.586  24.645  0.00  0.00    +0.022 C 
ATOM     13  C   UNL     1      -5.400   1.766  26.755  0.00  0.00    +0.022 C 
ATOM     14  C   UNL     1      -6.469   3.045  24.315  0.00  0.00    +0.002 C 
ATOM     15  C   UNL     1      -5.086   3.224  26.422  0.00  0.00    +0.002 C 
ATOM     16  C   UNL     1      -6.186   3.858  25.575  0.00  0.00    +0.000 C 
ENDBRANCH   7  11
BRANCH  23  24
ATOM     24  C   UNL     1       2.538  -0.376  22.501  0.00  0.00    +0.037 A 
ATOM     26  C   UNL     1       3.326   0.766  22.352  0.00  0.00    +0.015 A 
ATOM     27  C   UNL     1       3.019  -1.465  23.228  0.00  0.00    +0.015 A 
ATOM     30  C   UNL     1       4.594   0.818  22.929  0.00  0.00    +0.024 A 
ATOM     31  C   UNL     1       4.288  -1.412  23.805  0.00  0.00    +0.024 A 
ATOM     32  C   UNL     1       5.076  -0.271  23.656  0.00  0.00    +0.029 A 
BRANCH  32  10
ATOM     10  N   UNL     1       6.359  -0.219  24.239  0.00  0.00    -0.336 N 
ATOM     33  C   UNL     1       6.722  -1.140  25.297  0.00  0.00    +0.129 C 
ATOM     34  C   UNL     1       7.326   0.766  23.797  0.00  0.00    +0.129 C 
ENDBRANCH  32  10
ENDBRANCH  23  24
BRANCH  17  22
ATOM      2  O   UNL     1      -2.395   2.316  21.800  0.00  0.00    -0.274 OA
ATOM      9  N   UNL     1      -1.589   2.270  23.983  0.00  0.00    -0.301 N 
ATOM     22  C   UNL     1      -2.122   1.712  22.834  0.00  0.00    +0.236 C 
ATOM     37  H   UNL     1      -1.474   1.685  24.807  0.00  0.00    +0.150 HD
BRANCH   9  25
ATOM     25  C   UNL     1      -1.280   3.675  24.110  0.00  0.00    +0.179 C 
ATOM     28  C   UNL     1       0.177   3.930  23.755  0.00  0.00    +0.040 C 
BRANCH  25  29
ATOM      5  O   UNL     1      -1.875   5.372  25.723  0.00  0.00    -0.249 OA
ATOM     29  C   UNL     1      -1.584   4.200  25.505  0.00  0.00    +0.327 C 
BRANCH  29   4
ATOM      4  O   UNL     1      -1.500   3.225  26.454  0.00  0.00    -0.467 OA
ATOM     35  C   UNL     1      -0.209   2.629  26.622  0.00  0.00    +0.280 C 
ENDBRANCH  29   4
ENDBRANCH  25  29
ENDBRANCH   9  25
ENDBRANCH  17  22
TORSDOF 7
ENDMDL
