MODEL 1
REMARK VINA RESULT:      -4.7      0.000      0.000
REMARK  Name = 11883291
REMARK  7 active torsions:
REMARK  status: ('A' for Active; 'I' for Inactive)
REMARK    1  A    between atoms: S_1  and  N_8
REMARK    2  A    between atoms: S_1  and  C_18
REMARK    3  A    between atoms: O_4  and  C_14
REMARK    4  A    between atoms: O_4  and  C_17
REMARK    5  A    between atoms: N_8  and  C_13
REMARK    6  A    between atoms: C_17  and  C_19
REMARK    7  A    between atoms: C_20  and  C_25
REMARK                            x       y       z     vdW  Elec       q    Type
REMARK                         _______ _______ _______ _____ _____    ______ ____
ROOT
ATOM      2  O   UNL     1      -1.388   0.419  25.578  0.00  0.00    -0.370 OA
ATOM      3  O   UNL     1       1.022  -0.058  23.742  0.00  0.00    -0.370 OA
ATOM     11  C   UNL     1      -0.159   0.753  23.577  0.00  0.00    +0.170 C 
ATOM     12  C   UNL     1      -1.308  -0.008  24.207  0.00  0.00    +0.179 C 
ATOM     13  C   UNL     1      -0.052   2.006  24.416  0.00  0.00    +0.133 C 
ATOM     14  C   UNL     1      -0.848  -1.442  24.096  0.00  0.00    +0.176 C 
ATOM     15  C   UNL     1      -0.481   1.512  25.787  0.00  0.00    +0.183 C 
ATOM     16  C   UNL     1       0.643  -1.317  24.315  0.00  0.00    +0.194 C 
ENDROOT
BRANCH  13   8
ATOM      8  N   UNL     1      -0.934   3.039  23.930  0.00  0.00    -0.182 NA
ATOM     26  H   UNL     1      -0.870   3.310  22.942  0.00  0.00    +0.148 HD
BRANCH   8   1
ATOM      1  S   UNL     1      -1.770   4.023  25.033  0.00  0.00    +0.060 S 
ATOM      5  O   UNL     1      -1.908   5.357  24.481  0.00  0.00    -0.153 OA
ATOM      6  O   UNL     1      -1.199   3.835  26.354  0.00  0.00    -0.153 OA
BRANCH   1  18
ATOM     18  C   UNL     1      -3.371   3.273  25.051  0.00  0.00    +0.123 A 
ATOM     20  C   UNL     1      -3.872   2.618  23.937  0.00  0.00    +0.078 A 
ATOM     21  C   UNL     1      -4.110   3.363  26.222  0.00  0.00    +0.030 A 
ATOM     22  C   UNL     1      -5.141   2.040  23.993  0.00  0.00    +0.021 A 
ATOM     23  C   UNL     1      -5.379   2.786  26.278  0.00  0.00    +0.002 A 
ATOM     24  C   UNL     1      -5.894   2.125  25.164  0.00  0.00    +0.001 A 
BRANCH  20  25
ATOM     10  N   UNL     1      -2.526   2.428  21.731  0.00  0.00    -0.191 NA
ATOM     25  C   UNL     1      -3.128   2.513  22.718  0.00  0.00    +0.101 C 
ENDBRANCH  20  25
ENDBRANCH   1  18
ENDBRANCH   8   1
ENDBRANCH  13   8
BRANCH  14   4
ATOM      4  O   UNL     1      -1.453  -2.302  25.035  0.00  0.00    -0.362 OA
BRANCH   4  17
ATOM     17  C   UNL     1      -2.687  -2.831  24.557  0.00  0.00    +0.255 C 
BRANCH  17  19
ATOM      7  O   UNL     1      -4.612  -1.512  23.927  0.00  0.00    -0.274 OA
ATOM      9  N   UNL     1      -3.768  -1.299  26.057  0.00  0.00    -0.327 N 
ATOM     19  C   UNL     1      -3.790  -1.824  24.783  0.00  0.00    +0.236 C 
ATOM     27  H   UNL     1      -4.452  -0.610  26.349  0.00  0.00    +0.145 HD
ATOM     28  H   UNL     1      -3.076  -1.576  26.746  0.00  0.00    +0.145 HD
ENDBRANCH  17  19
ENDBRANCH   4  17
ENDBRANCH  14   4
TORSDOF 7
ENDMDL
MODEL 2
REMARK VINA RESULT:      -4.6      2.476      4.512
REMARK  Name = 11883291
REMARK  7 active torsions:
REMARK  status: ('A' for Active; 'I' for Inactive)
REMARK    1  A    between atoms: S_1  and  N_8
REMARK    2  A    between atoms: S_1  and  C_18
REMARK    3  A    between atoms: O_4  and  C_14
REMARK    4  A    between atoms: O_4  and  C_17
REMARK    5  A    between atoms: N_8  and  C_13
REMARK    6  A    between atoms: C_17  and  C_19
REMARK    7  A    between atoms: C_20  and  C_25
REMARK                            x       y       z     vdW  Elec       q    Type
REMARK                         _______ _______ _______ _____ _____    ______ ____
ROOT
ATOM      2  O   UNL     1       0.173  -1.305  24.817  0.00  0.00    -0.370 OA
ATOM      3  O   UNL     1      -0.336   1.698  24.455  0.00  0.00    -0.370 OA
ATOM     11  C   UNL     1      -1.160   0.548  24.175  0.00  0.00    +0.170 C 
ATOM     12  C   UNL     1      -0.238  -0.543  23.669  0.00  0.00    +0.179 C 
ATOM     13  C   UNL     1      -1.720  -0.017  25.460  0.00  0.00    +0.133 C 
ATOM     14  C   UNL     1       0.908   0.246  23.083  0.00  0.00    +0.176 C 
ATOM     15  C   UNL     1      -0.565  -0.864  25.967  0.00  0.00    +0.183 C 
ATOM     16  C   UNL     1       1.006   1.419  24.030  0.00  0.00    +0.194 C 
ENDROOT
BRANCH  13   8
ATOM      8  N   UNL     1      -2.892  -0.820  25.214  0.00  0.00    -0.182 NA
ATOM     26  H   UNL     1      -2.919  -1.773  25.596  0.00  0.00    +0.148 HD
BRANCH   8   1
ATOM      1  S   UNL     1      -4.008  -0.345  24.025  0.00  0.00    +0.060 S 
ATOM      5  O   UNL     1      -5.178  -1.200  24.092  0.00  0.00    -0.153 OA
ATOM      6  O   UNL     1      -3.305  -0.167  22.769  0.00  0.00    -0.153 OA
BRANCH   1  18
ATOM     18  C   UNL     1      -4.477   1.265  24.587  0.00  0.00    +0.123 A 
ATOM     20  C   UNL     1      -4.046   2.409  23.933  0.00  0.00    +0.078 A 
ATOM     21  C   UNL     1      -5.292   1.343  25.706  0.00  0.00    +0.030 A 
ATOM     22  C   UNL     1      -4.439   3.661  24.409  0.00  0.00    +0.021 A 
ATOM     23  C   UNL     1      -5.684   2.594  26.183  0.00  0.00    +0.002 A 
ATOM     24  C   UNL     1      -5.258   3.753  25.534  0.00  0.00    +0.001 A 
BRANCH  20  25
ATOM     10  N   UNL     1      -2.522   2.307  21.840  0.00  0.00    -0.191 NA
ATOM     25  C   UNL     1      -3.204   2.352  22.776  0.00  0.00    +0.101 C 
ENDBRANCH  20  25
ENDBRANCH   1  18
ENDBRANCH   8   1
ENDBRANCH  13   8
BRANCH  14   4
ATOM      4  O   UNL     1       2.113  -0.482  23.011  0.00  0.00    -0.362 OA
BRANCH   4  17
ATOM     17  C   UNL     1       3.219   0.348  22.663  0.00  0.00    +0.255 C 
BRANCH  17  19
ATOM      7  O   UNL     1       5.306   0.771  23.806  0.00  0.00    -0.274 OA
ATOM      9  N   UNL     1       4.382  -1.334  23.921  0.00  0.00    -0.327 N 
ATOM     19  C   UNL     1       4.413  -0.018  23.513  0.00  0.00    +0.236 C 
ATOM     27  H   UNL     1       5.122  -1.718  24.499  0.00  0.00    +0.145 HD
ATOM     28  H   UNL     1       3.630  -1.964  23.664  0.00  0.00    +0.145 HD
ENDBRANCH  17  19
ENDBRANCH   4  17
ENDBRANCH  14   4
TORSDOF 7
ENDMDL
MODEL 3
REMARK VINA RESULT:      -4.1      2.936      4.995
REMARK  Name = 11883291
REMARK  7 active torsions:
REMARK  status: ('A' for Active; 'I' for Inactive)
REMARK    1  A    between atoms: S_1  and  N_8
REMARK    2  A    between atoms: S_1  and  C_18
REMARK    3  A    between atoms: O_4  and  C_14
REMARK    4  A    between atoms: O_4  and  C_17
REMARK    5  A    between atoms: N_8  and  C_13
REMARK    6  A    between atoms: C_17  and  C_19
REMARK    7  A    between atoms: C_20  and  C_25
REMARK                            x       y       z     vdW  Elec       q    Type
REMARK                         _______ _______ _______ _____ _____    ______ ____
ROOT
ATOM      2  O   UNL     1       0.808   1.614  23.676  0.00  0.00    -0.370 OA
ATOM      3  O   UNL     1       0.637  -0.826  21.826  0.00  0.00    -0.370 OA
ATOM     11  C   UNL     1       0.288  -0.653  23.214  0.00  0.00    +0.170 C 
ATOM     12  C   UNL     1       1.321   0.278  23.816  0.00  0.00    +0.179 C 
ATOM     13  C   UNL     1      -1.007   0.116  23.334  0.00  0.00    +0.133 C 
ATOM     14  C   UNL     1       2.523   0.046  22.931  0.00  0.00    +0.176 C 
ATOM     15  C   UNL     1      -0.540   1.554  23.187  0.00  0.00    +0.183 C 
ATOM     16  C   UNL     1       1.886  -0.165  21.577  0.00  0.00    +0.194 C 
ENDROOT
BRANCH  13   8
ATOM      8  N   UNL     1      -1.632  -0.104  24.615  0.00  0.00    -0.182 NA
ATOM     26  H   UNL     1      -1.123  -0.653  25.318  0.00  0.00    +0.148 HD
BRANCH   8   1
ATOM      1  S   UNL     1      -3.290   0.205  24.811  0.00  0.00    +0.060 S 
ATOM      5  O   UNL     1      -3.796  -0.563  25.932  0.00  0.00    -0.153 OA
ATOM      6  O   UNL     1      -3.938   0.119  23.516  0.00  0.00    -0.153 OA
BRANCH   1  18
ATOM     18  C   UNL     1      -3.291   1.912  25.274  0.00  0.00    +0.123 A 
ATOM     20  C   UNL     1      -4.469   2.641  25.337  0.00  0.00    +0.078 A 
ATOM     21  C   UNL     1      -2.070   2.498  25.573  0.00  0.00    +0.030 A 
ATOM     22  C   UNL     1      -4.426   3.985  25.706  0.00  0.00    +0.021 A 
ATOM     23  C   UNL     1      -2.027   3.842  25.943  0.00  0.00    +0.002 A 
ATOM     24  C   UNL     1      -3.204   4.586  26.009  0.00  0.00    +0.001 A 
BRANCH  20  25
ATOM     10  N   UNL     1      -6.770   1.583  24.783  0.00  0.00    -0.191 NA
ATOM     25  C   UNL     1      -5.741   2.057  25.031  0.00  0.00    +0.101 C 
ENDBRANCH  20  25
ENDBRANCH   1  18
ENDBRANCH   8   1
ENDBRANCH  13   8
BRANCH  14   4
ATOM      4  O   UNL     1       3.435   1.121  22.929  0.00  0.00    -0.362 OA
BRANCH   4  17
ATOM     17  C   UNL     1       4.780   0.679  22.767  0.00  0.00    +0.255 C 
BRANCH  17  19
ATOM      7  O   UNL     1       5.219  -1.431  23.863  0.00  0.00    -0.274 OA
ATOM      9  N   UNL     1       5.448   0.516  25.067  0.00  0.00    -0.327 N 
ATOM     19  C   UNL     1       5.165  -0.206  23.929  0.00  0.00    +0.236 C 
ATOM     27  H   UNL     1       5.721   0.051  25.926  0.00  0.00    +0.145 HD
ATOM     28  H   UNL     1       5.395   1.530  25.094  0.00  0.00    +0.145 HD
ENDBRANCH  17  19
ENDBRANCH   4  17
ENDBRANCH  14   4
TORSDOF 7
ENDMDL
MODEL 4
REMARK VINA RESULT:      -3.9      2.482      4.119
REMARK  Name = 11883291
REMARK  7 active torsions:
REMARK  status: ('A' for Active; 'I' for Inactive)
REMARK    1  A    between atoms: S_1  and  N_8
REMARK    2  A    between atoms: S_1  and  C_18
REMARK    3  A    between atoms: O_4  and  C_14
REMARK    4  A    between atoms: O_4  and  C_17
REMARK    5  A    between atoms: N_8  and  C_13
REMARK    6  A    between atoms: C_17  and  C_19
REMARK    7  A    between atoms: C_20  and  C_25
REMARK                            x       y       z     vdW  Elec       q    Type
REMARK                         _______ _______ _______ _____ _____    ______ ____
ROOT
ATOM      2  O   UNL     1      -2.922  -0.043  26.100  0.00  0.00    -0.370 OA
ATOM      3  O   UNL     1      -2.722  -2.159  23.889  0.00  0.00    -0.370 OA
ATOM     11  C   UNL     1      -1.991  -0.936  24.110  0.00  0.00    +0.170 C 
ATOM     12  C   UNL     1      -2.976   0.071  24.667  0.00  0.00    +0.179 C 
ATOM     13  C   UNL     1      -0.991  -1.122  25.227  0.00  0.00    +0.133 C 
ATOM     14  C   UNL     1      -4.293  -0.422  24.117  0.00  0.00    +0.176 C 
ATOM     15  C   UNL     1      -1.851  -0.928  26.464  0.00  0.00    +0.183 C 
ATOM     16  C   UNL     1      -4.112  -1.923  24.154  0.00  0.00    +0.194 C 
ENDROOT
BRANCH  13   8
ATOM      8  N   UNL     1       0.060  -0.136  25.159  0.00  0.00    -0.182 NA
ATOM     26  H   UNL     1       0.557   0.107  26.024  0.00  0.00    +0.148 HD
BRANCH   8   1
ATOM      1  S   UNL     1       0.206   0.851  23.785  0.00  0.00    +0.060 S 
ATOM      5  O   UNL     1      -0.214   0.110  22.611  0.00  0.00    -0.153 OA
ATOM      6  O   UNL     1       1.502   1.502  23.812  0.00  0.00    -0.153 OA
BRANCH   1  18
ATOM     18  C   UNL     1      -1.005   2.101  24.103  0.00  0.00    +0.123 A 
ATOM     20  C   UNL     1      -0.982   2.845  25.273  0.00  0.00    +0.078 A 
ATOM     21  C   UNL     1      -1.981   2.310  23.140  0.00  0.00    +0.030 A 
ATOM     22  C   UNL     1      -1.957   3.821  25.484  0.00  0.00    +0.021 A 
ATOM     23  C   UNL     1      -2.955   3.286  23.351  0.00  0.00    +0.002 A 
ATOM     24  C   UNL     1      -2.943   4.041  24.523  0.00  0.00    +0.001 A 
BRANCH  20  25
ATOM     10  N   UNL     1       0.821   2.484  27.098  0.00  0.00    -0.191 NA
ATOM     25  C   UNL     1       0.015   2.645  26.281  0.00  0.00    +0.101 C 
ENDBRANCH  20  25
ENDBRANCH   1  18
ENDBRANCH   8   1
ENDBRANCH  13   8
BRANCH  14   4
ATOM      4  O   UNL     1      -5.410  -0.003  24.869  0.00  0.00    -0.362 OA
BRANCH   4  17
ATOM     17  C   UNL     1      -5.742   1.360  24.617  0.00  0.00    +0.255 C 
BRANCH  17  19
ATOM      7  O   UNL     1      -6.431   1.435  26.933  0.00  0.00    -0.274 OA
ATOM      9  N   UNL     1      -6.020   3.413  25.831  0.00  0.00    -0.327 N 
ATOM     19  C   UNL     1      -6.103   2.040  25.916  0.00  0.00    +0.236 C 
ATOM     27  H   UNL     1      -6.234   3.999  26.629  0.00  0.00    +0.145 HD
ATOM     28  H   UNL     1      -5.745   3.887  24.976  0.00  0.00    +0.145 HD
ENDBRANCH  17  19
ENDBRANCH   4  17
ENDBRANCH  14   4
TORSDOF 7
ENDMDL
MODEL 5
REMARK VINA RESULT:      -3.7      2.921      4.957
REMARK  Name = 11883291
REMARK  7 active torsions:
REMARK  status: ('A' for Active; 'I' for Inactive)
REMARK    1  A    between atoms: S_1  and  N_8
REMARK    2  A    between atoms: S_1  and  C_18
REMARK    3  A    between atoms: O_4  and  C_14
REMARK    4  A    between atoms: O_4  and  C_17
REMARK    5  A    between atoms: N_8  and  C_13
REMARK    6  A    between atoms: C_17  and  C_19
REMARK    7  A    between atoms: C_20  and  C_25
REMARK                            x       y       z     vdW  Elec       q    Type
REMARK                         _______ _______ _______ _____ _____    ______ ____
ROOT
ATOM      2  O   UNL     1       1.060   1.839  23.586  0.00  0.00    -0.370 OA
ATOM      3  O   UNL     1       0.468  -0.684  21.945  0.00  0.00    -0.370 OA
ATOM     11  C   UNL     1       0.258  -0.379  23.339  0.00  0.00    +0.170 C 
ATOM     12  C   UNL     1       1.434   0.465  23.787  0.00  0.00    +0.179 C 
ATOM     13  C   UNL     1      -0.930   0.540  23.497  0.00  0.00    +0.133 C 
ATOM     14  C   UNL     1       2.524   0.037  22.834  0.00  0.00    +0.176 C 
ATOM     15  C   UNL     1      -0.323   1.902  23.206  0.00  0.00    +0.183 C 
ATOM     16  C   UNL     1       1.756  -0.189  21.552  0.00  0.00    +0.194 C 
ENDROOT
BRANCH  13   8
ATOM      8  N   UNL     1      -1.465   0.480  24.835  0.00  0.00    -0.182 NA
ATOM     26  H   UNL     1      -0.820   0.601  25.625  0.00  0.00    +0.148 HD
BRANCH   8   1
ATOM      1  S   UNL     1      -3.024  -0.141  25.095  0.00  0.00    +0.060 S 
ATOM      5  O   UNL     1      -3.066  -0.822  26.375  0.00  0.00    -0.153 OA
ATOM      6  O   UNL     1      -3.462  -0.823  23.892  0.00  0.00    -0.153 OA
BRANCH   1  18
ATOM     18  C   UNL     1      -3.988   1.335  25.231  0.00  0.00    +0.123 A 
ATOM     20  C   UNL     1      -3.421   2.530  25.647  0.00  0.00    +0.078 A 
ATOM     21  C   UNL     1      -5.334   1.256  24.906  0.00  0.00    +0.030 A 
ATOM     22  C   UNL     1      -4.217   3.672  25.741  0.00  0.00    +0.021 A 
ATOM     23  C   UNL     1      -6.131   2.398  25.001  0.00  0.00    +0.002 A 
ATOM     24  C   UNL     1      -5.572   3.605  25.419  0.00  0.00    +0.001 A 
BRANCH  20  25
ATOM     10  N   UNL     1      -0.911   2.720  26.264  0.00  0.00    -0.191 NA
ATOM     25  C   UNL     1      -2.034   2.635  25.988  0.00  0.00    +0.101 C 
ENDBRANCH  20  25
ENDBRANCH   1  18
ENDBRANCH   8   1
ENDBRANCH  13   8
BRANCH  14   4
ATOM      4  O   UNL     1       3.545   0.997  22.680  0.00  0.00    -0.362 OA
BRANCH   4  17
ATOM     17  C   UNL     1       4.839   0.400  22.649  0.00  0.00    +0.255 C 
BRANCH  17  19
ATOM      7  O   UNL     1       5.554   0.705  24.938  0.00  0.00    -0.274 OA
ATOM      9  N   UNL     1       5.138  -1.427  24.178  0.00  0.00    -0.327 N 
ATOM     19  C   UNL     1       5.217  -0.059  24.037  0.00  0.00    +0.236 C 
ATOM     27  H   UNL     1       5.364  -1.875  25.059  0.00  0.00    +0.145 HD
ATOM     28  H   UNL     1       4.856  -2.035  23.415  0.00  0.00    +0.145 HD
ENDBRANCH  17  19
ENDBRANCH   4  17
ENDBRANCH  14   4
TORSDOF 7
ENDMDL
MODEL 6
REMARK VINA RESULT:      -3.5      2.303      4.975
REMARK  Name = 11883291
REMARK  7 active torsions:
REMARK  status: ('A' for Active; 'I' for Inactive)
REMARK    1  A    between atoms: S_1  and  N_8
REMARK    2  A    between atoms: S_1  and  C_18
REMARK    3  A    between atoms: O_4  and  C_14
REMARK    4  A    between atoms: O_4  and  C_17
REMARK    5  A    between atoms: N_8  and  C_13
REMARK    6  A    between atoms: C_17  and  C_19
REMARK    7  A    between atoms: C_20  and  C_25
REMARK                            x       y       z     vdW  Elec       q    Type
REMARK                         _______ _______ _______ _____ _____    ______ ____
ROOT
ATOM      2  O   UNL     1      -2.360   2.401  23.920  0.00  0.00    -0.370 OA
ATOM      3  O   UNL     1      -0.699   4.524  25.383  0.00  0.00    -0.370 OA
ATOM     11  C   UNL     1      -0.849   3.107  25.606  0.00  0.00    +0.170 C 
ATOM     12  C   UNL     1      -2.295   2.766  25.309  0.00  0.00    +0.179 C 
ATOM     13  C   UNL     1      -0.073   2.331  24.567  0.00  0.00    +0.133 C 
ATOM     14  C   UNL     1      -3.000   4.074  25.577  0.00  0.00    +0.176 C 
ATOM     15  C   UNL     1      -1.029   2.331  23.386  0.00  0.00    +0.183 C 
ATOM     16  C   UNL     1      -1.987   5.087  25.096  0.00  0.00    +0.194 C 
ENDROOT
BRANCH  13   8
ATOM      8  N   UNL     1       0.207   0.989  25.015  0.00  0.00    -0.182 NA
ATOM     26  H   UNL     1       0.778   0.866  25.860  0.00  0.00    +0.148 HD
BRANCH   8   1
ATOM      1  S   UNL     1      -0.076  -0.325  23.977  0.00  0.00    +0.060 S 
ATOM      5  O   UNL     1       0.739  -1.451  24.392  0.00  0.00    -0.153 OA
ATOM      6  O   UNL     1      -0.029   0.144  22.605  0.00  0.00    -0.153 OA
BRANCH   1  18
ATOM     18  C   UNL     1      -1.764  -0.714  24.331  0.00  0.00    +0.123 A 
ATOM     20  C   UNL     1      -2.199  -0.918  25.632  0.00  0.00    +0.078 A 
ATOM     21  C   UNL     1      -2.640  -0.809  23.260  0.00  0.00    +0.030 A 
ATOM     22  C   UNL     1      -3.540  -1.223  25.868  0.00  0.00    +0.021 A 
ATOM     23  C   UNL     1      -3.981  -1.114  23.496  0.00  0.00    +0.002 A 
ATOM     24  C   UNL     1      -4.430  -1.322  24.799  0.00  0.00    +0.001 A 
BRANCH  20  25
ATOM     10  N   UNL     1      -0.593  -0.752  27.659  0.00  0.00    -0.191 NA
ATOM     25  C   UNL     1      -1.312  -0.826  26.753  0.00  0.00    +0.101 C 
ENDBRANCH  20  25
ENDBRANCH   1  18
ENDBRANCH   8   1
ENDBRANCH  13   8
BRANCH  14   4
ATOM      4  O   UNL     1      -4.234   4.196  24.906  0.00  0.00    -0.362 OA
BRANCH   4  17
ATOM     17  C   UNL     1      -5.339   3.936  25.768  0.00  0.00    +0.255 C 
BRANCH  17  19
ATOM      7  O   UNL     1      -5.620   1.862  24.559  0.00  0.00    -0.274 OA
ATOM      9  N   UNL     1      -6.419   2.010  26.711  0.00  0.00    -0.327 N 
ATOM     19  C   UNL     1      -5.793   2.506  25.589  0.00  0.00    +0.236 C 
ATOM     27  H   UNL     1      -6.776   1.061  26.733  0.00  0.00    +0.145 HD
ATOM     28  H   UNL     1      -6.549   2.566  27.551  0.00  0.00    +0.145 HD
ENDBRANCH  17  19
ENDBRANCH   4  17
ENDBRANCH  14   4
TORSDOF 7
ENDMDL
MODEL 7
REMARK VINA RESULT:      -3.4      2.151      4.052
REMARK  Name = 11883291
REMARK  7 active torsions:
REMARK  status: ('A' for Active; 'I' for Inactive)
REMARK    1  A    between atoms: S_1  and  N_8
REMARK    2  A    between atoms: S_1  and  C_18
REMARK    3  A    between atoms: O_4  and  C_14
REMARK    4  A    between atoms: O_4  and  C_17
REMARK    5  A    between atoms: N_8  and  C_13
REMARK    6  A    between atoms: C_17  and  C_19
REMARK    7  A    between atoms: C_20  and  C_25
REMARK                            x       y       z     vdW  Elec       q    Type
REMARK                         _______ _______ _______ _____ _____    ______ ____
ROOT
ATOM      2  O   UNL     1      -2.589  -0.149  26.053  0.00  0.00    -0.370 OA
ATOM      3  O   UNL     1      -3.007  -2.292  23.899  0.00  0.00    -0.370 OA
ATOM     11  C   UNL     1      -2.056  -1.213  24.001  0.00  0.00    +0.170 C 
ATOM     12  C   UNL     1      -2.784  -0.043  24.632  0.00  0.00    +0.179 C 
ATOM     13  C   UNL     1      -0.984  -1.558  25.008  0.00  0.00    +0.133 C 
ATOM     14  C   UNL     1      -4.219  -0.304  24.243  0.00  0.00    +0.176 C 
ATOM     15  C   UNL     1      -1.653  -1.203  26.325  0.00  0.00    +0.183 C 
ATOM     16  C   UNL     1      -4.297  -1.813  24.306  0.00  0.00    +0.194 C 
ENDROOT
BRANCH  13   8
ATOM      8  N   UNL     1       0.207  -0.772  24.797  0.00  0.00    -0.182 NA
ATOM     26  H   UNL     1       0.928  -0.772  25.528  0.00  0.00    +0.148 HD
BRANCH   8   1
ATOM      1  S   UNL     1       0.240   0.398  23.567  0.00  0.00    +0.060 S 
ATOM      5  O   UNL     1      -0.667   0.008  22.505  0.00  0.00    -0.153 OA
ATOM      6  O   UNL     1       1.622   0.721  23.265  0.00  0.00    -0.153 OA
BRANCH   1  18
ATOM     18  C   UNL     1      -0.451   1.807  24.384  0.00  0.00    +0.123 A 
ATOM     20  C   UNL     1      -1.475   2.543  23.807  0.00  0.00    +0.078 A 
ATOM     21  C   UNL     1       0.069   2.151  25.623  0.00  0.00    +0.030 A 
ATOM     22  C   UNL     1      -1.991   3.648  24.485  0.00  0.00    +0.021 A 
ATOM     23  C   UNL     1      -0.447   3.256  26.300  0.00  0.00    +0.002 A 
ATOM     24  C   UNL     1      -1.476   4.004  25.731  0.00  0.00    +0.001 A 
BRANCH  20  25
ATOM     10  N   UNL     1      -2.473   1.935  21.494  0.00  0.00    -0.191 NA
ATOM     25  C   UNL     1      -2.026   2.207  22.529  0.00  0.00    +0.101 C 
ENDBRANCH  20  25
ENDBRANCH   1  18
ENDBRANCH   8   1
ENDBRANCH  13   8
BRANCH  14   4
ATOM      4  O   UNL     1      -5.155   0.312  25.099  0.00  0.00    -0.362 OA
BRANCH   4  17
ATOM     17  C   UNL     1      -5.453   1.645  24.692  0.00  0.00    +0.255 C 
BRANCH  17  19
ATOM      7  O   UNL     1      -5.105   3.611  26.056  0.00  0.00    -0.274 OA
ATOM      9  N   UNL     1      -6.480   1.941  26.843  0.00  0.00    -0.327 N 
ATOM     19  C   UNL     1      -5.641   2.515  25.913  0.00  0.00    +0.236 C 
ATOM     27  H   UNL     1      -6.696   2.415  27.712  0.00  0.00    +0.145 HD
ATOM     28  H   UNL     1      -6.909   1.033  26.698  0.00  0.00    +0.145 HD
ENDBRANCH  17  19
ENDBRANCH   4  17
ENDBRANCH  14   4
TORSDOF 7
ENDMDL
MODEL 8
REMARK VINA RESULT:      -3.0      1.166      1.995
REMARK  Name = 11883291
REMARK  7 active torsions:
REMARK  status: ('A' for Active; 'I' for Inactive)
REMARK    1  A    between atoms: S_1  and  N_8
REMARK    2  A    between atoms: S_1  and  C_18
REMARK    3  A    between atoms: O_4  and  C_14
REMARK    4  A    between atoms: O_4  and  C_17
REMARK    5  A    between atoms: N_8  and  C_13
REMARK    6  A    between atoms: C_17  and  C_19
REMARK    7  A    between atoms: C_20  and  C_25
REMARK                            x       y       z     vdW  Elec       q    Type
REMARK                         _______ _______ _______ _____ _____    ______ ____
ROOT
ATOM      2  O   UNL     1      -0.934   0.665  25.563  0.00  0.00    -0.370 OA
ATOM      3  O   UNL     1       1.045   0.090  23.292  0.00  0.00    -0.370 OA
ATOM     11  C   UNL     1      -0.069   1.002  23.381  0.00  0.00    +0.170 C 
ATOM     12  C   UNL     1      -1.146   0.305  24.187  0.00  0.00    +0.179 C 
ATOM     13  C   UNL     1       0.303   2.196  24.229  0.00  0.00    +0.133 C 
ATOM     14  C   UNL     1      -0.845  -1.154  23.939  0.00  0.00    +0.176 C 
ATOM     15  C   UNL     1       0.090   1.668  25.638  0.00  0.00    +0.183 C 
ATOM     16  C   UNL     1       0.665  -1.163  23.879  0.00  0.00    +0.194 C 
ENDROOT
BRANCH  13   8
ATOM      8  N   UNL     1      -0.556   3.322  23.956  0.00  0.00    -0.182 NA
ATOM     26  H   UNL     1      -0.455   3.805  23.055  0.00  0.00    +0.148 HD
BRANCH   8   1
ATOM      1  S   UNL     1      -1.426   4.048  25.221  0.00  0.00    +0.060 S 
ATOM      5  O   UNL     1      -1.521   5.476  24.985  0.00  0.00    -0.153 OA
ATOM      6  O   UNL     1      -0.918   3.549  26.485  0.00  0.00    -0.153 OA
BRANCH   1  18
ATOM     18  C   UNL     1      -3.037   3.352  25.002  0.00  0.00    +0.123 A 
ATOM     20  C   UNL     1      -3.970   3.359  26.028  0.00  0.00    +0.078 A 
ATOM     21  C   UNL     1      -3.335   2.795  23.767  0.00  0.00    +0.030 A 
ATOM     22  C   UNL     1      -5.230   2.799  25.815  0.00  0.00    +0.021 A 
ATOM     23  C   UNL     1      -4.595   2.235  23.554  0.00  0.00    +0.002 A 
ATOM     24  C   UNL     1      -5.541   2.236  24.577  0.00  0.00    +0.001 A 
BRANCH  20  25
ATOM     10  N   UNL     1      -3.451   4.387  28.350  0.00  0.00    -0.191 NA
ATOM     25  C   UNL     1      -3.683   3.927  27.312  0.00  0.00    +0.101 C 
ENDBRANCH  20  25
ENDBRANCH   1  18
ENDBRANCH   8   1
ENDBRANCH  13   8
BRANCH  14   4
ATOM      4  O   UNL     1      -1.343  -2.009  24.943  0.00  0.00    -0.362 OA
BRANCH   4  17
ATOM     17  C   UNL     1      -2.560  -2.640  24.553  0.00  0.00    +0.255 C 
BRANCH  17  19
ATOM      7  O   UNL     1      -4.589  -1.484  23.928  0.00  0.00    -0.274 OA
ATOM      9  N   UNL     1      -3.668  -1.073  25.996  0.00  0.00    -0.327 N 
ATOM     19  C   UNL     1      -3.712  -1.686  24.763  0.00  0.00    +0.236 C 
ATOM     27  H   UNL     1      -4.381  -0.407  26.273  0.00  0.00    +0.145 HD
ATOM     28  H   UNL     1      -2.931  -1.259  26.668  0.00  0.00    +0.145 HD
ENDBRANCH  17  19
ENDBRANCH   4  17
ENDBRANCH  14   4
TORSDOF 7
ENDMDL
MODEL 9
REMARK VINA RESULT:      -2.9      3.118      5.540
REMARK  Name = 11883291
REMARK  7 active torsions:
REMARK  status: ('A' for Active; 'I' for Inactive)
REMARK    1  A    between atoms: S_1  and  N_8
REMARK    2  A    between atoms: S_1  and  C_18
REMARK    3  A    between atoms: O_4  and  C_14
REMARK    4  A    between atoms: O_4  and  C_17
REMARK    5  A    between atoms: N_8  and  C_13
REMARK    6  A    between atoms: C_17  and  C_19
REMARK    7  A    between atoms: C_20  and  C_25
REMARK                            x       y       z     vdW  Elec       q    Type
REMARK                         _______ _______ _______ _____ _____    ______ ____
ROOT
ATOM      2  O   UNL     1       1.650   1.803  23.614  0.00  0.00    -0.370 OA
ATOM      3  O   UNL     1       0.486  -0.542  22.017  0.00  0.00    -0.370 OA
ATOM     11  C   UNL     1       0.575  -0.303  23.436  0.00  0.00    +0.170 C 
ATOM     12  C   UNL     1       1.899   0.389  23.685  0.00  0.00    +0.179 C 
ATOM     13  C   UNL     1      -0.454   0.721  23.856  0.00  0.00    +0.133 C 
ATOM     14  C   UNL     1       2.739  -0.089  22.524  0.00  0.00    +0.176 C 
ATOM     15  C   UNL     1       0.236   2.029  23.509  0.00  0.00    +0.183 C 
ATOM     16  C   UNL     1       1.726  -0.158  21.404  0.00  0.00    +0.194 C 
ENDROOT
BRANCH  13   8
ATOM      8  N   UNL     1      -0.734   0.634  25.269  0.00  0.00    -0.182 NA
ATOM     26  H   UNL     1      -0.489   1.434  25.864  0.00  0.00    +0.148 HD
BRANCH   8   1
ATOM      1  S   UNL     1      -1.100  -0.870  25.967  0.00  0.00    +0.060 S 
ATOM      5  O   UNL     1      -1.493  -0.678  27.350  0.00  0.00    -0.153 OA
ATOM      6  O   UNL     1      -0.048  -1.810  25.631  0.00  0.00    -0.153 OA
BRANCH   1  18
ATOM     18  C   UNL     1      -2.536  -1.356  25.055  0.00  0.00    +0.123 A 
ATOM     20  C   UNL     1      -3.525  -0.441  24.727  0.00  0.00    +0.078 A 
ATOM     21  C   UNL     1      -2.639  -2.688  24.681  0.00  0.00    +0.030 A 
ATOM     22  C   UNL     1      -4.642  -0.867  24.008  0.00  0.00    +0.021 A 
ATOM     23  C   UNL     1      -3.756  -3.113  23.961  0.00  0.00    +0.002 A 
ATOM     24  C   UNL     1      -4.757  -2.203  23.625  0.00  0.00    +0.001 A 
BRANCH  20  25
ATOM     10  N   UNL     1      -3.372   2.054  25.410  0.00  0.00    -0.191 NA
ATOM     25  C   UNL     1      -3.440   0.938  25.105  0.00  0.00    +0.101 C 
ENDBRANCH  20  25
ENDBRANCH   1  18
ENDBRANCH   8   1
ENDBRANCH  13   8
BRANCH  14   4
ATOM      4  O   UNL     1       3.814   0.771  22.216  0.00  0.00    -0.362 OA
BRANCH   4  17
ATOM     17  C   UNL     1       4.694   0.944  23.323  0.00  0.00    +0.255 C 
BRANCH  17  19
ATOM      7  O   UNL     1       6.657  -0.381  22.838  0.00  0.00    -0.274 OA
ATOM      9  N   UNL     1       5.095  -1.207  24.312  0.00  0.00    -0.327 N 
ATOM     19  C   UNL     1       5.596  -0.262  23.445  0.00  0.00    +0.236 C 
ATOM     27  H   UNL     1       5.598  -2.070  24.491  0.00  0.00    +0.145 HD
ATOM     28  H   UNL     1       4.214  -1.082  24.801  0.00  0.00    +0.145 HD
ENDBRANCH  17  19
ENDBRANCH   4  17
ENDBRANCH  14   4
TORSDOF 7
ENDMDL
MODEL 10
REMARK VINA RESULT:      -2.9      2.879      4.543
REMARK  Name = 11883291
REMARK  7 active torsions:
REMARK  status: ('A' for Active; 'I' for Inactive)
REMARK    1  A    between atoms: S_1  and  N_8
REMARK    2  A    between atoms: S_1  and  C_18
REMARK    3  A    between atoms: O_4  and  C_14
REMARK    4  A    between atoms: O_4  and  C_17
REMARK    5  A    between atoms: N_8  and  C_13
REMARK    6  A    between atoms: C_17  and  C_19
REMARK    7  A    between atoms: C_20  and  C_25
REMARK                            x       y       z     vdW  Elec       q    Type
REMARK                         _______ _______ _______ _____ _____    ______ ____
ROOT
ATOM      2  O   UNL     1       1.002   2.798  23.557  0.00  0.00    -0.370 OA
ATOM      3  O   UNL     1      -0.209  -0.005  23.260  0.00  0.00    -0.370 OA
ATOM     11  C   UNL     1      -0.117   0.882  24.394  0.00  0.00    +0.170 C 
ATOM     12  C   UNL     1       1.221   1.584  24.297  0.00  0.00    +0.179 C 
ATOM     13  C   UNL     1      -1.124   2.001  24.263  0.00  0.00    +0.133 C 
ATOM     14  C   UNL     1       2.052   0.596  23.515  0.00  0.00    +0.176 C 
ATOM     15  C   UNL     1      -0.406   2.972  23.341  0.00  0.00    +0.183 C 
ATOM     16  C   UNL     1       1.039   0.018  22.553  0.00  0.00    +0.194 C 
ENDROOT
BRANCH  13   8
ATOM      8  N   UNL     1      -1.408   2.604  25.542  0.00  0.00    -0.182 NA
ATOM     26  H   UNL     1      -0.874   2.287  26.359  0.00  0.00    +0.148 HD
BRANCH   8   1
ATOM      1  S   UNL     1      -2.823   3.520  25.748  0.00  0.00    +0.060 S 
ATOM      5  O   UNL     1      -2.855   4.588  24.768  0.00  0.00    -0.153 OA
ATOM      6  O   UNL     1      -2.985   3.819  27.159  0.00  0.00    -0.153 OA
BRANCH   1  18
ATOM     18  C   UNL     1      -4.080   2.351  25.322  0.00  0.00    +0.123 A 
ATOM     20  C   UNL     1      -5.416   2.720  25.262  0.00  0.00    +0.078 A 
ATOM     21  C   UNL     1      -3.684   1.050  25.051  0.00  0.00    +0.030 A 
ATOM     22  C   UNL     1      -6.377   1.768  24.922  0.00  0.00    +0.021 A 
ATOM     23  C   UNL     1      -4.645   0.097  24.711  0.00  0.00    +0.002 A 
ATOM     24  C   UNL     1      -5.990   0.456  24.648  0.00  0.00    +0.001 A 
BRANCH  20  25
ATOM     10  N   UNL     1      -6.197   5.140  25.764  0.00  0.00    -0.191 NA
ATOM     25  C   UNL     1      -5.848   4.057  25.539  0.00  0.00    +0.101 C 
ENDBRANCH  20  25
ENDBRANCH   1  18
ENDBRANCH   8   1
ENDBRANCH  13   8
BRANCH  14   4
ATOM      4  O   UNL     1       3.146   1.183  22.846  0.00  0.00    -0.362 OA
BRANCH   4  17
ATOM     17  C   UNL     1       4.164   0.232  22.547  0.00  0.00    +0.255 C 
BRANCH  17  19
ATOM      7  O   UNL     1       5.552   0.812  24.439  0.00  0.00    -0.274 OA
ATOM      9  N   UNL     1       4.974  -1.392  24.120  0.00  0.00    -0.327 N 
ATOM     19  C   UNL     1       4.970  -0.054  23.792  0.00  0.00    +0.236 C 
ATOM     27  H   UNL     1       5.476  -1.729  24.934  0.00  0.00    +0.145 HD
ATOM     28  H   UNL     1       4.483  -2.088  23.566  0.00  0.00    +0.145 HD
ENDBRANCH  17  19
ENDBRANCH   4  17
ENDBRANCH  14   4
TORSDOF 7
ENDMDL
