MODEL 1
REMARK VINA RESULT:      -4.4      0.000      0.000
REMARK  Name = 45784192
REMARK  6 active torsions:
REMARK  status: ('A' for Active; 'I' for Inactive)
REMARK    1  A    between atoms: N_2  and  C_8
REMARK    2  A    between atoms: C_4  and  C_10
REMARK    3  A    between atoms: C_8  and  C_9
REMARK    4  A    between atoms: C_9  and  C_11
REMARK    5  A    between atoms: C_9  and  C_12
REMARK    6  A    between atoms: C_17  and  C_19
REMARK                            x       y       z     vdW  Elec       q    Type
REMARK                         _______ _______ _______ _____ _____    ______ ____
ROOT
ATOM      1  O   UNL     1      -0.402   1.918  24.868  0.00  0.00    -0.439 OA
ATOM      3  N   UNL     1      -2.047   0.628  23.995  0.00  0.00    -0.213 NA
ATOM     10  C   UNL     1      -0.757   0.789  24.194  0.00  0.00    +0.201 A 
ATOM     13  C   UNL     1      -2.599   1.738  24.585  0.00  0.00    +0.110 A 
ATOM     14  C   UNL     1      -1.595   2.531  25.120  0.00  0.00    +0.155 A 
ATOM     15  C   UNL     1      -3.932   2.155  24.712  0.00  0.00    +0.035 A 
ATOM     16  C   UNL     1      -1.805   3.731  25.788  0.00  0.00    +0.049 A 
ATOM     17  C   UNL     1      -4.184   3.362  25.381  0.00  0.00    -0.048 A 
ATOM     18  C   UNL     1      -3.139   4.132  25.907  0.00  0.00    +0.007 A 
ATOM     19  C   UNL     1      -5.593   3.833  25.533  0.00  0.00    +0.044 C 
ENDROOT
BRANCH  10   4
ATOM      2  N   UNL     1       2.524  -0.099  22.825  0.00  0.00    -0.301 NA
ATOM      4  C   UNL     1       0.379  -0.114  23.772  0.00  0.00    +0.090 C 
ATOM      5  C   UNL     1       1.752   0.561  23.880  0.00  0.00    +0.097 C 
ATOM      6  C   UNL     1       0.302  -0.614  22.319  0.00  0.00    +0.029 C 
ATOM      7  C   UNL     1       1.613  -0.172  21.681  0.00  0.00    +0.085 C 
BRANCH   2   8
ATOM      8  C   UNL     1       3.755   0.611  22.509  0.00  0.00    +0.087 C 
BRANCH   8   9
ATOM      9  C   UNL     1       4.997  -0.072  23.108  0.00  0.00    -0.003 C 
ATOM     11  C   UNL     1       5.660   0.863  24.122  0.00  0.00    +0.008 C 
ATOM     12  C   UNL     1       4.666  -1.408  23.779  0.00  0.00    +0.008 C 
ENDBRANCH   8   9
ENDBRANCH   2   8
ENDBRANCH  10   4
TORSDOF 3
ENDMDL
MODEL 2
REMARK VINA RESULT:      -4.4      1.032      1.601
REMARK  Name = 45784192
REMARK  6 active torsions:
REMARK  status: ('A' for Active; 'I' for Inactive)
REMARK    1  A    between atoms: N_2  and  C_8
REMARK    2  A    between atoms: C_4  and  C_10
REMARK    3  A    between atoms: C_8  and  C_9
REMARK    4  A    between atoms: C_9  and  C_11
REMARK    5  A    between atoms: C_9  and  C_12
REMARK    6  A    between atoms: C_17  and  C_19
REMARK                            x       y       z     vdW  Elec       q    Type
REMARK                         _______ _______ _______ _____ _____    ______ ____
ROOT
ATOM      1  O   UNL     1      -2.242  -0.203  24.266  0.00  0.00    -0.439 OA
ATOM      3  N   UNL     1      -1.218   1.818  24.270  0.00  0.00    -0.213 NA
ATOM     10  C   UNL     1      -1.099   0.519  24.101  0.00  0.00    +0.201 A 
ATOM     13  C   UNL     1      -2.548   1.977  24.571  0.00  0.00    +0.110 A 
ATOM     14  C   UNL     1      -3.179   0.742  24.570  0.00  0.00    +0.155 A 
ATOM     15  C   UNL     1      -3.303   3.123  24.859  0.00  0.00    +0.035 A 
ATOM     16  C   UNL     1      -4.528   0.541  24.837  0.00  0.00    +0.049 A 
ATOM     17  C   UNL     1      -4.669   2.961  25.134  0.00  0.00    -0.048 A 
ATOM     18  C   UNL     1      -5.266   1.694  25.121  0.00  0.00    +0.007 A 
ATOM     19  C   UNL     1      -5.500   4.162  25.443  0.00  0.00    +0.044 C 
ENDROOT
BRANCH  10   4
ATOM      2  N   UNL     1       2.337  -0.052  22.962  0.00  0.00    -0.301 NA
ATOM      4  C   UNL     1       0.139  -0.274  23.749  0.00  0.00    +0.090 C 
ATOM      5  C   UNL     1       1.436   0.515  23.969  0.00  0.00    +0.097 C 
ATOM      6  C   UNL     1       0.211  -0.744  22.286  0.00  0.00    +0.029 C 
ATOM      7  C   UNL     1       1.520  -0.176  21.754  0.00  0.00    +0.085 C 
BRANCH   2   8
ATOM      8  C   UNL     1       3.520   0.769  22.749  0.00  0.00    +0.087 C 
BRANCH   8   9
ATOM      9  C   UNL     1       4.821   0.023  23.092  0.00  0.00    -0.003 C 
ATOM     11  C   UNL     1       5.673   0.878  24.033  0.00  0.00    +0.008 C 
ATOM     12  C   UNL     1       4.563  -1.345  23.731  0.00  0.00    +0.008 C 
ENDBRANCH   8   9
ENDBRANCH   2   8
ENDBRANCH  10   4
TORSDOF 3
ENDMDL
MODEL 3
REMARK VINA RESULT:      -3.1     18.596     19.180
REMARK  Name = 45784192
REMARK  6 active torsions:
REMARK  status: ('A' for Active; 'I' for Inactive)
REMARK    1  A    between atoms: N_2  and  C_8
REMARK    2  A    between atoms: C_4  and  C_10
REMARK    3  A    between atoms: C_8  and  C_9
REMARK    4  A    between atoms: C_9  and  C_11
REMARK    5  A    between atoms: C_9  and  C_12
REMARK    6  A    between atoms: C_17  and  C_19
REMARK                            x       y       z     vdW  Elec       q    Type
REMARK                         _______ _______ _______ _____ _____    ______ ____
ROOT
ATOM      1  O   UNL     1      16.464  -4.994  30.019  0.00  0.00    -0.439 OA
ATOM      3  N   UNL     1      16.524  -5.201  32.275  0.00  0.00    -0.213 NA
ATOM     10  C   UNL     1      16.425  -5.807  31.111  0.00  0.00    +0.201 A 
ATOM     13  C   UNL     1      16.638  -3.876  31.932  0.00  0.00    +0.110 A 
ATOM     14  C   UNL     1      16.601  -3.745  30.552  0.00  0.00    +0.155 A 
ATOM     15  C   UNL     1      16.775  -2.722  32.718  0.00  0.00    +0.035 A 
ATOM     16  C   UNL     1      16.691  -2.539  29.868  0.00  0.00    +0.049 A 
ATOM     17  C   UNL     1      16.869  -1.485  32.064  0.00  0.00    -0.048 A 
ATOM     18  C   UNL     1      16.828  -1.399  30.666  0.00  0.00    +0.007 A 
ATOM     19  C   UNL     1      17.016  -0.239  32.873  0.00  0.00    +0.044 C 
ENDROOT
BRANCH  10   4
ATOM      2  N   UNL     1      16.246  -8.863  29.098  0.00  0.00    -0.301 NA
ATOM      4  C   UNL     1      16.276  -7.285  30.832  0.00  0.00    +0.090 C 
ATOM      5  C   UNL     1      17.048  -7.739  29.586  0.00  0.00    +0.097 C 
ATOM      6  C   UNL     1      14.831  -7.753  30.589  0.00  0.00    +0.029 C 
ATOM      7  C   UNL     1      14.857  -8.416  29.218  0.00  0.00    +0.085 C 
BRANCH   2   8
ATOM      8  C   UNL     1      16.591  -9.243  27.736  0.00  0.00    +0.087 C 
BRANCH   8   9
ATOM      9  C   UNL     1      15.625  -8.646  26.698  0.00  0.00    -0.003 C 
ATOM     11  C   UNL     1      16.300  -7.474  25.979  0.00  0.00    +0.008 C 
ATOM     12  C   UNL     1      15.157  -9.679  25.670  0.00  0.00    +0.008 C 
ENDBRANCH   8   9
ENDBRANCH   2   8
ENDBRANCH  10   4
TORSDOF 3
ENDMDL
MODEL 4
REMARK VINA RESULT:      -2.2      1.810      7.509
REMARK  Name = 45784192
REMARK  6 active torsions:
REMARK  status: ('A' for Active; 'I' for Inactive)
REMARK    1  A    between atoms: N_2  and  C_8
REMARK    2  A    between atoms: C_4  and  C_10
REMARK    3  A    between atoms: C_8  and  C_9
REMARK    4  A    between atoms: C_9  and  C_11
REMARK    5  A    between atoms: C_9  and  C_12
REMARK    6  A    between atoms: C_17  and  C_19
REMARK                            x       y       z     vdW  Elec       q    Type
REMARK                         _______ _______ _______ _____ _____    ______ ____
ROOT
ATOM      1  O   UNL     1      -1.112   1.238  24.603  0.00  0.00    -0.439 OA
ATOM      3  N   UNL     1       0.486   2.841  24.700  0.00  0.00    -0.213 NA
ATOM     10  C   UNL     1      -0.731   2.472  25.035  0.00  0.00    +0.201 A 
ATOM     13  C   UNL     1       0.958   1.767  23.986  0.00  0.00    +0.110 A 
ATOM     14  C   UNL     1      -0.018   0.783  23.924  0.00  0.00    +0.155 A 
ATOM     15  C   UNL     1       2.190   1.539  23.357  0.00  0.00    +0.035 A 
ATOM     16  C   UNL     1       0.128  -0.438  23.276  0.00  0.00    +0.049 A 
ATOM     17  C   UNL     1       2.375   0.318  22.693  0.00  0.00    -0.048 A 
ATOM     18  C   UNL     1       1.362  -0.649  22.655  0.00  0.00    +0.007 A 
ATOM     19  C   UNL     1       3.677   0.045  22.014  0.00  0.00    +0.044 C 
ENDROOT
BRANCH  10   4
ATOM      2  N   UNL     1      -4.041   3.767  25.927  0.00  0.00    -0.301 NA
ATOM      4  C   UNL     1      -1.758   3.239  25.836  0.00  0.00    +0.090 C 
ATOM      5  C   UNL     1      -3.156   2.610  25.774  0.00  0.00    +0.097 C 
ATOM      6  C   UNL     1      -1.965   4.697  25.394  0.00  0.00    +0.029 C 
ATOM      7  C   UNL     1      -3.452   4.806  25.080  0.00  0.00    +0.085 C 
BRANCH   2   8
ATOM      8  C   UNL     1      -5.417   3.467  25.561  0.00  0.00    +0.087 C 
BRANCH   8   9
ATOM      9  C   UNL     1      -5.729   1.962  25.633  0.00  0.00    -0.003 C 
ATOM     11  C   UNL     1      -6.494   1.655  26.923  0.00  0.00    +0.008 C 
ATOM     12  C   UNL     1      -6.535   1.471  24.427  0.00  0.00    +0.008 C 
ENDBRANCH   8   9
ENDBRANCH   2   8
ENDBRANCH  10   4
TORSDOF 3
ENDMDL
MODEL 5
REMARK VINA RESULT:      -1.4      4.036      6.142
REMARK  Name = 45784192
REMARK  6 active torsions:
REMARK  status: ('A' for Active; 'I' for Inactive)
REMARK    1  A    between atoms: N_2  and  C_8
REMARK    2  A    between atoms: C_4  and  C_10
REMARK    3  A    between atoms: C_8  and  C_9
REMARK    4  A    between atoms: C_9  and  C_11
REMARK    5  A    between atoms: C_9  and  C_12
REMARK    6  A    between atoms: C_17  and  C_19
REMARK                            x       y       z     vdW  Elec       q    Type
REMARK                         _______ _______ _______ _____ _____    ______ ____
ROOT
ATOM      1  O   UNL     1      -2.655   0.888  24.885  0.00  0.00    -0.439 OA
ATOM      3  N   UNL     1      -4.757   0.470  24.152  0.00  0.00    -0.213 NA
ATOM     10  C   UNL     1      -3.884   1.370  24.549  0.00  0.00    +0.201 A 
ATOM     13  C   UNL     1      -4.055  -0.708  24.227  0.00  0.00    +0.110 A 
ATOM     14  C   UNL     1      -2.767  -0.456  24.676  0.00  0.00    +0.155 A 
ATOM     15  C   UNL     1      -4.426  -2.029  23.938  0.00  0.00    +0.035 A 
ATOM     16  C   UNL     1      -1.792  -1.427  24.868  0.00  0.00    +0.049 A 
ATOM     17  C   UNL     1      -3.468  -3.037  24.119  0.00  0.00    -0.048 A 
ATOM     18  C   UNL     1      -2.177  -2.738  24.574  0.00  0.00    +0.007 A 
ATOM     19  C   UNL     1      -3.832  -4.454  23.819  0.00  0.00    +0.044 C 
ENDROOT
BRANCH  10   4
ATOM      2  N   UNL     1      -2.909   4.857  25.112  0.00  0.00    -0.301 NA
ATOM      4  C   UNL     1      -4.067   2.864  24.681  0.00  0.00    +0.090 C 
ATOM      5  C   UNL     1      -2.819   3.658  24.275  0.00  0.00    +0.097 C 
ATOM      6  C   UNL     1      -4.396   3.352  26.103  0.00  0.00    +0.029 C 
ATOM      7  C   UNL     1      -3.308   4.366  26.432  0.00  0.00    +0.085 C 
BRANCH   2   8
ATOM      8  C   UNL     1      -1.660   5.602  25.151  0.00  0.00    +0.087 C 
BRANCH   8   9
ATOM      9  C   UNL     1      -0.430   4.696  24.974  0.00  0.00    -0.003 C 
ATOM     11  C   UNL     1      -0.592   3.434  25.825  0.00  0.00    +0.008 C 
ATOM     12  C   UNL     1      -0.195   4.304  23.513  0.00  0.00    +0.008 C 
ENDBRANCH   8   9
ENDBRANCH   2   8
ENDBRANCH  10   4
TORSDOF 3
ENDMDL
MODEL 6
REMARK VINA RESULT:      -1.3      1.828      7.056
REMARK  Name = 45784192
REMARK  6 active torsions:
REMARK  status: ('A' for Active; 'I' for Inactive)
REMARK    1  A    between atoms: N_2  and  C_8
REMARK    2  A    between atoms: C_4  and  C_10
REMARK    3  A    between atoms: C_8  and  C_9
REMARK    4  A    between atoms: C_9  and  C_11
REMARK    5  A    between atoms: C_9  and  C_12
REMARK    6  A    between atoms: C_17  and  C_19
REMARK                            x       y       z     vdW  Elec       q    Type
REMARK                         _______ _______ _______ _____ _____    ______ ____
ROOT
ATOM      1  O   UNL     1      -0.856   0.946  23.946  0.00  0.00    -0.439 OA
ATOM      3  N   UNL     1      -0.236  -1.191  23.522  0.00  0.00    -0.213 NA
ATOM     10  C   UNL     1      -1.206  -0.367  23.853  0.00  0.00    +0.201 A 
ATOM     13  C   UNL     1       0.850  -0.362  23.381  0.00  0.00    +0.110 A 
ATOM     14  C   UNL     1       0.474   0.947  23.641  0.00  0.00    +0.155 A 
ATOM     15  C   UNL     1       2.184  -0.630  23.041  0.00  0.00    +0.035 A 
ATOM     16  C   UNL     1       1.330   2.041  23.589  0.00  0.00    +0.049 A 
ATOM     17  C   UNL     1       3.078   0.449  22.978  0.00  0.00    -0.048 A 
ATOM     18  C   UNL     1       2.656   1.758  23.247  0.00  0.00    +0.007 A 
ATOM     19  C   UNL     1       4.504   0.196  22.618  0.00  0.00    +0.044 C 
ENDROOT
BRANCH  10   4
ATOM      2  N   UNL     1      -4.701   0.291  24.735  0.00  0.00    -0.301 NA
ATOM      4  C   UNL     1      -2.654  -0.688  24.142  0.00  0.00    +0.090 C 
ATOM      5  C   UNL     1      -3.605   0.460  23.778  0.00  0.00    +0.097 C 
ATOM      6  C   UNL     1      -2.965  -1.000  25.616  0.00  0.00    +0.029 C 
ATOM      7  C   UNL     1      -4.046  -0.002  26.011  0.00  0.00    +0.085 C 
BRANCH   2   8
ATOM      8  C   UNL     1      -5.560   1.463  24.809  0.00  0.00    +0.087 C 
BRANCH   8   9
ATOM      9  C   UNL     1      -4.774   2.748  25.125  0.00  0.00    -0.003 C 
ATOM     11  C   UNL     1      -4.109   3.272  23.850  0.00  0.00    +0.008 C 
ATOM     12  C   UNL     1      -5.658   3.842  25.731  0.00  0.00    +0.008 C 
ENDBRANCH   8   9
ENDBRANCH   2   8
ENDBRANCH  10   4
TORSDOF 3
ENDMDL
MODEL 7
REMARK VINA RESULT:      -1.3      3.160      6.068
REMARK  Name = 45784192
REMARK  6 active torsions:
REMARK  status: ('A' for Active; 'I' for Inactive)
REMARK    1  A    between atoms: N_2  and  C_8
REMARK    2  A    between atoms: C_4  and  C_10
REMARK    3  A    between atoms: C_8  and  C_9
REMARK    4  A    between atoms: C_9  and  C_11
REMARK    5  A    between atoms: C_9  and  C_12
REMARK    6  A    between atoms: C_17  and  C_19
REMARK                            x       y       z     vdW  Elec       q    Type
REMARK                         _______ _______ _______ _____ _____    ______ ____
ROOT
ATOM      1  O   UNL     1      -2.578   0.747  24.727  0.00  0.00    -0.439 OA
ATOM      3  N   UNL     1      -0.869  -0.703  25.062  0.00  0.00    -0.213 NA
ATOM     10  C   UNL     1      -1.275   0.548  25.067  0.00  0.00    +0.201 A 
ATOM     13  C   UNL     1      -1.994  -1.398  24.689  0.00  0.00    +0.110 A 
ATOM     14  C   UNL     1      -3.042  -0.513  24.482  0.00  0.00    +0.155 A 
ATOM     15  C   UNL     1      -2.217  -2.769  24.500  0.00  0.00    +0.035 A 
ATOM     16  C   UNL     1      -4.325  -0.882  24.095  0.00  0.00    +0.049 A 
ATOM     17  C   UNL     1      -3.500  -3.181  24.108  0.00  0.00    -0.048 A 
ATOM     18  C   UNL     1      -4.531  -2.253  23.911  0.00  0.00    +0.007 A 
ATOM     19  C   UNL     1      -3.769  -4.635  23.900  0.00  0.00    +0.044 C 
ENDROOT
BRANCH  10   4
ATOM      2  N   UNL     1      -0.545   4.132  25.290  0.00  0.00    -0.301 NA
ATOM      4  C   UNL     1      -0.481   1.791  25.401  0.00  0.00    +0.090 C 
ATOM      5  C   UNL     1      -1.371   3.001  25.717  0.00  0.00    +0.097 C 
ATOM      6  C   UNL     1       0.458   2.278  24.284  0.00  0.00    +0.029 C 
ATOM      7  C   UNL     1       0.034   3.715  24.012  0.00  0.00    +0.085 C 
BRANCH   2   8
ATOM      8  C   UNL     1      -1.308   5.366  25.176  0.00  0.00    +0.087 C 
BRANCH   8   9
ATOM      9  C   UNL     1      -2.825   5.129  25.277  0.00  0.00    -0.003 C 
ATOM     11  C   UNL     1      -3.304   4.325  24.066  0.00  0.00    +0.008 C 
ATOM     12  C   UNL     1      -3.221   4.402  26.566  0.00  0.00    +0.008 C 
ENDBRANCH   8   9
ENDBRANCH   2   8
ENDBRANCH  10   4
TORSDOF 3
ENDMDL
MODEL 8
REMARK VINA RESULT:      -1.0      1.869      6.933
REMARK  Name = 45784192
REMARK  6 active torsions:
REMARK  status: ('A' for Active; 'I' for Inactive)
REMARK    1  A    between atoms: N_2  and  C_8
REMARK    2  A    between atoms: C_4  and  C_10
REMARK    3  A    between atoms: C_8  and  C_9
REMARK    4  A    between atoms: C_9  and  C_11
REMARK    5  A    between atoms: C_9  and  C_12
REMARK    6  A    between atoms: C_17  and  C_19
REMARK                            x       y       z     vdW  Elec       q    Type
REMARK                         _______ _______ _______ _____ _____    ______ ____
ROOT
ATOM      1  O   UNL     1      -0.626   0.716  23.465  0.00  0.00    -0.439 OA
ATOM      3  N   UNL     1       0.668   2.207  24.579  0.00  0.00    -0.213 NA
ATOM     10  C   UNL     1      -0.543   1.743  24.357  0.00  0.00    +0.201 A 
ATOM     13  C   UNL     1       1.458   1.427  23.770  0.00  0.00    +0.110 A 
ATOM     14  C   UNL     1       0.670   0.513  23.087  0.00  0.00    +0.155 A 
ATOM     15  C   UNL     1       2.844   1.423  23.552  0.00  0.00    +0.035 A 
ATOM     16  C   UNL     1       1.150  -0.427  22.183  0.00  0.00    +0.049 A 
ATOM     17  C   UNL     1       3.366   0.487  22.647  0.00  0.00    -0.048 A 
ATOM     18  C   UNL     1       2.533  -0.418  21.978  0.00  0.00    +0.007 A 
ATOM     19  C   UNL     1       4.837   0.458  22.394  0.00  0.00    +0.044 C 
ENDROOT
BRANCH  10   4
ATOM      2  N   UNL     1      -4.120   1.642  25.145  0.00  0.00    -0.301 NA
ATOM      4  C   UNL     1      -1.850   2.200  24.963  0.00  0.00    +0.090 C 
ATOM      5  C   UNL     1      -2.794   1.038  25.295  0.00  0.00    +0.097 C 
ATOM      6  C   UNL     1      -2.682   3.138  24.071  0.00  0.00    +0.029 C 
ATOM      7  C   UNL     1      -4.032   2.446  23.925  0.00  0.00    +0.085 C 
BRANCH   2   8
ATOM      8  C   UNL     1      -5.180   0.648  25.078  0.00  0.00    +0.087 C 
BRANCH   8   9
ATOM      9  C   UNL     1      -4.636  -0.778  24.881  0.00  0.00    -0.003 C 
ATOM     11  C   UNL     1      -4.007  -0.903  23.491  0.00  0.00    +0.008 C 
ATOM     12  C   UNL     1      -3.608  -1.166  25.948  0.00  0.00    +0.008 C 
ENDBRANCH   8   9
ENDBRANCH   2   8
ENDBRANCH  10   4
TORSDOF 3
ENDMDL
MODEL 9
REMARK VINA RESULT:      -0.9      3.298      6.063
REMARK  Name = 45784192
REMARK  6 active torsions:
REMARK  status: ('A' for Active; 'I' for Inactive)
REMARK    1  A    between atoms: N_2  and  C_8
REMARK    2  A    between atoms: C_4  and  C_10
REMARK    3  A    between atoms: C_8  and  C_9
REMARK    4  A    between atoms: C_9  and  C_11
REMARK    5  A    between atoms: C_9  and  C_12
REMARK    6  A    between atoms: C_17  and  C_19
REMARK                            x       y       z     vdW  Elec       q    Type
REMARK                         _______ _______ _______ _____ _____    ______ ____
ROOT
ATOM      1  O   UNL     1      -1.004  -0.688  25.163  0.00  0.00    -0.439 OA
ATOM      3  N   UNL     1      -2.806   0.542  24.552  0.00  0.00    -0.213 NA
ATOM     10  C   UNL     1      -1.575   0.539  25.016  0.00  0.00    +0.201 A 
ATOM     13  C   UNL     1      -3.079  -0.792  24.373  0.00  0.00    +0.110 A 
ATOM     14  C   UNL     1      -1.978  -1.549  24.747  0.00  0.00    +0.155 A 
ATOM     15  C   UNL     1      -4.226  -1.449  23.904  0.00  0.00    +0.035 A 
ATOM     16  C   UNL     1      -1.915  -2.936  24.692  0.00  0.00    +0.049 A 
ATOM     17  C   UNL     1      -4.200  -2.850  23.835  0.00  0.00    -0.048 A 
ATOM     18  C   UNL     1      -3.066  -3.576  24.222  0.00  0.00    +0.007 A 
ATOM     19  C   UNL     1      -5.405  -3.579  23.339  0.00  0.00    +0.044 C 
ENDROOT
BRANCH  10   4
ATOM      2  N   UNL     1      -0.605   4.060  25.315  0.00  0.00    -0.301 NA
ATOM      4  C   UNL     1      -0.716   1.720  25.407  0.00  0.00    +0.090 C 
ATOM      5  C   UNL     1      -1.533   2.988  25.684  0.00  0.00    +0.097 C 
ATOM      6  C   UNL     1       0.318   2.144  24.350  0.00  0.00    +0.029 C 
ATOM      7  C   UNL     1       0.014   3.610  24.068  0.00  0.00    +0.085 C 
BRANCH   2   8
ATOM      8  C   UNL     1      -1.271   5.346  25.171  0.00  0.00    +0.087 C 
BRANCH   8   9
ATOM      9  C   UNL     1      -2.802   5.231  25.279  0.00  0.00    -0.003 C 
ATOM     11  C   UNL     1      -3.353   4.508  24.048  0.00  0.00    +0.008 C 
ATOM     12  C   UNL     1      -3.246   4.497  26.548  0.00  0.00    +0.008 C 
ENDBRANCH   8   9
ENDBRANCH   2   8
ENDBRANCH  10   4
TORSDOF 3
ENDMDL
