MODEL 1
REMARK VINA RESULT:      12.7      0.000      0.000
REMARK  Name = 40475061
REMARK  6 active torsions:
REMARK  status: ('A' for Active; 'I' for Inactive)
REMARK    1  A    between atoms: S_1  and  N_9
REMARK    2  A    between atoms: S_1  and  C_28
REMARK    3  A    between atoms: O_6  and  C_37
REMARK    4  A    between atoms: O_6  and  C_38
REMARK    5  A    between atoms: N_9  and  C_20
REMARK    6  A    between atoms: C_19  and  C_22
REMARK                            x       y       z     vdW  Elec       q    Type
REMARK                         _______ _______ _______ _____ _____    ______ ____
ROOT
ATOM      2  O   UNL     1      -4.235   2.334  26.035  0.00  0.00    -0.266 OA
ATOM      3  O   UNL     1      -0.612  -1.314  26.676  0.00  0.00    -0.270 OA
ATOM      7  N   UNL     1      -1.876  -1.893  24.793  0.00  0.00    -0.297 N 
ATOM      8  N   UNL     1      -3.869   0.562  24.546  0.00  0.00    -0.310 N 
ATOM     10  C   UNL     1      -4.340  -1.882  25.144  0.00  0.00    +0.027 C 
ATOM     11  C   UNL     1      -3.417  -1.320  22.931  0.00  0.00    +0.054 C 
ATOM     12  C   UNL     1      -4.546  -2.063  23.644  0.00  0.00    +0.018 C 
ATOM     13  C   UNL     1      -2.977  -2.458  25.572  0.00  0.00    +0.113 C 
ATOM     14  C   UNL     1      -4.471  -0.393  25.486  0.00  0.00    +0.130 C 
ATOM     15  C   UNL     1      -2.061  -1.935  23.334  0.00  0.00    +0.117 C 
ATOM     16  C   UNL     1      -3.429   0.157  23.278  0.00  0.00    +0.027 A 
ATOM     17  C   UNL     1      -2.986   1.064  22.388  0.00  0.00    +0.024 A 
ATOM     18  C   UNL     1      -3.849   1.915  24.944  0.00  0.00    +0.274 A 
ATOM     19  C   UNL     1      -0.771  -1.353  25.457  0.00  0.00    +0.247 C 
ATOM     20  C   UNL     1      -3.327   2.865  23.928  0.00  0.00    +0.112 A 
ATOM     21  C   UNL     1      -2.931   2.462  22.720  0.00  0.00    +0.031 A 
ENDROOT
BRANCH  19  22
ATOM     22  C   UNL     1       0.293  -0.756  24.644  0.00  0.00    +0.037 A 
ATOM     23  C   UNL     1       1.570  -1.319  24.645  0.00  0.00    +0.021 A 
ATOM     24  C   UNL     1       0.031   0.373  23.872  0.00  0.00    +0.013 A 
ATOM     25  C   UNL     1       2.601  -0.759  23.873  0.00  0.00    -0.017 A 
ATOM     26  C   UNL     1       1.043   0.942  23.100  0.00  0.00    +0.009 A 
ATOM     27  C   UNL     1       2.333   0.388  23.089  0.00  0.00    -0.018 A 
ATOM     29  C   UNL     1       3.891  -1.313  23.863  0.00  0.00    +0.008 A 
ATOM     30  C   UNL     1       3.366   0.948  22.318  0.00  0.00    +0.008 A 
ATOM     33  C   UNL     1       4.905  -0.743  23.090  0.00  0.00    +0.001 A 
ATOM     34  C   UNL     1       4.641   0.384  22.319  0.00  0.00    +0.001 A 
ENDBRANCH  19  22
BRANCH  20   9
ATOM      9  N   UNL     1      -3.246   4.238  24.219  0.00  0.00    -0.211 N 
ATOM     39  H   UNL     1      -3.926   4.800  23.687  0.00  0.00    +0.174 HD
BRANCH   9   1
ATOM      1  S   UNL     1      -1.698   4.915  24.319  0.00  0.00    +0.073 S 
ATOM      4  O   UNL     1      -0.954   4.612  23.111  0.00  0.00    -0.150 OA
ATOM      5  O   UNL     1      -1.792   6.281  24.796  0.00  0.00    -0.150 OA
BRANCH   1  28
ATOM     28  C   UNL     1      -1.001   3.947  25.625  0.00  0.00    +0.109 A 
ATOM     31  C   UNL     1      -1.715   3.755  26.808  0.00  0.00    +0.032 A 
ATOM     32  C   UNL     1       0.266   3.380  25.474  0.00  0.00    +0.032 A 
ATOM     35  C   UNL     1      -1.163   2.995  27.840  0.00  0.00    +0.047 A 
ATOM     36  C   UNL     1       0.816   2.620  26.505  0.00  0.00    +0.047 A 
ATOM     37  C   UNL     1       0.102   2.428  27.688  0.00  0.00    +0.120 A 
BRANCH  37   6
ATOM      6  O   UNL     1       0.640   1.687  28.695  0.00  0.00    -0.495 OA
ATOM     38  C   UNL     1       1.560   2.343  29.566  0.00  0.00    +0.277 C 
ENDBRANCH  37   6
ENDBRANCH   1  28
ENDBRANCH   9   1
ENDBRANCH  20   9
TORSDOF 5
ENDMDL
MODEL 2
REMARK VINA RESULT:      13.8      2.172      5.894
REMARK  Name = 40475061
REMARK  6 active torsions:
REMARK  status: ('A' for Active; 'I' for Inactive)
REMARK    1  A    between atoms: S_1  and  N_9
REMARK    2  A    between atoms: S_1  and  C_28
REMARK    3  A    between atoms: O_6  and  C_37
REMARK    4  A    between atoms: O_6  and  C_38
REMARK    5  A    between atoms: N_9  and  C_20
REMARK    6  A    between atoms: C_19  and  C_22
REMARK                            x       y       z     vdW  Elec       q    Type
REMARK                         _______ _______ _______ _____ _____    ______ ____
ROOT
ATOM      2  O   UNL     1      -3.189   0.802  22.062  0.00  0.00    -0.266 OA
ATOM      3  O   UNL     1      -0.092   4.478  23.998  0.00  0.00    -0.270 OA
ATOM      7  N   UNL     1      -2.209   4.757  24.956  0.00  0.00    -0.297 N 
ATOM      8  N   UNL     1      -3.820   2.310  23.741  0.00  0.00    -0.310 N 
ATOM     10  C   UNL     1      -4.092   4.822  23.330  0.00  0.00    +0.027 C 
ATOM     11  C   UNL     1      -4.455   3.905  25.586  0.00  0.00    +0.054 C 
ATOM     12  C   UNL     1      -5.083   4.761  24.488  0.00  0.00    +0.018 C 
ATOM     13  C   UNL     1      -2.764   5.448  23.793  0.00  0.00    +0.113 C 
ATOM     14  C   UNL     1      -3.900   3.408  22.769  0.00  0.00    +0.130 C 
ATOM     15  C   UNL     1      -3.149   4.566  26.072  0.00  0.00    +0.117 C 
ATOM     16  C   UNL     1      -4.161   2.503  25.086  0.00  0.00    +0.027 A 
ATOM     17  C   UNL     1      -4.193   1.461  25.938  0.00  0.00    +0.024 A 
ATOM     18  C   UNL     1      -3.482   1.038  23.234  0.00  0.00    +0.274 A 
ATOM     19  C   UNL     1      -0.881   4.322  24.928  0.00  0.00    +0.247 C 
ATOM     20  C   UNL     1      -3.511  -0.066  24.227  0.00  0.00    +0.112 A 
ATOM     21  C   UNL     1      -3.857   0.134  25.498  0.00  0.00    +0.031 A 
ENDROOT
BRANCH  19  22
ATOM     22  C   UNL     1      -0.374   3.593  26.096  0.00  0.00    +0.037 A 
ATOM     23  C   UNL     1       0.890   3.892  26.607  0.00  0.00    +0.021 A 
ATOM     24  C   UNL     1      -1.150   2.603  26.691  0.00  0.00    +0.013 A 
ATOM     25  C   UNL     1       1.392   3.204  27.724  0.00  0.00    -0.017 A 
ATOM     26  C   UNL     1      -0.668   1.910  27.801  0.00  0.00    +0.009 A 
ATOM     27  C   UNL     1       0.601   2.198  28.329  0.00  0.00    -0.018 A 
ATOM     29  C   UNL     1       2.660   3.491  28.252  0.00  0.00    +0.008 A 
ATOM     30  C   UNL     1       1.104   1.509  29.445  0.00  0.00    +0.008 A 
ATOM     33  C   UNL     1       3.144   2.797  29.362  0.00  0.00    +0.001 A 
ATOM     34  C   UNL     1       2.366   1.808  29.958  0.00  0.00    +0.001 A 
ENDBRANCH  19  22
BRANCH  20   9
ATOM      9  N   UNL     1      -3.177  -1.376  23.838  0.00  0.00    -0.211 N 
ATOM     39  H   UNL     1      -4.001  -1.987  23.746  0.00  0.00    +0.174 HD
BRANCH   9   1
ATOM      1  S   UNL     1      -1.849  -2.092  24.605  0.00  0.00    +0.073 S 
ATOM      4  O   UNL     1      -1.978  -1.948  26.042  0.00  0.00    -0.150 OA
ATOM      5  O   UNL     1      -1.592  -3.395  24.021  0.00  0.00    -0.150 OA
BRANCH   1  28
ATOM     28  C   UNL     1      -0.547  -1.015  24.080  0.00  0.00    +0.109 A 
ATOM     31  C   UNL     1       0.224  -1.345  22.965  0.00  0.00    +0.032 A 
ATOM     32  C   UNL     1      -0.289   0.162  24.784  0.00  0.00    +0.032 A 
ATOM     35  C   UNL     1       1.253  -0.497  22.553  0.00  0.00    +0.047 A 
ATOM     36  C   UNL     1       0.739   1.009  24.371  0.00  0.00    +0.047 A 
ATOM     37  C   UNL     1       1.510   0.679  23.257  0.00  0.00    +0.120 A 
BRANCH  37   6
ATOM      6  O   UNL     1       2.513   1.506  22.855  0.00  0.00    -0.495 OA
ATOM     38  C   UNL     1       3.823   0.944  22.768  0.00  0.00    +0.277 C 
ENDBRANCH  37   6
ENDBRANCH   1  28
ENDBRANCH   9   1
ENDBRANCH  20   9
TORSDOF 5
ENDMDL
