MODEL 1
REMARK VINA RESULT:      -4.8      0.000      0.000
REMARK  Name = 11941985
REMARK  6 active torsions:
REMARK  status: ('A' for Active; 'I' for Inactive)
REMARK    1  A    between atoms: O_3  and  C_24
REMARK    2  A    between atoms: O_3  and  C_25
REMARK    3  A    between atoms: N_6  and  C_16
REMARK    4  A    between atoms: C_10  and  C_17
REMARK    5  A    between atoms: C_11  and  C_16
REMARK    6  A    between atoms: C_23  and  C_24
REMARK                            x       y       z     vdW  Elec       q    Type
REMARK                         _______ _______ _______ _____ _____    ______ ____
ROOT
ATOM      4  N   UNL     1      -0.552   1.881  25.340  0.00  0.00    -0.297 NA
ATOM      9  C   UNL     1      -2.674   3.079  24.429  0.00  0.00    +0.005 C 
ATOM     10  C   UNL     1      -3.046   1.978  25.441  0.00  0.00    +0.092 C 
ATOM     11  C   UNL     1      -0.533   1.885  23.853  0.00  0.00    +0.078 C 
ATOM     12  C   UNL     1      -1.852   2.454  23.285  0.00  0.00    +0.025 C 
ATOM     13  C   UNL     1      -1.754   4.067  25.168  0.00  0.00    +0.020 C 
ATOM     14  C   UNL     1      -1.775   1.205  25.837  0.00  0.00    +0.097 C 
ATOM     15  C   UNL     1      -0.584   3.292  25.800  0.00  0.00    +0.085 C 
ENDROOT
BRANCH  10  17
ATOM      1  O   UNL     1      -5.130   1.547  24.395  0.00  0.00    -0.275 OA
ATOM      2  O   UNL     1      -3.098  -2.962  24.394  0.00  0.00    -0.377 OA
ATOM      5  N   UNL     1      -3.849  -0.305  24.959  0.00  0.00    -0.297 N 
ATOM     17  C   UNL     1      -4.107   1.062  24.884  0.00  0.00    +0.220 C 
ATOM     18  C   UNL     1      -2.708  -0.920  25.645  0.00  0.00    +0.136 C 
ATOM     19  C   UNL     1      -4.824  -1.264  24.439  0.00  0.00    +0.136 C 
ATOM     21  C   UNL     1      -2.098  -2.014  24.778  0.00  0.00    +0.179 C 
ATOM     22  C   UNL     1      -4.125  -2.338  23.618  0.00  0.00    +0.179 C 
ENDBRANCH  10  17
BRANCH  11  16
ATOM     16  C   UNL     1      -0.209   0.509  23.270  0.00  0.00    +0.164 C 
BRANCH  16   6
ATOM      6  N   UNL     1       1.176   0.415  22.840  0.00  0.00    -0.250 N 
ATOM      7  N   UNL     1       1.498  -0.312  21.766  0.00  0.00    -0.065 NA
ATOM      8  N   UNL     1       2.816  -0.218  21.619  0.00  0.00    -0.132 NA
ATOM     20  C   UNL     1       2.254   0.994  23.416  0.00  0.00    +0.136 A 
ATOM     23  C   UNL     1       3.293   0.579  22.622  0.00  0.00    +0.108 A 
BRANCH  23  24
ATOM     24  C   UNL     1       4.726   0.881  22.739  0.00  0.00    +0.218 C 
BRANCH  24   3
ATOM      3  O   UNL     1       5.247   0.595  24.043  0.00  0.00    -0.377 OA
ATOM     25  C   UNL     1       5.344  -0.802  24.257  0.00  0.00    +0.194 C 
ENDBRANCH  24   3
ENDBRANCH  23  24
ENDBRANCH  16   6
ENDBRANCH  11  16
TORSDOF 5
ENDMDL
MODEL 2
REMARK VINA RESULT:      -4.6      1.692      3.778
REMARK  Name = 11941985
REMARK  6 active torsions:
REMARK  status: ('A' for Active; 'I' for Inactive)
REMARK    1  A    between atoms: O_3  and  C_24
REMARK    2  A    between atoms: O_3  and  C_25
REMARK    3  A    between atoms: N_6  and  C_16
REMARK    4  A    between atoms: C_10  and  C_17
REMARK    5  A    between atoms: C_11  and  C_16
REMARK    6  A    between atoms: C_23  and  C_24
REMARK                            x       y       z     vdW  Elec       q    Type
REMARK                         _______ _______ _______ _____ _____    ______ ____
ROOT
ATOM      4  N   UNL     1      -2.220  -0.923  23.714  0.00  0.00    -0.297 NA
ATOM      9  C   UNL     1      -3.762  -1.119  25.800  0.00  0.00    +0.005 C 
ATOM     10  C   UNL     1      -4.380  -0.193  24.734  0.00  0.00    +0.092 C 
ATOM     11  C   UNL     1      -1.445  -0.624  24.947  0.00  0.00    +0.078 C 
ATOM     12  C   UNL     1      -2.369  -0.584  26.184  0.00  0.00    +0.025 C 
ATOM     13  C   UNL     1      -3.558  -2.490  25.131  0.00  0.00    +0.020 C 
ATOM     14  C   UNL     1      -3.370   0.007  23.591  0.00  0.00    +0.097 C 
ATOM     15  C   UNL     1      -2.752  -2.303  23.832  0.00  0.00    +0.085 C 
ENDROOT
BRANCH  10  17
ATOM      1  O   UNL     1      -5.717   1.137  26.172  0.00  0.00    -0.275 OA
ATOM      2  O   UNL     1      -2.357   4.433  24.655  0.00  0.00    -0.377 OA
ATOM      5  N   UNL     1      -4.130   2.256  24.900  0.00  0.00    -0.297 N 
ATOM     17  C   UNL     1      -4.810   1.121  25.337  0.00  0.00    +0.220 C 
ATOM     18  C   UNL     1      -3.137   2.292  23.822  0.00  0.00    +0.136 C 
ATOM     19  C   UNL     1      -4.480   3.571  25.437  0.00  0.00    +0.136 C 
ATOM     21  C   UNL     1      -1.936   3.131  24.238  0.00  0.00    +0.179 C 
ATOM     22  C   UNL     1      -3.223   4.352  25.790  0.00  0.00    +0.179 C 
ENDBRANCH  10  17
BRANCH  11  16
ATOM     16  C   UNL     1      -0.613   0.653  24.818  0.00  0.00    +0.164 C 
BRANCH  16   6
ATOM      6  N   UNL     1       0.530   0.467  23.938  0.00  0.00    -0.250 N 
ATOM      7  N   UNL     1       0.517  -0.502  23.018  0.00  0.00    -0.065 NA
ATOM      8  N   UNL     1       1.678  -0.437  22.375  0.00  0.00    -0.132 NA
ATOM     20  C   UNL     1       1.678   1.180  23.923  0.00  0.00    +0.136 A 
ATOM     23  C   UNL     1       2.401   0.589  22.918  0.00  0.00    +0.108 A 
BRANCH  23  24
ATOM     24  C   UNL     1       3.743   0.923  22.422  0.00  0.00    +0.218 C 
BRANCH  24   3
ATOM      3  O   UNL     1       4.717   1.000  23.470  0.00  0.00    -0.377 OA
ATOM     25  C   UNL     1       5.390  -0.237  23.632  0.00  0.00    +0.194 C 
ENDBRANCH  24   3
ENDBRANCH  23  24
ENDBRANCH  16   6
ENDBRANCH  11  16
TORSDOF 5
ENDMDL
MODEL 3
REMARK VINA RESULT:      -4.1      1.761      2.512
REMARK  Name = 11941985
REMARK  6 active torsions:
REMARK  status: ('A' for Active; 'I' for Inactive)
REMARK    1  A    between atoms: O_3  and  C_24
REMARK    2  A    between atoms: O_3  and  C_25
REMARK    3  A    between atoms: N_6  and  C_16
REMARK    4  A    between atoms: C_10  and  C_17
REMARK    5  A    between atoms: C_11  and  C_16
REMARK    6  A    between atoms: C_23  and  C_24
REMARK                            x       y       z     vdW  Elec       q    Type
REMARK                         _______ _______ _______ _____ _____    ______ ____
ROOT
ATOM      4  N   UNL     1      -2.826   3.356  26.214  0.00  0.00    -0.297 NA
ATOM      9  C   UNL     1      -3.047   3.478  23.624  0.00  0.00    +0.005 C 
ATOM     10  C   UNL     1      -3.777   2.245  24.189  0.00  0.00    +0.092 C 
ATOM     11  C   UNL     1      -1.481   3.506  25.597  0.00  0.00    +0.078 C 
ATOM     12  C   UNL     1      -1.568   3.428  24.057  0.00  0.00    +0.025 C 
ATOM     13  C   UNL     1      -3.678   4.712  24.293  0.00  0.00    +0.020 C 
ATOM     14  C   UNL     1      -3.495   2.136  25.698  0.00  0.00    +0.097 C 
ATOM     15  C   UNL     1      -3.641   4.532  25.822  0.00  0.00    +0.085 C 
ENDROOT
BRANCH  10  17
ATOM      1  O   UNL     1      -2.831   1.081  22.353  0.00  0.00    -0.275 OA
ATOM      2  O   UNL     1      -3.493  -2.599  25.589  0.00  0.00    -0.377 OA
ATOM      5  N   UNL     1      -3.657  -0.218  24.090  0.00  0.00    -0.297 N 
ATOM     17  C   UNL     1      -3.377   0.990  23.454  0.00  0.00    +0.220 C 
ATOM     18  C   UNL     1      -4.415  -0.369  25.335  0.00  0.00    +0.136 C 
ATOM     19  C   UNL     1      -3.297  -1.483  23.448  0.00  0.00    +0.136 C 
ATOM     21  C   UNL     1      -3.718  -1.357  26.262  0.00  0.00    +0.179 C 
ATOM     22  C   UNL     1      -2.642  -2.420  24.453  0.00  0.00    +0.179 C 
ENDBRANCH  10  17
BRANCH  11  16
ATOM     16  C   UNL     1      -0.467   2.509  26.160  0.00  0.00    +0.164 C 
BRANCH  16   6
ATOM      6  N   UNL     1      -0.073   1.520  25.170  0.00  0.00    -0.250 N 
ATOM      7  N   UNL     1      -0.591   0.289  25.208  0.00  0.00    -0.065 NA
ATOM      8  N   UNL     1      -0.052  -0.387  24.200  0.00  0.00    -0.132 NA
ATOM     20  C   UNL     1       0.805   1.681  24.154  0.00  0.00    +0.136 A 
ATOM     23  C   UNL     1       0.807   0.452  23.544  0.00  0.00    +0.108 A 
BRANCH  23  24
ATOM     24  C   UNL     1       1.568   0.001  22.372  0.00  0.00    +0.218 C 
BRANCH  24   3
ATOM      3  O   UNL     1       2.922  -0.342  22.689  0.00  0.00    -0.377 OA
ATOM     25  C   UNL     1       3.775   0.782  22.564  0.00  0.00    +0.194 C 
ENDBRANCH  24   3
ENDBRANCH  23  24
ENDBRANCH  16   6
ENDBRANCH  11  16
TORSDOF 5
ENDMDL
MODEL 4
REMARK VINA RESULT:      -3.0      2.309      5.958
REMARK  Name = 11941985
REMARK  6 active torsions:
REMARK  status: ('A' for Active; 'I' for Inactive)
REMARK    1  A    between atoms: O_3  and  C_24
REMARK    2  A    between atoms: O_3  and  C_25
REMARK    3  A    between atoms: N_6  and  C_16
REMARK    4  A    between atoms: C_10  and  C_17
REMARK    5  A    between atoms: C_11  and  C_16
REMARK    6  A    between atoms: C_23  and  C_24
REMARK                            x       y       z     vdW  Elec       q    Type
REMARK                         _______ _______ _______ _____ _____    ______ ____
ROOT
ATOM      4  N   UNL     1      -3.690  -1.557  25.906  0.00  0.00    -0.297 NA
ATOM      9  C   UNL     1      -2.035  -1.370  23.907  0.00  0.00    +0.005 C 
ATOM     10  C   UNL     1      -1.374  -0.916  25.223  0.00  0.00    +0.092 C 
ATOM     11  C   UNL     1      -4.315  -0.783  24.801  0.00  0.00    +0.078 C 
ATOM     12  C   UNL     1      -3.302  -0.526  23.663  0.00  0.00    +0.025 C 
ATOM     13  C   UNL     1      -2.487  -2.826  24.117  0.00  0.00    +0.020 C 
ATOM     14  C   UNL     1      -2.430  -0.906  26.342  0.00  0.00    +0.097 C 
ATOM     15  C   UNL     1      -3.356  -2.907  25.386  0.00  0.00    +0.085 C 
ENDROOT
BRANCH  10  17
ATOM      1  O   UNL     1      -0.996   1.339  25.848  0.00  0.00    -0.275 OA
ATOM      2  O   UNL     1       2.544   0.671  22.460  0.00  0.00    -0.377 OA
ATOM      5  N   UNL     1       0.199   0.555  24.018  0.00  0.00    -0.297 N 
ATOM     17  C   UNL     1      -0.713   0.430  25.065  0.00  0.00    +0.220 C 
ATOM     18  C   UNL     1       0.464  -0.460  22.995  0.00  0.00    +0.136 C 
ATOM     19  C   UNL     1       0.888   1.827  23.797  0.00  0.00    +0.136 C 
ATOM     21  C   UNL     1       1.964  -0.601  22.768  0.00  0.00    +0.179 C 
ATOM     22  C   UNL     1       2.369   1.588  23.543  0.00  0.00    +0.179 C 
ENDBRANCH  10  17
BRANCH  11  16
ATOM     16  C   UNL     1      -4.961   0.514  25.290  0.00  0.00    +0.164 C 
BRANCH  16   6
ATOM      6  N   UNL     1      -4.262   1.688  24.794  0.00  0.00    -0.250 N 
ATOM      7  N   UNL     1      -3.754   1.693  23.557  0.00  0.00    -0.065 NA
ATOM      8  N   UNL     1      -3.176   2.877  23.385  0.00  0.00    -0.132 NA
ATOM     20  C   UNL     1      -4.034   2.846  25.452  0.00  0.00    +0.136 A 
ATOM     23  C   UNL     1      -3.340   3.595  24.537  0.00  0.00    +0.108 A 
BRANCH  23  24
ATOM     24  C   UNL     1      -2.808   4.959  24.668  0.00  0.00    +0.218 C 
BRANCH  24   3
ATOM      3  O   UNL     1      -1.636   5.020  25.489  0.00  0.00    -0.377 OA
ATOM     25  C   UNL     1      -0.459   4.921  24.705  0.00  0.00    +0.194 C 
ENDBRANCH  24   3
ENDBRANCH  23  24
ENDBRANCH  16   6
ENDBRANCH  11  16
TORSDOF 5
ENDMDL
MODEL 5
REMARK VINA RESULT:      -3.0      2.971      4.995
REMARK  Name = 11941985
REMARK  6 active torsions:
REMARK  status: ('A' for Active; 'I' for Inactive)
REMARK    1  A    between atoms: O_3  and  C_24
REMARK    2  A    between atoms: O_3  and  C_25
REMARK    3  A    between atoms: N_6  and  C_16
REMARK    4  A    between atoms: C_10  and  C_17
REMARK    5  A    between atoms: C_11  and  C_16
REMARK    6  A    between atoms: C_23  and  C_24
REMARK                            x       y       z     vdW  Elec       q    Type
REMARK                         _______ _______ _______ _____ _____    ______ ____
ROOT
ATOM      4  N   UNL     1      -2.050  -2.232  23.887  0.00  0.00    -0.297 NA
ATOM      9  C   UNL     1      -3.558  -0.819  25.468  0.00  0.00    +0.005 C 
ATOM     10  C   UNL     1      -3.692  -0.353  24.005  0.00  0.00    +0.092 C 
ATOM     11  C   UNL     1      -1.243  -1.703  25.018  0.00  0.00    +0.078 C 
ATOM     12  C   UNL     1      -2.077  -0.737  25.888  0.00  0.00    +0.025 C 
ATOM     13  C   UNL     1      -3.961  -2.303  25.499  0.00  0.00    +0.020 C 
ATOM     14  C   UNL     1      -2.677  -1.116  23.136  0.00  0.00    +0.097 C 
ATOM     15  C   UNL     1      -3.133  -3.074  24.454  0.00  0.00    +0.085 C 
ENDROOT
BRANCH  10  17
ATOM      1  O   UNL     1      -2.796   1.599  22.999  0.00  0.00    -0.275 OA
ATOM      2  O   UNL     1      -6.080   3.551  26.140  0.00  0.00    -0.377 OA
ATOM      5  N   UNL     1      -4.196   1.920  24.823  0.00  0.00    -0.297 N 
ATOM     17  C   UNL     1      -3.515   1.141  23.891  0.00  0.00    +0.220 C 
ATOM     18  C   UNL     1      -4.954   1.409  25.969  0.00  0.00    +0.136 C 
ATOM     19  C   UNL     1      -4.083   3.378  24.781  0.00  0.00    +0.136 C 
ATOM     21  C   UNL     1      -6.287   2.137  26.088  0.00  0.00    +0.179 C 
ATOM     22  C   UNL     1      -5.453   4.021  24.944  0.00  0.00    +0.179 C 
ENDBRANCH  10  17
BRANCH  11  16
ATOM     16  C   UNL     1       0.065  -1.062  24.552  0.00  0.00    +0.164 C 
BRANCH  16   6
ATOM      6  N   UNL     1       0.000   0.390  24.589  0.00  0.00    -0.250 N 
ATOM      7  N   UNL     1       0.426   1.108  23.546  0.00  0.00    -0.065 NA
ATOM      8  N   UNL     1       0.252   2.387  23.863  0.00  0.00    -0.132 NA
ATOM     20  C   UNL     1      -0.456   1.164  25.599  0.00  0.00    +0.136 A 
ATOM     23  C   UNL     1      -0.288   2.438  25.118  0.00  0.00    +0.108 A 
BRANCH  23  24
ATOM     24  C   UNL     1      -0.601   3.720  25.762  0.00  0.00    +0.218 C 
BRANCH  24   3
ATOM      3  O   UNL     1      -0.498   4.831  24.862  0.00  0.00    -0.377 OA
ATOM     25  C   UNL     1      -1.606   5.703  25.001  0.00  0.00    +0.194 C 
ENDBRANCH  24   3
ENDBRANCH  23  24
ENDBRANCH  16   6
ENDBRANCH  11  16
TORSDOF 5
ENDMDL
MODEL 6
REMARK VINA RESULT:      -2.9      2.160      3.383
REMARK  Name = 11941985
REMARK  6 active torsions:
REMARK  status: ('A' for Active; 'I' for Inactive)
REMARK    1  A    between atoms: O_3  and  C_24
REMARK    2  A    between atoms: O_3  and  C_25
REMARK    3  A    between atoms: N_6  and  C_16
REMARK    4  A    between atoms: C_10  and  C_17
REMARK    5  A    between atoms: C_11  and  C_16
REMARK    6  A    between atoms: C_23  and  C_24
REMARK                            x       y       z     vdW  Elec       q    Type
REMARK                         _______ _______ _______ _____ _____    ______ ____
ROOT
ATOM      4  N   UNL     1      -4.069   3.829  25.809  0.00  0.00    -0.297 NA
ATOM      9  C   UNL     1      -4.305   1.824  24.168  0.00  0.00    +0.005 C 
ATOM     10  C   UNL     1      -3.841   1.354  25.560  0.00  0.00    +0.092 C 
ATOM     11  C   UNL     1      -3.310   4.104  24.560  0.00  0.00    +0.078 C 
ATOM     12  C   UNL     1      -3.306   2.870  23.632  0.00  0.00    +0.025 C 
ATOM     13  C   UNL     1      -5.653   2.539  24.367  0.00  0.00    +0.020 C 
ATOM     14  C   UNL     1      -3.576   2.584  26.447  0.00  0.00    +0.097 C 
ATOM     15  C   UNL     1      -5.493   3.629  25.442  0.00  0.00    +0.085 C 
ENDROOT
BRANCH  10  17
ATOM      1  O   UNL     1      -1.607   0.760  26.086  0.00  0.00    -0.275 OA
ATOM      2  O   UNL     1      -3.134  -3.273  23.665  0.00  0.00    -0.377 OA
ATOM      5  N   UNL     1      -2.747  -0.659  24.645  0.00  0.00    -0.297 N 
ATOM     17  C   UNL     1      -2.627   0.465  25.459  0.00  0.00    +0.220 C 
ATOM     18  C   UNL     1      -3.895  -0.972  23.788  0.00  0.00    +0.136 C 
ATOM     19  C   UNL     1      -1.617  -1.577  24.494  0.00  0.00    +0.136 C 
ATOM     21  C   UNL     1      -4.270  -2.442  23.925  0.00  0.00    +0.179 C 
ATOM     22  C   UNL     1      -2.089  -3.020  24.607  0.00  0.00    +0.179 C 
ENDBRANCH  10  17
BRANCH  11  16
ATOM     16  C   UNL     1      -1.893   4.610  24.839  0.00  0.00    +0.164 C 
BRANCH  16   6
ATOM      6  N   UNL     1      -0.912   3.541  24.761  0.00  0.00    -0.250 N 
ATOM      7  N   UNL     1      -0.175   3.226  25.831  0.00  0.00    -0.065 NA
ATOM      8  N   UNL     1       0.626   2.231  25.467  0.00  0.00    -0.132 NA
ATOM     20  C   UNL     1      -0.618   2.774  23.686  0.00  0.00    +0.136 A 
ATOM     23  C   UNL     1       0.367   1.942  24.155  0.00  0.00    +0.108 A 
BRANCH  23  24
ATOM     24  C   UNL     1       1.095   0.879  23.450  0.00  0.00    +0.218 C 
BRANCH  24   3
ATOM      3  O   UNL     1       2.502   1.134  23.366  0.00  0.00    -0.377 OA
ATOM     25  C   UNL     1       3.104   0.342  22.357  0.00  0.00    +0.194 C 
ENDBRANCH  24   3
ENDBRANCH  23  24
ENDBRANCH  16   6
ENDBRANCH  11  16
TORSDOF 5
ENDMDL
MODEL 7
REMARK VINA RESULT:      -2.6      2.022      2.885
REMARK  Name = 11941985
REMARK  6 active torsions:
REMARK  status: ('A' for Active; 'I' for Inactive)
REMARK    1  A    between atoms: O_3  and  C_24
REMARK    2  A    between atoms: O_3  and  C_25
REMARK    3  A    between atoms: N_6  and  C_16
REMARK    4  A    between atoms: C_10  and  C_17
REMARK    5  A    between atoms: C_11  and  C_16
REMARK    6  A    between atoms: C_23  and  C_24
REMARK                            x       y       z     vdW  Elec       q    Type
REMARK                         _______ _______ _______ _____ _____    ______ ____
ROOT
ATOM      4  N   UNL     1      -2.987   3.051  25.066  0.00  0.00    -0.297 NA
ATOM      9  C   UNL     1      -5.318   1.895  25.104  0.00  0.00    +0.005 C 
ATOM     10  C   UNL     1      -4.217   0.949  25.621  0.00  0.00    +0.092 C 
ATOM     11  C   UNL     1      -3.635   3.171  23.732  0.00  0.00    +0.078 C 
ATOM     12  C   UNL     1      -4.951   2.364  23.682  0.00  0.00    +0.025 C 
ATOM     13  C   UNL     1      -5.300   3.135  26.014  0.00  0.00    +0.020 C 
ATOM     14  C   UNL     1      -2.845   1.623  25.441  0.00  0.00    +0.097 C 
ATOM     15  C   UNL     1      -3.871   3.706  26.063  0.00  0.00    +0.085 C 
ENDROOT
BRANCH  10  17
ATOM      1  O   UNL     1      -5.215  -0.633  24.164  0.00  0.00    -0.275 OA
ATOM      2  O   UNL     1      -0.867  -2.793  25.102  0.00  0.00    -0.377 OA
ATOM      5  N   UNL     1      -3.240  -1.278  25.200  0.00  0.00    -0.297 N 
ATOM     17  C   UNL     1      -4.278  -0.389  24.927  0.00  0.00    +0.220 C 
ATOM     18  C   UNL     1      -2.183  -1.072  26.194  0.00  0.00    +0.136 C 
ATOM     19  C   UNL     1      -3.220  -2.596  24.566  0.00  0.00    +0.136 C 
ATOM     21  C   UNL     1      -0.829  -1.457  25.611  0.00  0.00    +0.179 C 
ATOM     22  C   UNL     1      -1.824  -2.912  24.047  0.00  0.00    +0.179 C 
ENDBRANCH  10  17
BRANCH  11  16
ATOM     16  C   UNL     1      -2.692   2.793  22.590  0.00  0.00    +0.164 C 
BRANCH  16   6
ATOM      6  N   UNL     1      -1.420   2.289  23.082  0.00  0.00    -0.250 N 
ATOM      7  N   UNL     1      -0.651   3.054  23.862  0.00  0.00    -0.065 NA
ATOM      8  N   UNL     1       0.433   2.343  24.150  0.00  0.00    -0.132 NA
ATOM     20  C   UNL     1      -0.870   1.077  22.842  0.00  0.00    +0.136 A 
ATOM     23  C   UNL     1       0.314   1.129  23.532  0.00  0.00    +0.108 A 
BRANCH  23  24
ATOM     24  C   UNL     1       1.360   0.105  23.655  0.00  0.00    +0.218 C 
BRANCH  24   3
ATOM      3  O   UNL     1       2.196   0.025  22.494  0.00  0.00    -0.377 OA
ATOM     25  C   UNL     1       3.424   0.700  22.703  0.00  0.00    +0.194 C 
ENDBRANCH  24   3
ENDBRANCH  23  24
ENDBRANCH  16   6
ENDBRANCH  11  16
TORSDOF 5
ENDMDL
MODEL 8
REMARK VINA RESULT:      -2.5      2.057      4.031
REMARK  Name = 11941985
REMARK  6 active torsions:
REMARK  status: ('A' for Active; 'I' for Inactive)
REMARK    1  A    between atoms: O_3  and  C_24
REMARK    2  A    between atoms: O_3  and  C_25
REMARK    3  A    between atoms: N_6  and  C_16
REMARK    4  A    between atoms: C_10  and  C_17
REMARK    5  A    between atoms: C_11  and  C_16
REMARK    6  A    between atoms: C_23  and  C_24
REMARK                            x       y       z     vdW  Elec       q    Type
REMARK                         _______ _______ _______ _____ _____    ______ ____
ROOT
ATOM      4  N   UNL     1      -2.695  -2.118  24.016  0.00  0.00    -0.297 NA
ATOM      9  C   UNL     1      -2.668  -0.235  25.811  0.00  0.00    +0.005 C 
ATOM     10  C   UNL     1      -3.655   0.092  24.674  0.00  0.00    +0.092 C 
ATOM     11  C   UNL     1      -1.298  -1.674  24.264  0.00  0.00    +0.078 C 
ATOM     12  C   UNL     1      -1.265  -0.454  25.211  0.00  0.00    +0.025 C 
ATOM     13  C   UNL     1      -3.121  -1.574  26.419  0.00  0.00    +0.020 C 
ATOM     14  C   UNL     1      -3.527  -0.973  23.571  0.00  0.00    +0.097 C 
ATOM     15  C   UNL     1      -3.248  -2.621  25.298  0.00  0.00    +0.085 C 
ENDROOT
BRANCH  10  17
ATOM      1  O   UNL     1      -2.734   1.637  23.128  0.00  0.00    -0.275 OA
ATOM      2  O   UNL     1      -5.787   4.552  25.705  0.00  0.00    -0.377 OA
ATOM      5  N   UNL     1      -4.033   2.526  24.835  0.00  0.00    -0.297 N 
ATOM     17  C   UNL     1      -3.426   1.484  24.137  0.00  0.00    +0.220 C 
ATOM     18  C   UNL     1      -4.754   2.394  26.105  0.00  0.00    +0.136 C 
ATOM     19  C   UNL     1      -3.866   3.906  24.380  0.00  0.00    +0.136 C 
ATOM     21  C   UNL     1      -6.050   3.192  26.061  0.00  0.00    +0.179 C 
ATOM     22  C   UNL     1      -5.200   4.637  24.404  0.00  0.00    +0.179 C 
ENDBRANCH  10  17
BRANCH  11  16
ATOM     16  C   UNL     1      -0.531  -1.407  22.967  0.00  0.00    +0.164 C 
BRANCH  16   6
ATOM      6  N   UNL     1       0.512  -0.411  23.151  0.00  0.00    -0.250 N 
ATOM      7  N   UNL     1       0.270   0.690  23.869  0.00  0.00    -0.065 NA
ATOM      8  N   UNL     1       1.388   1.408  23.860  0.00  0.00    -0.132 NA
ATOM     20  C   UNL     1       1.772  -0.443  22.661  0.00  0.00    +0.136 A 
ATOM     23  C   UNL     1       2.318   0.727  23.124  0.00  0.00    +0.108 A 
BRANCH  23  24
ATOM     24  C   UNL     1       3.671   1.262  22.921  0.00  0.00    +0.218 C 
BRANCH  24   3
ATOM      3  O   UNL     1       4.647   0.233  22.718  0.00  0.00    -0.377 OA
ATOM     25  C   UNL     1       5.448   0.055  23.874  0.00  0.00    +0.194 C 
ENDBRANCH  24   3
ENDBRANCH  23  24
ENDBRANCH  16   6
ENDBRANCH  11  16
TORSDOF 5
ENDMDL
MODEL 9
REMARK VINA RESULT:      -2.3      1.984      5.330
REMARK  Name = 11941985
REMARK  6 active torsions:
REMARK  status: ('A' for Active; 'I' for Inactive)
REMARK    1  A    between atoms: O_3  and  C_24
REMARK    2  A    between atoms: O_3  and  C_25
REMARK    3  A    between atoms: N_6  and  C_16
REMARK    4  A    between atoms: C_10  and  C_17
REMARK    5  A    between atoms: C_11  and  C_16
REMARK    6  A    between atoms: C_23  and  C_24
REMARK                            x       y       z     vdW  Elec       q    Type
REMARK                         _______ _______ _______ _____ _____    ______ ____
ROOT
ATOM      4  N   UNL     1      -3.961   3.724  24.571  0.00  0.00    -0.297 NA
ATOM      9  C   UNL     1      -1.598   2.786  25.126  0.00  0.00    +0.005 C 
ATOM     10  C   UNL     1      -1.868   2.757  23.610  0.00  0.00    +0.092 C 
ATOM     11  C   UNL     1      -4.066   2.665  25.610  0.00  0.00    +0.078 C 
ATOM     12  C   UNL     1      -2.700   1.986  25.849  0.00  0.00    +0.025 C 
ATOM     13  C   UNL     1      -1.730   4.253  25.572  0.00  0.00    +0.020 C 
ATOM     14  C   UNL     1      -3.324   3.180  23.346  0.00  0.00    +0.097 C 
ATOM     15  C   UNL     1      -3.091   4.802  25.105  0.00  0.00    +0.085 C 
ENDROOT
BRANCH  10  17
ATOM      1  O   UNL     1      -2.448   0.796  22.409  0.00  0.00    -0.275 OA
ATOM      2  O   UNL     1       2.429   0.187  22.954  0.00  0.00    -0.377 OA
ATOM      5  N   UNL     1      -0.281   0.904  23.236  0.00  0.00    -0.297 N 
ATOM     17  C   UNL     1      -1.568   1.397  23.029  0.00  0.00    +0.220 C 
ATOM     18  C   UNL     1       0.747   1.531  24.072  0.00  0.00    +0.136 C 
ATOM     19  C   UNL     1       0.095  -0.406  22.702  0.00  0.00    +0.136 C 
ATOM     21  C   UNL     1       2.091   1.518  23.355  0.00  0.00    +0.179 C 
ATOM     22  C   UNL     1       1.463  -0.334  22.039  0.00  0.00    +0.179 C 
ENDBRANCH  10  17
BRANCH  11  16
ATOM     16  C   UNL     1      -5.161   1.645  25.294  0.00  0.00    +0.164 C 
BRANCH  16   6
ATOM      6  N   UNL     1      -4.609   0.333  25.000  0.00  0.00    -0.250 N 
ATOM      7  N   UNL     1      -4.902  -0.276  23.847  0.00  0.00    -0.065 NA
ATOM      8  N   UNL     1      -4.270  -1.445  23.858  0.00  0.00    -0.132 NA
ATOM     20  C   UNL     1      -3.792  -0.407  25.784  0.00  0.00    +0.136 A 
ATOM     23  C   UNL     1      -3.585  -1.540  25.038  0.00  0.00    +0.108 A 
BRANCH  23  24
ATOM     24  C   UNL     1      -2.779  -2.725  25.358  0.00  0.00    +0.218 C 
BRANCH  24   3
ATOM      3  O   UNL     1      -1.479  -2.689  24.757  0.00  0.00    -0.377 OA
ATOM     25  C   UNL     1      -0.603  -1.847  25.487  0.00  0.00    +0.194 C 
ENDBRANCH  24   3
ENDBRANCH  23  24
ENDBRANCH  16   6
ENDBRANCH  11  16
TORSDOF 5
ENDMDL
MODEL 10
REMARK VINA RESULT:      -1.4      2.939      5.865
REMARK  Name = 11941985
REMARK  6 active torsions:
REMARK  status: ('A' for Active; 'I' for Inactive)
REMARK    1  A    between atoms: O_3  and  C_24
REMARK    2  A    between atoms: O_3  and  C_25
REMARK    3  A    between atoms: N_6  and  C_16
REMARK    4  A    between atoms: C_10  and  C_17
REMARK    5  A    between atoms: C_11  and  C_16
REMARK    6  A    between atoms: C_23  and  C_24
REMARK                            x       y       z     vdW  Elec       q    Type
REMARK                         _______ _______ _______ _____ _____    ______ ____
ROOT
ATOM      4  N   UNL     1      -0.015   3.311  23.653  0.00  0.00    -0.297 NA
ATOM      9  C   UNL     1      -0.581   1.209  25.078  0.00  0.00    +0.005 C 
ATOM     10  C   UNL     1      -1.224   1.126  23.681  0.00  0.00    +0.092 C 
ATOM     11  C   UNL     1      -0.570   3.725  24.969  0.00  0.00    +0.078 C 
ATOM     12  C   UNL     1      -1.056   2.500  25.775  0.00  0.00    +0.025 C 
ATOM     13  C   UNL     1       0.937   1.338  24.860  0.00  0.00    +0.020 C 
ATOM     14  C   UNL     1      -0.985   2.450  22.934  0.00  0.00    +0.097 C 
ATOM     15  C   UNL     1       1.212   2.515  23.906  0.00  0.00    +0.085 C 
ENDROOT
BRANCH  10  17
ATOM      1  O   UNL     1      -3.526   1.623  23.399  0.00  0.00    -0.275 OA
ATOM      2  O   UNL     1      -3.713  -3.170  24.603  0.00  0.00    -0.377 OA
ATOM      5  N   UNL     1      -3.015  -0.458  24.294  0.00  0.00    -0.297 N 
ATOM     17  C   UNL     1      -2.693   0.795  23.776  0.00  0.00    +0.220 C 
ATOM     18  C   UNL     1      -2.061  -1.412  24.867  0.00  0.00    +0.136 C 
ATOM     19  C   UNL     1      -4.416  -0.861  24.417  0.00  0.00    +0.136 C 
ATOM     21  C   UNL     1      -2.349  -2.818  24.355  0.00  0.00    +0.179 C 
ATOM     22  C   UNL     1      -4.603  -2.286  23.918  0.00  0.00    +0.179 C 
ENDBRANCH  10  17
BRANCH  11  16
ATOM     16  C   UNL     1      -1.664   4.786  24.834  0.00  0.00    +0.164 C 
BRANCH  16   6
ATOM      6  N   UNL     1      -2.940   4.316  25.349  0.00  0.00    -0.250 N 
ATOM      7  N   UNL     1      -3.128   4.197  26.667  0.00  0.00    -0.065 NA
ATOM      8  N   UNL     1      -4.367   3.749  26.839  0.00  0.00    -0.132 NA
ATOM     20  C   UNL     1      -4.030   3.956  24.635  0.00  0.00    +0.136 A 
ATOM     23  C   UNL     1      -4.933   3.596  25.603  0.00  0.00    +0.108 A 
BRANCH  23  24
ATOM     24  C   UNL     1      -6.311   3.111  25.450  0.00  0.00    +0.218 C 
BRANCH  24   3
ATOM      3  O   UNL     1      -6.409   1.685  25.547  0.00  0.00    -0.377 OA
ATOM     25  C   UNL     1      -6.576   1.276  26.893  0.00  0.00    +0.194 C 
ENDBRANCH  24   3
ENDBRANCH  23  24
ENDBRANCH  16   6
ENDBRANCH  11  16
TORSDOF 5
ENDMDL
