MODEL 1
REMARK VINA RESULT:      -4.7      0.000      0.000
REMARK  Name = 56774569
REMARK  8 active torsions:
REMARK  status: ('A' for Active; 'I' for Inactive)
REMARK    1  A    between atoms: O_2  and  C_9
REMARK    2  A    between atoms: N_5  and  C_11
REMARK    3  A    between atoms: N_6  and  C_20
REMARK    4  A    between atoms: N_7  and  C_22
REMARK    5  A    between atoms: C_8  and  C_9
REMARK    6  A    between atoms: C_9  and  C_12
REMARK    7  A    between atoms: C_11  and  C_15
REMARK    8  A    between atoms: C_22  and  C_23
REMARK                            x       y       z     vdW  Elec       q    Type
REMARK                         _______ _______ _______ _____ _____    ______ ____
ROOT
ATOM     12  C   UNL     1      -2.755   0.850  24.239  0.00  0.00    -0.017 A 
ATOM     16  C   UNL     1      -1.913   0.654  25.333  0.00  0.00    +0.008 A 
ATOM     17  C   UNL     1      -2.222   1.239  23.010  0.00  0.00    +0.008 A 
ATOM     18  C   UNL     1      -0.538   0.848  25.199  0.00  0.00    +0.024 A 
ATOM     19  C   UNL     1      -0.848   1.433  22.875  0.00  0.00    +0.024 A 
ATOM     20  C   UNL     1      -0.005   1.238  23.970  0.00  0.00    +0.035 A 
ENDROOT
BRANCH  20   6
ATOM      4  O   UNL     1       2.064  -0.427  22.573  0.00  0.00    -0.253 OA
ATOM      6  N   UNL     1       1.370   1.431  23.835  0.00  0.00    -0.269 N 
ATOM      7  N   UNL     1       3.595   1.163  23.262  0.00  0.00    -0.299 N 
ATOM     21  C   UNL     1       2.308   0.620  23.167  0.00  0.00    +0.304 C 
ATOM     25  H   UNL     1       1.741   2.269  24.278  0.00  0.00    +0.156 HD
ATOM     26  H   UNL     1       3.718   2.038  23.762  0.00  0.00    +0.150 HD
BRANCH   7  22
ATOM     22  C   UNL     1       4.757   0.543  22.670  0.00  0.00    +0.102 C 
ATOM     23  C   UNL     1       5.577  -0.201  23.703  0.00  0.00    +0.024 C 
ENDBRANCH   7  22
ENDBRANCH  20   6
BRANCH  12   9
ATOM      9  C   UNL     1      -4.240   0.641  24.385  0.00  0.00    +0.167 C 
BRANCH   9   8
ATOM      1  O   UNL     1      -6.438   1.599  26.076  0.00  0.00    -0.369 OA
ATOM      3  O   UNL     1      -4.051   4.186  26.888  0.00  0.00    -0.273 OA
ATOM      5  N   UNL     1      -4.363   3.055  24.877  0.00  0.00    -0.292 N 
ATOM      8  C   UNL     1      -5.021   1.942  24.181  0.00  0.00    +0.135 C 
ATOM     10  C   UNL     1      -6.459   1.802  24.667  0.00  0.00    +0.185 C 
ATOM     13  C   UNL     1      -4.680   3.384  26.194  0.00  0.00    +0.242 C 
ATOM     14  C   UNL     1      -5.949   2.742  26.742  0.00  0.00    +0.255 C 
BRANCH   5  11
ATOM     11  C   UNL     1      -3.234   3.692  24.211  0.00  0.00    +0.105 C 
ATOM     15  C   UNL     1      -2.238   4.240  25.212  0.00  0.00    +0.024 C 
ENDBRANCH   5  11
ENDBRANCH   9   8
BRANCH   9   2
ATOM      2  O   UNL     1      -4.522   0.121  25.681  0.00  0.00    -0.385 OA
ATOM     24  H   UNL     1      -4.071  -0.733  25.789  0.00  0.00    +0.210 HD
ENDBRANCH   9   2
ENDBRANCH  12   9
TORSDOF 6
ENDMDL
MODEL 2
REMARK VINA RESULT:      -4.4      1.554      2.525
REMARK  Name = 56774569
REMARK  8 active torsions:
REMARK  status: ('A' for Active; 'I' for Inactive)
REMARK    1  A    between atoms: O_2  and  C_9
REMARK    2  A    between atoms: N_5  and  C_11
REMARK    3  A    between atoms: N_6  and  C_20
REMARK    4  A    between atoms: N_7  and  C_22
REMARK    5  A    between atoms: C_8  and  C_9
REMARK    6  A    between atoms: C_9  and  C_12
REMARK    7  A    between atoms: C_11  and  C_15
REMARK    8  A    between atoms: C_22  and  C_23
REMARK                            x       y       z     vdW  Elec       q    Type
REMARK                         _______ _______ _______ _____ _____    ______ ____
ROOT
ATOM     12  C   UNL     1      -1.675   2.078  23.927  0.00  0.00    -0.017 A 
ATOM     16  C   UNL     1      -0.489   2.534  24.502  0.00  0.00    +0.008 A 
ATOM     17  C   UNL     1      -1.671   0.928  23.139  0.00  0.00    +0.008 A 
ATOM     18  C   UNL     1       0.701   1.838  24.289  0.00  0.00    +0.024 A 
ATOM     19  C   UNL     1      -0.481   0.233  22.925  0.00  0.00    +0.024 A 
ATOM     20  C   UNL     1       0.706   0.688  23.500  0.00  0.00    +0.035 A 
ENDROOT
BRANCH  20   6
ATOM      4  O   UNL     1       3.505   1.699  23.120  0.00  0.00    -0.253 OA
ATOM      6  N   UNL     1       1.896  -0.008  23.286  0.00  0.00    -0.269 N 
ATOM      7  N   UNL     1       4.122  -0.521  22.922  0.00  0.00    -0.299 N 
ATOM     21  C   UNL     1       3.195   0.510  23.112  0.00  0.00    +0.304 C 
ATOM     25  H   UNL     1       1.812  -1.021  23.252  0.00  0.00    +0.156 HD
ATOM     26  H   UNL     1       3.792  -1.481  22.938  0.00  0.00    +0.150 HD
BRANCH   7  22
ATOM     22  C   UNL     1       5.532  -0.285  22.718  0.00  0.00    +0.102 C 
ATOM     23  C   UNL     1       6.235   0.038  24.021  0.00  0.00    +0.024 C 
ENDBRANCH   7  22
ENDBRANCH  20   6
BRANCH  12   9
ATOM      9  C   UNL     1      -2.961   2.830  24.158  0.00  0.00    +0.167 C 
BRANCH   9   8
ATOM      1  O   UNL     1      -5.008   4.357  25.601  0.00  0.00    -0.369 OA
ATOM      3  O   UNL     1      -7.100   1.589  24.596  0.00  0.00    -0.273 OA
ATOM      5  N   UNL     1      -4.843   1.593  25.164  0.00  0.00    -0.292 N 
ATOM      8  C   UNL     1      -3.649   2.396  25.455  0.00  0.00    +0.135 C 
ATOM     10  C   UNL     1      -4.029   3.603  26.305  0.00  0.00    +0.185 C 
ATOM     13  C   UNL     1      -6.098   2.178  25.008  0.00  0.00    +0.242 C 
ATOM     14  C   UNL     1      -6.207   3.627  25.468  0.00  0.00    +0.255 C 
BRANCH   5  11
ATOM     11  C   UNL     1      -4.646   0.181  24.861  0.00  0.00    +0.105 C 
ATOM     15  C   UNL     1      -3.662  -0.460  25.819  0.00  0.00    +0.024 C 
ENDBRANCH   5  11
ENDBRANCH   9   8
BRANCH   9   2
ATOM      2  O   UNL     1      -3.843   2.611  23.061  0.00  0.00    -0.385 OA
ATOM     24  H   UNL     1      -3.337   2.636  22.233  0.00  0.00    +0.210 HD
ENDBRANCH   9   2
ENDBRANCH  12   9
TORSDOF 6
ENDMDL
MODEL 3
REMARK VINA RESULT:      -4.3     16.953     18.043
REMARK  Name = 56774569
REMARK  8 active torsions:
REMARK  status: ('A' for Active; 'I' for Inactive)
REMARK    1  A    between atoms: O_2  and  C_9
REMARK    2  A    between atoms: N_5  and  C_11
REMARK    3  A    between atoms: N_6  and  C_20
REMARK    4  A    between atoms: N_7  and  C_22
REMARK    5  A    between atoms: C_8  and  C_9
REMARK    6  A    between atoms: C_9  and  C_12
REMARK    7  A    between atoms: C_11  and  C_15
REMARK    8  A    between atoms: C_22  and  C_23
REMARK                            x       y       z     vdW  Elec       q    Type
REMARK                         _______ _______ _______ _____ _____    ______ ____
ROOT
ATOM     12  C   UNL     1      -8.025 -10.209  12.170  0.00  0.00    -0.017 A 
ATOM     16  C   UNL     1      -6.774 -10.735  11.850  0.00  0.00    +0.008 A 
ATOM     17  C   UNL     1      -8.272  -9.729  13.456  0.00  0.00    +0.008 A 
ATOM     18  C   UNL     1      -5.769 -10.781  12.816  0.00  0.00    +0.024 A 
ATOM     19  C   UNL     1      -7.268  -9.775  14.423  0.00  0.00    +0.024 A 
ATOM     20  C   UNL     1      -6.016 -10.301  14.103  0.00  0.00    +0.035 A 
ENDROOT
BRANCH  20   6
ATOM      4  O   UNL     1      -3.050 -10.648  13.808  0.00  0.00    -0.253 OA
ATOM      6  N   UNL     1      -5.011 -10.348  15.070  0.00  0.00    -0.269 N 
ATOM      7  N   UNL     1      -2.953 -10.505  16.113  0.00  0.00    -0.299 N 
ATOM     21  C   UNL     1      -3.624 -10.513  14.886  0.00  0.00    +0.304 C 
ATOM     25  H   UNL     1      -5.323 -10.249  16.033  0.00  0.00    +0.156 HD
ATOM     26  H   UNL     1      -3.494 -10.379  16.963  0.00  0.00    +0.150 HD
BRANCH   7  22
ATOM     22  C   UNL     1      -1.521 -10.656  16.229  0.00  0.00    +0.102 C 
ATOM     23  C   UNL     1      -0.785  -9.630  15.393  0.00  0.00    +0.024 C 
ENDBRANCH   7  22
ENDBRANCH  20   6
BRANCH  12   9
ATOM      9  C   UNL     1      -9.111 -10.159  11.126  0.00  0.00    +0.167 C 
BRANCH   9   8
ATOM      1  O   UNL     1     -10.664  -9.724   8.675  0.00  0.00    -0.369 OA
ATOM      3  O   UNL     1      -8.894  -6.575   8.681  0.00  0.00    -0.273 OA
ATOM      5  N   UNL     1      -8.170  -8.668   9.400  0.00  0.00    -0.292 N 
ATOM      8  C   UNL     1      -8.535 -10.056   9.711  0.00  0.00    +0.135 C 
ATOM     10  C   UNL     1      -9.525 -10.577   8.675  0.00  0.00    +0.185 C 
ATOM     13  C   UNL     1      -9.075  -7.788   8.809  0.00  0.00    +0.242 C 
ATOM     14  C   UNL     1     -10.326  -8.432   8.222  0.00  0.00    +0.255 C 
BRANCH   5  11
ATOM     11  C   UNL     1      -6.889  -8.182   9.898  0.00  0.00    +0.105 C 
ATOM     15  C   UNL     1      -5.777  -8.430   8.900  0.00  0.00    +0.024 C 
ENDBRANCH   5  11
ENDBRANCH   9   8
BRANCH   9   2
ATOM      2  O   UNL     1      -9.958  -9.040  11.372  0.00  0.00    -0.385 OA
ATOM     24  H   UNL     1     -10.169  -9.002  12.319  0.00  0.00    +0.210 HD
ENDBRANCH   9   2
ENDBRANCH  12   9
TORSDOF 6
ENDMDL
MODEL 4
REMARK VINA RESULT:      -3.8     16.062     17.319
REMARK  Name = 56774569
REMARK  8 active torsions:
REMARK  status: ('A' for Active; 'I' for Inactive)
REMARK    1  A    between atoms: O_2  and  C_9
REMARK    2  A    between atoms: N_5  and  C_11
REMARK    3  A    between atoms: N_6  and  C_20
REMARK    4  A    between atoms: N_7  and  C_22
REMARK    5  A    between atoms: C_8  and  C_9
REMARK    6  A    between atoms: C_9  and  C_12
REMARK    7  A    between atoms: C_11  and  C_15
REMARK    8  A    between atoms: C_22  and  C_23
REMARK                            x       y       z     vdW  Elec       q    Type
REMARK                         _______ _______ _______ _____ _____    ______ ____
ROOT
ATOM     12  C   UNL     1      -3.696  -9.888  11.568  0.00  0.00    -0.017 A 
ATOM     16  C   UNL     1      -3.232  -9.223  10.433  0.00  0.00    +0.008 A 
ATOM     17  C   UNL     1      -2.819 -10.183  12.611  0.00  0.00    +0.008 A 
ATOM     18  C   UNL     1      -1.890  -8.854  10.342  0.00  0.00    +0.024 A 
ATOM     19  C   UNL     1      -1.478  -9.813  12.521  0.00  0.00    +0.024 A 
ATOM     20  C   UNL     1      -1.012  -9.148  11.386  0.00  0.00    +0.035 A 
ENDROOT
BRANCH  20   6
ATOM      4  O   UNL     1       0.465  -6.867  12.657  0.00  0.00    -0.253 OA
ATOM      6  N   UNL     1       0.329  -8.779  11.295  0.00  0.00    -0.269 N 
ATOM      7  N   UNL     1       2.340  -7.667  11.566  0.00  0.00    -0.299 N 
ATOM     21  C   UNL     1       0.984  -7.694  11.912  0.00  0.00    +0.304 C 
ATOM     25  H   UNL     1       0.910  -9.371  10.705  0.00  0.00    +0.156 HD
ATOM     26  H   UNL     1       2.700  -8.390  10.952  0.00  0.00    +0.150 HD
BRANCH   7  22
ATOM     22  C   UNL     1       3.257  -6.663  12.053  0.00  0.00    +0.102 C 
ATOM     23  C   UNL     1       4.600  -7.264  12.411  0.00  0.00    +0.024 C 
ENDBRANCH   7  22
ENDBRANCH  20   6
BRANCH  12   9
ATOM      9  C   UNL     1      -5.146 -10.288  11.665  0.00  0.00    +0.167 C 
BRANCH   9   8
ATOM      1  O   UNL     1      -6.326  -9.673   9.051  0.00  0.00    -0.369 OA
ATOM      3  O   UNL     1      -9.388 -10.533  10.763  0.00  0.00    -0.273 OA
ATOM      5  N   UNL     1      -7.480  -9.493  11.599  0.00  0.00    -0.292 N 
ATOM      8  C   UNL     1      -6.082  -9.114  11.362  0.00  0.00    +0.135 C 
ATOM     10  C   UNL     1      -5.910  -8.632   9.926  0.00  0.00    +0.185 C 
ATOM     13  C   UNL     1      -8.272 -10.038  10.590  0.00  0.00    +0.242 C 
ATOM     14  C   UNL     1      -7.710  -9.917   9.179  0.00  0.00    +0.255 C 
BRANCH   5  11
ATOM     11  C   UNL     1      -7.965  -9.452  12.973  0.00  0.00    +0.105 C 
ATOM     15  C   UNL     1      -8.711 -10.720  13.336  0.00  0.00    +0.024 C 
ENDBRANCH   5  11
ENDBRANCH   9   8
BRANCH   9   2
ATOM      2  O   UNL     1      -5.417 -10.779  12.975  0.00  0.00    -0.385 OA
ATOM     24  H   UNL     1      -5.501 -11.746  12.943  0.00  0.00    +0.210 HD
ENDBRANCH   9   2
ENDBRANCH  12   9
TORSDOF 6
ENDMDL
MODEL 5
REMARK VINA RESULT:      -3.7      1.487      2.797
REMARK  Name = 56774569
REMARK  8 active torsions:
REMARK  status: ('A' for Active; 'I' for Inactive)
REMARK    1  A    between atoms: O_2  and  C_9
REMARK    2  A    between atoms: N_5  and  C_11
REMARK    3  A    between atoms: N_6  and  C_20
REMARK    4  A    between atoms: N_7  and  C_22
REMARK    5  A    between atoms: C_8  and  C_9
REMARK    6  A    between atoms: C_9  and  C_12
REMARK    7  A    between atoms: C_11  and  C_15
REMARK    8  A    between atoms: C_22  and  C_23
REMARK                            x       y       z     vdW  Elec       q    Type
REMARK                         _______ _______ _______ _____ _____    ______ ____
ROOT
ATOM     12  C   UNL     1      -2.308   2.764  24.660  0.00  0.00    -0.017 A 
ATOM     16  C   UNL     1      -1.910   2.179  23.458  0.00  0.00    +0.008 A 
ATOM     17  C   UNL     1      -1.357   3.088  25.628  0.00  0.00    +0.008 A 
ATOM     18  C   UNL     1      -0.560   1.918  23.224  0.00  0.00    +0.024 A 
ATOM     19  C   UNL     1      -0.007   2.827  25.394  0.00  0.00    +0.024 A 
ATOM     20  C   UNL     1       0.392   2.242  24.192  0.00  0.00    +0.035 A 
ENDROOT
BRANCH  20   6
ATOM      4  O   UNL     1       1.709  -0.044  22.761  0.00  0.00    -0.253 OA
ATOM      6  N   UNL     1       1.742   1.980  23.957  0.00  0.00    -0.269 N 
ATOM      7  N   UNL     1       3.714   0.994  23.258  0.00  0.00    -0.299 N 
ATOM     21  C   UNL     1       2.319   0.889  23.278  0.00  0.00    +0.304 C 
ATOM     25  H   UNL     1       2.393   2.670  24.327  0.00  0.00    +0.156 HD
ATOM     26  H   UNL     1       4.148   1.800  23.697  0.00  0.00    +0.150 HD
BRANCH   7  22
ATOM     22  C   UNL     1       4.569   0.015  22.628  0.00  0.00    +0.102 C 
ATOM     23  C   UNL     1       5.738  -0.355  23.517  0.00  0.00    +0.024 C 
ENDBRANCH   7  22
ENDBRANCH  20   6
BRANCH  12   9
ATOM      9  C   UNL     1      -3.767   3.046  24.913  0.00  0.00    +0.167 C 
BRANCH   9   8
ATOM      1  O   UNL     1      -6.497   1.991  24.707  0.00  0.00    -0.369 OA
ATOM      3  O   UNL     1      -4.746  -1.065  23.906  0.00  0.00    -0.273 OA
ATOM      5  N   UNL     1      -4.125   0.646  25.358  0.00  0.00    -0.292 N 
ATOM      8  C   UNL     1      -4.394   2.005  25.844  0.00  0.00    +0.135 C 
ATOM     10  C   UNL     1      -5.897   2.221  25.977  0.00  0.00    +0.185 C 
ATOM     13  C   UNL     1      -4.994  -0.004  24.483  0.00  0.00    +0.242 C 
ATOM     14  C   UNL     1      -6.367   0.640  24.325  0.00  0.00    +0.255 C 
BRANCH   5  11
ATOM     11  C   UNL     1      -2.827   0.064  25.672  0.00  0.00    +0.105 C 
ATOM     15  C   UNL     1      -2.967  -1.346  26.210  0.00  0.00    +0.024 C 
ENDBRANCH   5  11
ENDBRANCH   9   8
BRANCH   9   2
ATOM      2  O   UNL     1      -4.472   3.055  23.675  0.00  0.00    -0.385 OA
ATOM     24  H   UNL     1      -5.411   2.866  23.840  0.00  0.00    +0.210 HD
ENDBRANCH   9   2
ENDBRANCH  12   9
TORSDOF 6
ENDMDL
MODEL 6
REMARK VINA RESULT:      -3.6      1.495      2.531
REMARK  Name = 56774569
REMARK  8 active torsions:
REMARK  status: ('A' for Active; 'I' for Inactive)
REMARK    1  A    between atoms: O_2  and  C_9
REMARK    2  A    between atoms: N_5  and  C_11
REMARK    3  A    between atoms: N_6  and  C_20
REMARK    4  A    between atoms: N_7  and  C_22
REMARK    5  A    between atoms: C_8  and  C_9
REMARK    6  A    between atoms: C_9  and  C_12
REMARK    7  A    between atoms: C_11  and  C_15
REMARK    8  A    between atoms: C_22  and  C_23
REMARK                            x       y       z     vdW  Elec       q    Type
REMARK                         _______ _______ _______ _____ _____    ______ ____
ROOT
ATOM     12  C   UNL     1      -2.484   0.804  24.035  0.00  0.00    -0.017 A 
ATOM     16  C   UNL     1      -1.646   1.563  23.218  0.00  0.00    +0.008 A 
ATOM     17  C   UNL     1      -2.011  -0.369  24.622  0.00  0.00    +0.008 A 
ATOM     18  C   UNL     1      -0.335   1.148  22.988  0.00  0.00    +0.024 A 
ATOM     19  C   UNL     1      -0.699  -0.784  24.392  0.00  0.00    +0.024 A 
ATOM     20  C   UNL     1       0.140  -0.026  23.575  0.00  0.00    +0.035 A 
ENDROOT
BRANCH  20   6
ATOM      4  O   UNL     1       2.665   1.572  23.308  0.00  0.00    -0.253 OA
ATOM      6  N   UNL     1       1.451  -0.441  23.345  0.00  0.00    -0.269 N 
ATOM      7  N   UNL     1       3.738  -0.452  22.996  0.00  0.00    -0.299 N 
ATOM     21  C   UNL     1       2.612   0.348  23.226  0.00  0.00    +0.304 C 
ATOM     25  H   UNL     1       1.584  -1.446  23.251  0.00  0.00    +0.156 HD
ATOM     26  H   UNL     1       3.619  -1.458  22.951  0.00  0.00    +0.150 HD
BRANCH   7  22
ATOM     22  C   UNL     1       5.068   0.088  22.833  0.00  0.00    +0.102 C 
ATOM     23  C   UNL     1       5.806   0.154  24.154  0.00  0.00    +0.024 C 
ENDBRANCH   7  22
ENDBRANCH  20   6
BRANCH  12   9
ATOM      9  C   UNL     1      -3.901   1.253  24.283  0.00  0.00    +0.167 C 
BRANCH   9   8
ATOM      1  O   UNL     1      -2.743   3.806  25.147  0.00  0.00    -0.369 OA
ATOM      3  O   UNL     1      -6.213   4.801  25.250  0.00  0.00    -0.273 OA
ATOM      5  N   UNL     1      -5.266   2.726  25.716  0.00  0.00    -0.292 N 
ATOM      8  C   UNL     1      -4.065   1.884  25.668  0.00  0.00    +0.135 C 
ATOM     10  C   UNL     1      -2.838   2.706  26.045  0.00  0.00    +0.185 C 
ATOM     13  C   UNL     1      -5.223   4.082  25.397  0.00  0.00    +0.242 C 
ATOM     14  C   UNL     1      -3.827   4.691  25.316  0.00  0.00    +0.255 C 
BRANCH   5  11
ATOM     11  C   UNL     1      -6.546   2.061  25.928  0.00  0.00    +0.105 C 
ATOM     15  C   UNL     1      -6.572   1.317  27.247  0.00  0.00    +0.024 C 
ENDBRANCH   5  11
ENDBRANCH   9   8
BRANCH   9   2
ATOM      2  O   UNL     1      -4.780   0.137  24.168  0.00  0.00    -0.385 OA
ATOM     24  H   UNL     1      -5.098   0.073  23.252  0.00  0.00    +0.210 HD
ENDBRANCH   9   2
ENDBRANCH  12   9
TORSDOF 6
ENDMDL
MODEL 7
REMARK VINA RESULT:      -2.5      2.104      3.267
REMARK  Name = 56774569
REMARK  8 active torsions:
REMARK  status: ('A' for Active; 'I' for Inactive)
REMARK    1  A    between atoms: O_2  and  C_9
REMARK    2  A    between atoms: N_5  and  C_11
REMARK    3  A    between atoms: N_6  and  C_20
REMARK    4  A    between atoms: N_7  and  C_22
REMARK    5  A    between atoms: C_8  and  C_9
REMARK    6  A    between atoms: C_9  and  C_12
REMARK    7  A    between atoms: C_11  and  C_15
REMARK    8  A    between atoms: C_22  and  C_23
REMARK                            x       y       z     vdW  Elec       q    Type
REMARK                         _______ _______ _______ _____ _____    ______ ____
ROOT
ATOM     12  C   UNL     1      -1.805   1.607  24.386  0.00  0.00    -0.017 A 
ATOM     16  C   UNL     1      -0.933   2.284  25.238  0.00  0.00    +0.008 A 
ATOM     17  C   UNL     1      -1.306   0.925  23.276  0.00  0.00    +0.008 A 
ATOM     18  C   UNL     1       0.438   2.280  24.980  0.00  0.00    +0.024 A 
ATOM     19  C   UNL     1       0.064   0.920  23.018  0.00  0.00    +0.024 A 
ATOM     20  C   UNL     1       0.937   1.598  23.870  0.00  0.00    +0.035 A 
ENDROOT
BRANCH  20   6
ATOM      4  O   UNL     1       2.790  -0.681  23.254  0.00  0.00    -0.253 OA
ATOM      6  N   UNL     1       2.308   1.593  23.612  0.00  0.00    -0.269 N 
ATOM      7  N   UNL     1       4.464   0.909  23.127  0.00  0.00    -0.299 N 
ATOM     21  C   UNL     1       3.142   0.494  23.326  0.00  0.00    +0.304 C 
ATOM     25  H   UNL     1       2.762   2.503  23.634  0.00  0.00    +0.156 HD
ATOM     26  H   UNL     1       4.678   1.899  23.193  0.00  0.00    +0.150 HD
BRANCH   7  22
ATOM     22  C   UNL     1       5.539  -0.005  22.818  0.00  0.00    +0.102 C 
ATOM     23  C   UNL     1       5.976  -0.782  24.042  0.00  0.00    +0.024 C 
ENDBRANCH   7  22
ENDBRANCH  20   6
BRANCH  12   9
ATOM      9  C   UNL     1      -3.286   1.613  24.665  0.00  0.00    +0.167 C 
BRANCH   9   8
ATOM      1  O   UNL     1      -5.136  -0.545  23.938  0.00  0.00    -0.369 OA
ATOM      3  O   UNL     1      -2.145  -2.553  24.200  0.00  0.00    -0.273 OA
ATOM      5  N   UNL     1      -2.765  -0.675  25.428  0.00  0.00    -0.292 N 
ATOM      8  C   UNL     1      -3.699   0.449  25.570  0.00  0.00    +0.135 C 
ATOM     10  C   UNL     1      -5.118  -0.012  25.258  0.00  0.00    +0.185 C 
ATOM     13  C   UNL     1      -2.970  -1.683  24.488  0.00  0.00    +0.242 C 
ATOM     14  C   UNL     1      -4.357  -1.718  23.857  0.00  0.00    +0.255 C 
BRANCH   5  11
ATOM     11  C   UNL     1      -1.516  -0.609  26.176  0.00  0.00    +0.105 C 
ATOM     15  C   UNL     1      -0.488  -1.575  25.624  0.00  0.00    +0.024 C 
ENDBRANCH   5  11
ENDBRANCH   9   8
BRANCH   9   2
ATOM      2  O   UNL     1      -4.002   1.530  23.436  0.00  0.00    -0.385 OA
ATOM     24  H   UNL     1      -3.841   0.662  23.030  0.00  0.00    +0.210 HD
ENDBRANCH   9   2
ENDBRANCH  12   9
TORSDOF 6
ENDMDL
MODEL 8
REMARK VINA RESULT:      -2.5      1.429      1.852
REMARK  Name = 56774569
REMARK  8 active torsions:
REMARK  status: ('A' for Active; 'I' for Inactive)
REMARK    1  A    between atoms: O_2  and  C_9
REMARK    2  A    between atoms: N_5  and  C_11
REMARK    3  A    between atoms: N_6  and  C_20
REMARK    4  A    between atoms: N_7  and  C_22
REMARK    5  A    between atoms: C_8  and  C_9
REMARK    6  A    between atoms: C_9  and  C_12
REMARK    7  A    between atoms: C_11  and  C_15
REMARK    8  A    between atoms: C_22  and  C_23
REMARK                            x       y       z     vdW  Elec       q    Type
REMARK                         _______ _______ _______ _____ _____    ______ ____
ROOT
ATOM     12  C   UNL     1      -1.755   1.172  25.021  0.00  0.00    -0.017 A 
ATOM     16  C   UNL     1      -0.830   2.064  24.477  0.00  0.00    +0.008 A 
ATOM     17  C   UNL     1      -1.518  -0.201  24.962  0.00  0.00    +0.008 A 
ATOM     18  C   UNL     1       0.332   1.582  23.875  0.00  0.00    +0.024 A 
ATOM     19  C   UNL     1      -0.356  -0.683  24.360  0.00  0.00    +0.024 A 
ATOM     20  C   UNL     1       0.570   0.209  23.816  0.00  0.00    +0.035 A 
ENDROOT
BRANCH  20   6
ATOM      4  O   UNL     1       3.257   1.498  23.471  0.00  0.00    -0.253 OA
ATOM      6  N   UNL     1       1.732  -0.273  23.213  0.00  0.00    -0.269 N 
ATOM      7  N   UNL     1       3.892  -0.453  22.405  0.00  0.00    -0.299 N 
ATOM     21  C   UNL     1       2.978   0.369  23.073  0.00  0.00    +0.304 C 
ATOM     25  H   UNL     1       1.669  -1.212  22.825  0.00  0.00    +0.156 HD
ATOM     26  H   UNL     1       3.592  -1.378  22.115  0.00  0.00    +0.150 HD
BRANCH   7  22
ATOM     22  C   UNL     1       5.250  -0.054  22.121  0.00  0.00    +0.102 C 
ATOM     23  C   UNL     1       6.109  -0.080  23.368  0.00  0.00    +0.024 C 
ENDBRANCH   7  22
ENDBRANCH  20   6
BRANCH  12   9
ATOM      9  C   UNL     1      -3.011   1.693  25.671  0.00  0.00    +0.167 C 
BRANCH   9   8
ATOM      1  O   UNL     1      -5.805   1.095  26.333  0.00  0.00    -0.369 OA
ATOM      3  O   UNL     1      -6.233   4.606  25.600  0.00  0.00    -0.273 OA
ATOM      5  N   UNL     1      -4.775   3.070  24.632  0.00  0.00    -0.292 N 
ATOM      8  C   UNL     1      -4.187   1.726  24.691  0.00  0.00    +0.135 C 
ATOM     10  C   UNL     1      -5.254   0.709  25.080  0.00  0.00    +0.185 C 
ATOM     13  C   UNL     1      -5.814   3.453  25.478  0.00  0.00    +0.242 C 
ATOM     14  C   UNL     1      -6.504   2.315  26.223  0.00  0.00    +0.255 C 
BRANCH   5  11
ATOM     11  C   UNL     1      -4.114   4.057  23.787  0.00  0.00    +0.105 C 
ATOM     15  C   UNL     1      -3.643   3.443  22.484  0.00  0.00    +0.024 C 
ENDBRANCH   5  11
ENDBRANCH   9   8
BRANCH   9   2
ATOM      2  O   UNL     1      -2.779   3.007  26.171  0.00  0.00    -0.385 OA
ATOM     24  H   UNL     1      -2.341   3.537  25.484  0.00  0.00    +0.210 HD
ENDBRANCH   9   2
ENDBRANCH  12   9
TORSDOF 6
ENDMDL
MODEL 9
REMARK VINA RESULT:      -2.2      1.594      3.096
REMARK  Name = 56774569
REMARK  8 active torsions:
REMARK  status: ('A' for Active; 'I' for Inactive)
REMARK    1  A    between atoms: O_2  and  C_9
REMARK    2  A    between atoms: N_5  and  C_11
REMARK    3  A    between atoms: N_6  and  C_20
REMARK    4  A    between atoms: N_7  and  C_22
REMARK    5  A    between atoms: C_8  and  C_9
REMARK    6  A    between atoms: C_9  and  C_12
REMARK    7  A    between atoms: C_11  and  C_15
REMARK    8  A    between atoms: C_22  and  C_23
REMARK                            x       y       z     vdW  Elec       q    Type
REMARK                         _______ _______ _______ _____ _____    ______ ____
ROOT
ATOM     12  C   UNL     1      -1.788   2.337  25.119  0.00  0.00    -0.017 A 
ATOM     16  C   UNL     1      -0.794   2.976  24.380  0.00  0.00    +0.008 A 
ATOM     17  C   UNL     1      -1.681   0.975  25.403  0.00  0.00    +0.008 A 
ATOM     18  C   UNL     1       0.308   2.254  23.923  0.00  0.00    +0.024 A 
ATOM     19  C   UNL     1      -0.579   0.253  24.946  0.00  0.00    +0.024 A 
ATOM     20  C   UNL     1       0.416   0.892  24.205  0.00  0.00    +0.035 A 
ENDROOT
BRANCH  20   6
ATOM      4  O   UNL     1       3.096   1.838  23.242  0.00  0.00    -0.253 OA
ATOM      6  N   UNL     1       1.518   0.170  23.749  0.00  0.00    -0.269 N 
ATOM      7  N   UNL     1       3.606  -0.395  22.926  0.00  0.00    -0.299 N 
ATOM     21  C   UNL     1       2.763   0.657  23.303  0.00  0.00    +0.304 C 
ATOM     25  H   UNL     1       1.406  -0.842  23.736  0.00  0.00    +0.156 HD
ATOM     26  H   UNL     1       3.265  -1.347  23.014  0.00  0.00    +0.150 HD
BRANCH   7  22
ATOM     22  C   UNL     1       4.947  -0.191  22.429  0.00  0.00    +0.102 C 
ATOM     23  C   UNL     1       5.946  -0.074  23.561  0.00  0.00    +0.024 C 
ENDBRANCH   7  22
ENDBRANCH  20   6
BRANCH  12   9
ATOM      9  C   UNL     1      -2.979   3.118  25.613  0.00  0.00    +0.167 C 
BRANCH   9   8
ATOM      1  O   UNL     1      -2.946   2.493  22.746  0.00  0.00    -0.369 OA
ATOM      3  O   UNL     1      -4.270  -0.662  23.904  0.00  0.00    -0.273 OA
ATOM      5  N   UNL     1      -4.612   1.477  24.759  0.00  0.00    -0.292 N 
ATOM      8  C   UNL     1      -4.213   2.889  24.735  0.00  0.00    +0.135 C 
ATOM     10  C   UNL     1      -3.955   3.332  23.299  0.00  0.00    +0.185 C 
ATOM     13  C   UNL     1      -4.114   0.559  23.835  0.00  0.00    +0.242 C 
ATOM     14  C   UNL     1      -3.404   1.164  22.630  0.00  0.00    +0.255 C 
BRANCH   5  11
ATOM     11  C   UNL     1      -5.403   1.021  25.895  0.00  0.00    +0.105 C 
ATOM     15  C   UNL     1      -6.354   2.098  26.376  0.00  0.00    +0.024 C 
ENDBRANCH   5  11
ENDBRANCH   9   8
BRANCH   9   2
ATOM      2  O   UNL     1      -2.664   4.507  25.628  0.00  0.00    -0.385 OA
ATOM     24  H   UNL     1      -3.334   4.981  26.149  0.00  0.00    +0.210 HD
ENDBRANCH   9   2
ENDBRANCH  12   9
TORSDOF 6
ENDMDL
MODEL 10
REMARK VINA RESULT:      -1.5      1.753      2.532
REMARK  Name = 56774569
REMARK  8 active torsions:
REMARK  status: ('A' for Active; 'I' for Inactive)
REMARK    1  A    between atoms: O_2  and  C_9
REMARK    2  A    between atoms: N_5  and  C_11
REMARK    3  A    between atoms: N_6  and  C_20
REMARK    4  A    between atoms: N_7  and  C_22
REMARK    5  A    between atoms: C_8  and  C_9
REMARK    6  A    between atoms: C_9  and  C_12
REMARK    7  A    between atoms: C_11  and  C_15
REMARK    8  A    between atoms: C_22  and  C_23
REMARK                            x       y       z     vdW  Elec       q    Type
REMARK                         _______ _______ _______ _____ _____    ______ ____
ROOT
ATOM     12  C   UNL     1      -0.471   0.848  23.883  0.00  0.00    -0.017 A 
ATOM     16  C   UNL     1      -0.089  -0.427  23.466  0.00  0.00    +0.008 A 
ATOM     17  C   UNL     1       0.465   1.881  23.915  0.00  0.00    +0.008 A 
ATOM     18  C   UNL     1       1.230  -0.668  23.082  0.00  0.00    +0.024 A 
ATOM     19  C   UNL     1       1.783   1.640  23.530  0.00  0.00    +0.024 A 
ATOM     20  C   UNL     1       2.167   0.365  23.113  0.00  0.00    +0.035 A 
ENDROOT
BRANCH  20   6
ATOM      4  O   UNL     1       4.709   0.500  24.701  0.00  0.00    -0.253 OA
ATOM      6  N   UNL     1       3.485   0.124  22.729  0.00  0.00    -0.269 N 
ATOM      7  N   UNL     1       5.786  -0.117  22.750  0.00  0.00    -0.299 N 
ATOM     21  C   UNL     1       4.655   0.200  23.511  0.00  0.00    +0.304 C 
ATOM     25  H   UNL     1       3.618  -0.140  21.755  0.00  0.00    +0.156 HD
ATOM     26  H   UNL     1       5.662  -0.365  21.774  0.00  0.00    +0.150 HD
BRANCH   7  22
ATOM     22  C   UNL     1       7.125  -0.122  23.293  0.00  0.00    +0.102 C 
ATOM     23  C   UNL     1       8.041  -1.032  22.503  0.00  0.00    +0.024 C 
ENDBRANCH   7  22
ENDBRANCH  20   6
BRANCH  12   9
ATOM      9  C   UNL     1      -1.896   1.107  24.299  0.00  0.00    +0.167 C 
BRANCH   9   8
ATOM      1  O   UNL     1      -4.682   2.027  24.278  0.00  0.00    -0.369 OA
ATOM      3  O   UNL     1      -3.471   4.245  26.858  0.00  0.00    -0.273 OA
ATOM      5  N   UNL     1      -2.361   3.433  24.980  0.00  0.00    -0.292 N 
ATOM      8  C   UNL     1      -2.376   2.491  23.853  0.00  0.00    +0.135 C 
ATOM     10  C   UNL     1      -3.776   2.420  23.254  0.00  0.00    +0.185 C 
ATOM     13  C   UNL     1      -3.472   3.607  25.803  0.00  0.00    +0.242 C 
ATOM     14  C   UNL     1      -4.776   3.017  25.277  0.00  0.00    +0.255 C 
BRANCH   5  11
ATOM     11  C   UNL     1      -1.086   4.047  25.326  0.00  0.00    +0.105 C 
ATOM     15  C   UNL     1      -1.021   5.488  24.862  0.00  0.00    +0.024 C 
ENDBRANCH   5  11
ENDBRANCH   9   8
BRANCH   9   2
ATOM      2  O   UNL     1      -2.004   1.007  25.716  0.00  0.00    -0.385 OA
ATOM     24  H   UNL     1      -1.530   1.750  26.127  0.00  0.00    +0.210 HD
ENDBRANCH   9   2
ENDBRANCH  12   9
TORSDOF 6
ENDMDL
