MODEL 1
REMARK VINA RESULT:       4.1      0.000      0.000
REMARK  Name = 11912954
REMARK  9 active torsions:
REMARK  status: ('A' for Active; 'I' for Inactive)
REMARK    1  A    between atoms: N_3  and  C_9
REMARK    2  A    between atoms: N_3  and  C_13
REMARK    3  A    between atoms: N_4  and  C_10
REMARK    4  A    between atoms: C_13  and  C_15
REMARK    5  A    between atoms: C_16  and  C_17
REMARK    6  A    between atoms: C_16  and  C_22
REMARK    7  A    between atoms: C_16  and  C_23
REMARK    8  A    between atoms: C_16  and  C_24
REMARK    9  A    between atoms: C_27  and  C_28
REMARK                            x       y       z     vdW  Elec       q    Type
REMARK                         _______ _______ _______ _____ _____    ______ ____
ROOT
ATOM      1  O   UNL     1      -4.155   0.036  26.155  0.00  0.00    -0.370 OA
ATOM      2  O   UNL     1      -6.279   1.344  24.314  0.00  0.00    -0.370 OA
ATOM      7  C   UNL     1      -4.899   0.991  24.111  0.00  0.00    +0.168 C 
ATOM      8  C   UNL     1      -4.170   1.267  25.411  0.00  0.00    +0.171 C 
ATOM      9  C   UNL     1      -4.763  -0.504  23.920  0.00  0.00    +0.111 C 
ATOM     10  C   UNL     1      -5.038   2.287  26.110  0.00  0.00    +0.130 C 
ATOM     11  C   UNL     1      -4.744  -1.001  25.356  0.00  0.00    +0.181 C 
ATOM     12  C   UNL     1      -6.430   1.934  25.614  0.00  0.00    +0.185 C 
ENDROOT
BRANCH  10   4
ATOM      4  N   UNL     1      -4.678   3.622  25.682  0.00  0.00    -0.306 N 
ATOM      5  N   UNL     1      -2.384   3.128  25.708  0.00  0.00    -0.219 NA
ATOM      6  N   UNL     1      -3.172   5.316  25.078  0.00  0.00    -0.223 NA
ATOM     14  C   UNL     1      -3.372   4.034  25.484  0.00  0.00    +0.216 A 
ATOM     17  C   UNL     1      -1.124   3.564  25.504  0.00  0.00    +0.052 A 
ATOM     20  C   UNL     1      -0.812   4.844  25.094  0.00  0.00    +0.043 A 
ATOM     21  C   UNL     1      -1.888   5.686  24.894  0.00  0.00    +0.116 A 
ATOM     35  H   UNL     1      -5.408   4.289  25.462  0.00  0.00    +0.149 HD
BRANCH  17  16
ATOM     16  C   UNL     1      -0.026   2.582  25.746  0.00  0.00    +0.005 C 
ATOM     22  C   UNL     1       0.893   2.443  24.494  0.00  0.00    +0.017 C 
ATOM     23  C   UNL     1      -0.595   1.168  26.073  0.00  0.00    +0.017 C 
ATOM     24  C   UNL     1       0.934   2.929  26.932  0.00  0.00    +0.017 C 
ENDBRANCH  17  16
ENDBRANCH  10   4
BRANCH   9   3
ATOM      3  N   UNL     1      -3.494  -0.824  23.269  0.00  0.00    -0.305 NA
ATOM     34  H   UNL     1      -2.998   0.042  23.058  0.00  0.00    +0.123 HD
BRANCH   3  13
ATOM     13  C   UNL     1      -2.669  -1.658  24.129  0.00  0.00    +0.116 C 
BRANCH  13  15
ATOM     15  C   UNL     1      -1.203  -1.359  23.960  0.00  0.00    -0.034 A 
ATOM     18  C   UNL     1      -0.283  -1.949  24.815  0.00  0.00    +0.005 A 
ATOM     19  C   UNL     1      -0.793  -0.496  22.952  0.00  0.00    +0.005 A 
ATOM     25  C   UNL     1       1.076  -1.671  24.659  0.00  0.00    +0.009 A 
ATOM     26  C   UNL     1       0.565  -0.219  22.796  0.00  0.00    +0.009 A 
ATOM     27  C   UNL     1       1.499  -0.806  23.650  0.00  0.00    -0.018 A 
BRANCH  27  28
ATOM     28  C   UNL     1       2.908  -0.519  23.487  0.00  0.00    -0.018 A 
ATOM     29  C   UNL     1       3.311   0.668  22.875  0.00  0.00    +0.008 A 
ATOM     30  C   UNL     1       3.863  -1.428  23.942  0.00  0.00    +0.008 A 
ATOM     31  C   UNL     1       4.668   0.946  22.718  0.00  0.00    +0.001 A 
ATOM     32  C   UNL     1       5.221  -1.150  23.784  0.00  0.00    +0.001 A 
ATOM     33  C   UNL     1       5.623   0.037  23.173  0.00  0.00    +0.000 A 
ENDBRANCH  27  28
ENDBRANCH  13  15
ENDBRANCH   3  13
ENDBRANCH   9   3
TORSDOF 6
ENDMDL
MODEL 2
REMARK VINA RESULT:       5.7      1.947      3.736
REMARK  Name = 11912954
REMARK  9 active torsions:
REMARK  status: ('A' for Active; 'I' for Inactive)
REMARK    1  A    between atoms: N_3  and  C_9
REMARK    2  A    between atoms: N_3  and  C_13
REMARK    3  A    between atoms: N_4  and  C_10
REMARK    4  A    between atoms: C_13  and  C_15
REMARK    5  A    between atoms: C_16  and  C_17
REMARK    6  A    between atoms: C_16  and  C_22
REMARK    7  A    between atoms: C_16  and  C_23
REMARK    8  A    between atoms: C_16  and  C_24
REMARK    9  A    between atoms: C_27  and  C_28
REMARK                            x       y       z     vdW  Elec       q    Type
REMARK                         _______ _______ _______ _____ _____    ______ ____
ROOT
ATOM      1  O   UNL     1      -1.272  -1.127  26.497  0.00  0.00    -0.370 OA
ATOM      2  O   UNL     1      -2.722  -2.040  23.914  0.00  0.00    -0.370 OA
ATOM      7  C   UNL     1      -1.888  -0.907  24.214  0.00  0.00    +0.168 C 
ATOM      8  C   UNL     1      -2.213  -0.473  25.629  0.00  0.00    +0.171 C 
ATOM      9  C   UNL     1      -0.436  -1.328  24.280  0.00  0.00    +0.111 C 
ATOM     10  C   UNL     1      -3.604  -1.012  25.869  0.00  0.00    +0.130 C 
ATOM     11  C   UNL     1      -0.330  -1.861  25.700  0.00  0.00    +0.181 C 
ATOM     12  C   UNL     1      -3.629  -2.261  25.006  0.00  0.00    +0.185 C 
ENDROOT
BRANCH  10   4
ATOM      4  N   UNL     1      -4.592  -0.062  25.403  0.00  0.00    -0.306 N 
ATOM      5  N   UNL     1      -3.010   1.663  25.230  0.00  0.00    -0.219 NA
ATOM      6  N   UNL     1      -5.321   2.040  24.659  0.00  0.00    -0.223 NA
ATOM     14  C   UNL     1      -4.299   1.253  25.088  0.00  0.00    +0.216 A 
ATOM     17  C   UNL     1      -2.760   2.950  24.914  0.00  0.00    +0.052 A 
ATOM     20  C   UNL     1      -3.725   3.832  24.469  0.00  0.00    +0.043 A 
ATOM     21  C   UNL     1      -5.000   3.316  24.360  0.00  0.00    +0.116 A 
ATOM     35  H   UNL     1      -5.543  -0.371  25.244  0.00  0.00    +0.149 HD
BRANCH  17  16
ATOM     16  C   UNL     1      -1.351   3.418  25.064  0.00  0.00    +0.005 C 
ATOM     22  C   UNL     1      -1.284   4.967  25.225  0.00  0.00    +0.017 C 
ATOM     23  C   UNL     1      -0.494   3.036  23.819  0.00  0.00    +0.017 C 
ATOM     24  C   UNL     1      -0.580   2.836  26.295  0.00  0.00    +0.017 C 
ENDBRANCH  17  16
ENDBRANCH  10   4
BRANCH   9   3
ATOM      3  N   UNL     1       0.442  -0.171  24.120  0.00  0.00    -0.305 NA
ATOM     34  H   UNL     1       1.156  -0.189  24.848  0.00  0.00    +0.123 HD
BRANCH   3  13
ATOM     13  C   UNL     1       1.081  -0.184  22.813  0.00  0.00    +0.116 C 
BRANCH  13  15
ATOM     15  C   UNL     1       2.581  -0.126  22.923  0.00  0.00    -0.034 A 
ATOM     18  C   UNL     1       3.269  -1.199  23.472  0.00  0.00    +0.005 A 
ATOM     19  C   UNL     1       3.256   1.001  22.473  0.00  0.00    +0.005 A 
ATOM     25  C   UNL     1       4.660  -1.144  23.573  0.00  0.00    +0.009 A 
ATOM     26  C   UNL     1       4.646   1.056  22.574  0.00  0.00    +0.009 A 
ATOM     27  C   UNL     1       5.347  -0.017  23.125  0.00  0.00    -0.018 A 
BRANCH  27  28
ATOM     28  C   UNL     1       6.790   0.040  23.229  0.00  0.00    -0.018 A 
ATOM     29  C   UNL     1       7.395   1.049  23.979  0.00  0.00    +0.008 A 
ATOM     30  C   UNL     1       7.575  -0.913  22.580  0.00  0.00    +0.008 A 
ATOM     31  C   UNL     1       8.785   1.103  24.080  0.00  0.00    +0.001 A 
ATOM     32  C   UNL     1       8.965  -0.858  22.681  0.00  0.00    +0.001 A 
ATOM     33  C   UNL     1       9.570   0.150  23.431  0.00  0.00    +0.000 A 
ENDBRANCH  27  28
ENDBRANCH  13  15
ENDBRANCH   3  13
ENDBRANCH   9   3
TORSDOF 6
ENDMDL
MODEL 3
REMARK VINA RESULT:       5.8      2.451      4.894
REMARK  Name = 11912954
REMARK  9 active torsions:
REMARK  status: ('A' for Active; 'I' for Inactive)
REMARK    1  A    between atoms: N_3  and  C_9
REMARK    2  A    between atoms: N_3  and  C_13
REMARK    3  A    between atoms: N_4  and  C_10
REMARK    4  A    between atoms: C_13  and  C_15
REMARK    5  A    between atoms: C_16  and  C_17
REMARK    6  A    between atoms: C_16  and  C_22
REMARK    7  A    between atoms: C_16  and  C_23
REMARK    8  A    between atoms: C_16  and  C_24
REMARK    9  A    between atoms: C_27  and  C_28
REMARK                            x       y       z     vdW  Elec       q    Type
REMARK                         _______ _______ _______ _____ _____    ______ ____
ROOT
ATOM      1  O   UNL     1      -3.571  -1.918  26.174  0.00  0.00    -0.370 OA
ATOM      2  O   UNL     1      -3.274  -3.072  23.313  0.00  0.00    -0.370 OA
ATOM      7  C   UNL     1      -2.332  -2.490  24.231  0.00  0.00    +0.168 C 
ATOM      8  C   UNL     1      -3.047  -1.366  24.954  0.00  0.00    +0.171 C 
ATOM      9  C   UNL     1      -1.988  -3.476  25.326  0.00  0.00    +0.111 C 
ATOM     10  C   UNL     1      -4.177  -0.992  24.025  0.00  0.00    +0.130 C 
ATOM     11  C   UNL     1      -3.145  -3.283  26.294  0.00  0.00    +0.181 C 
ATOM     12  C   UNL     1      -4.489  -2.306  23.333  0.00  0.00    +0.185 C 
ENDROOT
BRANCH  10   4
ATOM      4  N   UNL     1      -3.722  -0.013  23.060  0.00  0.00    -0.306 N 
ATOM      5  N   UNL     1      -4.440   1.787  24.383  0.00  0.00    -0.219 NA
ATOM      6  N   UNL     1      -3.378   2.162  22.252  0.00  0.00    -0.223 NA
ATOM     14  C   UNL     1      -3.851   1.353  23.237  0.00  0.00    +0.216 A 
ATOM     17  C   UNL     1      -4.548   3.124  24.523  0.00  0.00    +0.052 A 
ATOM     20  C   UNL     1      -4.101   4.032  23.584  0.00  0.00    +0.043 A 
ATOM     21  C   UNL     1      -3.519   3.489  22.457  0.00  0.00    +0.116 A 
ATOM     35  H   UNL     1      -3.235  -0.324  22.227  0.00  0.00    +0.149 HD
BRANCH  17  16
ATOM     16  C   UNL     1      -5.192   3.618  25.775  0.00  0.00    +0.005 C 
ATOM     22  C   UNL     1      -6.118   2.531  26.402  0.00  0.00    +0.017 C 
ATOM     23  C   UNL     1      -6.067   4.880  25.499  0.00  0.00    +0.017 C 
ATOM     24  C   UNL     1      -4.207   4.036  26.916  0.00  0.00    +0.017 C 
ENDBRANCH  17  16
ENDBRANCH  10   4
BRANCH   9   3
ATOM      3  N   UNL     1      -0.733  -3.104  25.976  0.00  0.00    -0.305 NA
ATOM     34  H   UNL     1      -0.299  -3.939  26.369  0.00  0.00    +0.123 HD
BRANCH   3  13
ATOM     13  C   UNL     1       0.178  -2.486  25.025  0.00  0.00    +0.116 C 
BRANCH  13  15
ATOM     15  C   UNL     1      -0.033  -0.998  24.932  0.00  0.00    -0.034 A 
ATOM     18  C   UNL     1       0.303  -0.332  23.762  0.00  0.00    +0.005 A 
ATOM     19  C   UNL     1      -0.559  -0.313  26.019  0.00  0.00    +0.005 A 
ATOM     25  C   UNL     1       0.108   1.047  23.676  0.00  0.00    +0.009 A 
ATOM     26  C   UNL     1      -0.754   1.065  25.933  0.00  0.00    +0.009 A 
ATOM     27  C   UNL     1      -0.420   1.745  24.762  0.00  0.00    -0.018 A 
BRANCH  27  28
ATOM     28  C   UNL     1      -0.624   3.175  24.672  0.00  0.00    -0.018 A 
ATOM     29  C   UNL     1      -1.398   3.830  25.631  0.00  0.00    +0.008 A 
ATOM     30  C   UNL     1      -0.046   3.899  23.629  0.00  0.00    +0.008 A 
ATOM     31  C   UNL     1      -1.594   5.208  25.545  0.00  0.00    +0.001 A 
ATOM     32  C   UNL     1      -0.243   5.277  23.544  0.00  0.00    +0.001 A 
ATOM     33  C   UNL     1      -1.017   5.931  24.502  0.00  0.00    +0.000 A 
ENDBRANCH  27  28
ENDBRANCH  13  15
ENDBRANCH   3  13
ENDBRANCH   9   3
TORSDOF 6
ENDMDL
MODEL 4
REMARK VINA RESULT:       6.2      2.186      6.292
REMARK  Name = 11912954
REMARK  9 active torsions:
REMARK  status: ('A' for Active; 'I' for Inactive)
REMARK    1  A    between atoms: N_3  and  C_9
REMARK    2  A    between atoms: N_3  and  C_13
REMARK    3  A    between atoms: N_4  and  C_10
REMARK    4  A    between atoms: C_13  and  C_15
REMARK    5  A    between atoms: C_16  and  C_17
REMARK    6  A    between atoms: C_16  and  C_22
REMARK    7  A    between atoms: C_16  and  C_23
REMARK    8  A    between atoms: C_16  and  C_24
REMARK    9  A    between atoms: C_27  and  C_28
REMARK                            x       y       z     vdW  Elec       q    Type
REMARK                         _______ _______ _______ _____ _____    ______ ____
ROOT
ATOM      1  O   UNL     1      -1.329   5.055  26.163  0.00  0.00    -0.370 OA
ATOM      2  O   UNL     1      -0.623   3.396  23.641  0.00  0.00    -0.370 OA
ATOM      7  C   UNL     1      -1.875   3.747  24.257  0.00  0.00    +0.168 C 
ATOM      8  C   UNL     1      -1.661   3.715  25.757  0.00  0.00    +0.171 C 
ATOM      9  C   UNL     1      -2.218   5.191  23.962  0.00  0.00    +0.111 C 
ATOM     10  C   UNL     1      -0.469   2.806  25.939  0.00  0.00    +0.130 C 
ATOM     11  C   UNL     1      -1.417   5.925  25.025  0.00  0.00    +0.181 C 
ATOM     12  C   UNL     1       0.320   3.031  24.661  0.00  0.00    +0.185 C 
ENDROOT
BRANCH  10   4
ATOM      4  N   UNL     1      -0.904   1.428  26.022  0.00  0.00    -0.306 N 
ATOM      5  N   UNL     1       0.682   0.717  24.445  0.00  0.00    -0.219 NA
ATOM      6  N   UNL     1      -0.838  -0.850  25.464  0.00  0.00    -0.223 NA
ATOM     14  C   UNL     1      -0.336   0.401  25.288  0.00  0.00    +0.216 A 
ATOM     17  C   UNL     1       1.212  -0.307  23.746  0.00  0.00    +0.052 A 
ATOM     20  C   UNL     1       0.776  -1.612  23.850  0.00  0.00    +0.043 A 
ATOM     21  C   UNL     1      -0.263  -1.827  24.733  0.00  0.00    +0.116 A 
ATOM     35  H   UNL     1      -1.626   1.173  26.685  0.00  0.00    +0.149 HD
BRANCH  17  16
ATOM     16  C   UNL     1       2.331   0.022  22.816  0.00  0.00    +0.005 C 
ATOM     22  C   UNL     1       1.949  -0.294  21.337  0.00  0.00    +0.017 C 
ATOM     23  C   UNL     1       3.611  -0.801  23.158  0.00  0.00    +0.017 C 
ATOM     24  C   UNL     1       2.786   1.519  22.818  0.00  0.00    +0.017 C 
ENDBRANCH  17  16
ENDBRANCH  10   4
BRANCH   9   3
ATOM      3  N   UNL     1      -3.645   5.431  24.164  0.00  0.00    -0.305 NA
ATOM     34  H   UNL     1      -3.850   6.412  23.975  0.00  0.00    +0.123 HD
BRANCH   3  13
ATOM     13  C   UNL     1      -4.440   4.591  23.282  0.00  0.00    +0.116 C 
BRANCH  13  15
ATOM     15  C   UNL     1      -4.291   3.130  23.613  0.00  0.00    -0.034 A 
ATOM     18  C   UNL     1      -3.525   2.317  22.790  0.00  0.00    +0.005 A 
ATOM     19  C   UNL     1      -4.922   2.616  24.738  0.00  0.00    +0.005 A 
ATOM     25  C   UNL     1      -3.387   0.963  23.097  0.00  0.00    +0.009 A 
ATOM     26  C   UNL     1      -4.784   1.263  25.045  0.00  0.00    +0.009 A 
ATOM     27  C   UNL     1      -4.017   0.437  24.224  0.00  0.00    -0.018 A 
BRANCH  27  28
ATOM     28  C   UNL     1      -3.873  -0.968  24.544  0.00  0.00    -0.018 A 
ATOM     29  C   UNL     1      -4.097  -1.932  23.560  0.00  0.00    +0.008 A 
ATOM     30  C   UNL     1      -3.512  -1.357  25.833  0.00  0.00    +0.008 A 
ATOM     31  C   UNL     1      -3.958  -3.285  23.867  0.00  0.00    +0.001 A 
ATOM     32  C   UNL     1      -3.374  -2.711  26.140  0.00  0.00    +0.001 A 
ATOM     33  C   UNL     1      -3.597  -3.675  25.157  0.00  0.00    +0.000 A 
ENDBRANCH  27  28
ENDBRANCH  13  15
ENDBRANCH   3  13
ENDBRANCH   9   3
TORSDOF 6
ENDMDL
