MODEL 1
REMARK VINA RESULT:      -6.0      0.000      0.000
REMARK  Name = 75367815
REMARK  6 active torsions:
REMARK  status: ('A' for Active; 'I' for Inactive)
REMARK    1  A    between atoms: O_2  and  C_7
REMARK    2  A    between atoms: O_2  and  C_13
REMARK    3  A    between atoms: N_6  and  C_16
REMARK    4  A    between atoms: N_6  and  C_17
REMARK    5  A    between atoms: C_12  and  C_14
REMARK    6  A    between atoms: C_13  and  C_15
REMARK                            x       y       z     vdW  Elec       q    Type
REMARK                         _______ _______ _______ _____ _____    ______ ____
ROOT
ATOM      1  O   UNL     1      -0.588   4.396  25.004  0.00  0.00    -0.376 OA
ATOM      3  O   UNL     1      -5.467   4.200  25.513  0.00  0.00    -0.276 OA
ATOM      5  N   UNL     1      -3.404   3.117  25.613  0.00  0.00    -0.297 N 
ATOM      7  C   UNL     1      -1.094   2.038  25.393  0.00  0.00    +0.162 C 
ATOM      8  C   UNL     1      -2.620   1.899  25.388  0.00  0.00    +0.141 C 
ATOM      9  C   UNL     1      -0.588   3.098  24.419  0.00  0.00    +0.193 C 
ATOM     10  C   UNL     1      -2.732   4.291  26.175  0.00  0.00    +0.136 C 
ATOM     11  C   UNL     1      -1.874   4.991  25.130  0.00  0.00    +0.179 C 
ATOM     12  C   UNL     1      -4.775   3.197  25.325  0.00  0.00    +0.213 C 
ATOM     14  C   UNL     1      -5.411   1.959  24.739  0.00  0.00    +0.109 C 
ENDROOT
BRANCH   7   2
ATOM      2  O   UNL     1      -0.541   0.782  24.997  0.00  0.00    -0.364 OA
BRANCH   2  13
ATOM     13  C   UNL     1      -1.414   0.089  24.120  0.00  0.00    +0.256 C 
BRANCH  13  15
ATOM      4  O   UNL     1      -0.777  -1.895  25.248  0.00  0.00    -0.273 OA
ATOM      6  N   UNL     1      -2.965  -1.823  24.475  0.00  0.00    -0.306 N 
ATOM     15  C   UNL     1      -1.686  -1.298  24.663  0.00  0.00    +0.241 C 
ATOM     16  C   UNL     1      -3.278  -3.151  24.988  0.00  0.00    +0.131 C 
ATOM     17  C   UNL     1      -4.070  -1.143  23.803  0.00  0.00    +0.131 C 
ENDBRANCH  13  15
ENDBRANCH   2  13
ENDBRANCH   7   2
TORSDOF 3
ENDMDL
MODEL 2
REMARK VINA RESULT:      -5.5      1.668      3.368
REMARK  Name = 75367815
REMARK  6 active torsions:
REMARK  status: ('A' for Active; 'I' for Inactive)
REMARK    1  A    between atoms: O_2  and  C_7
REMARK    2  A    between atoms: O_2  and  C_13
REMARK    3  A    between atoms: N_6  and  C_16
REMARK    4  A    between atoms: N_6  and  C_17
REMARK    5  A    between atoms: C_12  and  C_14
REMARK    6  A    between atoms: C_13  and  C_15
REMARK                            x       y       z     vdW  Elec       q    Type
REMARK                         _______ _______ _______ _____ _____    ______ ____
ROOT
ATOM      1  O   UNL     1      -5.691   2.621  25.298  0.00  0.00    -0.376 OA
ATOM      3  O   UNL     1      -1.554   5.263  25.344  0.00  0.00    -0.276 OA
ATOM      5  N   UNL     1      -2.744   3.433  24.526  0.00  0.00    -0.297 N 
ATOM      7  C   UNL     1      -4.099   1.336  23.963  0.00  0.00    +0.162 C 
ATOM      8  C   UNL     1      -2.740   2.033  24.089  0.00  0.00    +0.141 C 
ATOM      9  C   UNL     1      -4.933   1.418  25.239  0.00  0.00    +0.193 C 
ATOM     10  C   UNL     1      -4.002   4.182  24.469  0.00  0.00    +0.136 C 
ATOM     11  C   UNL     1      -4.935   3.786  25.605  0.00  0.00    +0.179 C 
ATOM     12  C   UNL     1      -1.589   4.085  24.982  0.00  0.00    +0.213 C 
ATOM     14  C   UNL     1      -0.325   3.259  25.027  0.00  0.00    +0.109 C 
ENDROOT
BRANCH   7   2
ATOM      2  O   UNL     1      -3.856  -0.045  23.689  0.00  0.00    -0.364 OA
BRANCH   2  13
ATOM     13  C   UNL     1      -3.768  -0.799  24.888  0.00  0.00    +0.256 C 
BRANCH  13  15
ATOM      4  O   UNL     1      -2.779  -2.865  24.280  0.00  0.00    -0.273 OA
ATOM      6  N   UNL     1      -1.376  -1.330  25.313  0.00  0.00    -0.306 N 
ATOM     15  C   UNL     1      -2.601  -1.759  24.801  0.00  0.00    +0.241 C 
ATOM     16  C   UNL     1      -0.220  -2.215  25.245  0.00  0.00    +0.131 C 
ATOM     17  C   UNL     1      -1.122  -0.026  25.922  0.00  0.00    +0.131 C 
ENDBRANCH  13  15
ENDBRANCH   2  13
ENDBRANCH   7   2
TORSDOF 3
ENDMDL
MODEL 3
REMARK VINA RESULT:      -4.7      2.058      5.791
REMARK  Name = 75367815
REMARK  6 active torsions:
REMARK  status: ('A' for Active; 'I' for Inactive)
REMARK    1  A    between atoms: O_2  and  C_7
REMARK    2  A    between atoms: O_2  and  C_13
REMARK    3  A    between atoms: N_6  and  C_16
REMARK    4  A    between atoms: N_6  and  C_17
REMARK    5  A    between atoms: C_12  and  C_14
REMARK    6  A    between atoms: C_13  and  C_15
REMARK                            x       y       z     vdW  Elec       q    Type
REMARK                         _______ _______ _______ _____ _____    ______ ____
ROOT
ATOM      1  O   UNL     1      -3.464  -2.850  24.309  0.00  0.00    -0.376 OA
ATOM      3  O   UNL     1       0.880  -0.642  23.710  0.00  0.00    -0.276 OA
ATOM      5  N   UNL     1      -1.209  -0.689  24.744  0.00  0.00    -0.297 N 
ATOM      7  C   UNL     1      -3.636  -0.755  25.553  0.00  0.00    +0.162 C 
ATOM      8  C   UNL     1      -2.367   0.050  25.257  0.00  0.00    +0.141 C 
ATOM      9  C   UNL     1      -4.110  -1.583  24.362  0.00  0.00    +0.193 C 
ATOM     10  C   UNL     1      -1.192  -2.147  24.880  0.00  0.00    +0.136 C 
ATOM     11  C   UNL     1      -2.113  -2.809  23.863  0.00  0.00    +0.179 C 
ATOM     12  C   UNL     1      -0.114  -0.054  24.141  0.00  0.00    +0.213 C 
ATOM     14  C   UNL     1      -0.192   1.450  24.020  0.00  0.00    +0.109 C 
ENDROOT
BRANCH   7   2
ATOM      2  O   UNL     1      -4.673   0.171  25.880  0.00  0.00    -0.364 OA
BRANCH   2  13
ATOM     13  C   UNL     1      -5.045   0.947  24.752  0.00  0.00    +0.256 C 
BRANCH  13  15
ATOM      4  O   UNL     1      -5.316   2.922  26.032  0.00  0.00    -0.273 OA
ATOM      6  N   UNL     1      -3.970   3.107  24.149  0.00  0.00    -0.306 N 
ATOM     15  C   UNL     1      -4.794   2.412  25.036  0.00  0.00    +0.241 C 
ATOM     16  C   UNL     1      -3.691   4.518  24.385  0.00  0.00    +0.131 C 
ATOM     17  C   UNL     1      -3.322   2.536  22.970  0.00  0.00    +0.131 C 
ENDBRANCH  13  15
ENDBRANCH   2  13
ENDBRANCH   7   2
TORSDOF 3
ENDMDL
MODEL 4
REMARK VINA RESULT:      -4.7      1.803      4.904
REMARK  Name = 75367815
REMARK  6 active torsions:
REMARK  status: ('A' for Active; 'I' for Inactive)
REMARK    1  A    between atoms: O_2  and  C_7
REMARK    2  A    between atoms: O_2  and  C_13
REMARK    3  A    between atoms: N_6  and  C_16
REMARK    4  A    between atoms: N_6  and  C_17
REMARK    5  A    between atoms: C_12  and  C_14
REMARK    6  A    between atoms: C_13  and  C_15
REMARK                            x       y       z     vdW  Elec       q    Type
REMARK                         _______ _______ _______ _____ _____    ______ ____
ROOT
ATOM      1  O   UNL     1      -0.495   0.813  26.094  0.00  0.00    -0.376 OA
ATOM      3  O   UNL     1      -3.122  -3.231  25.176  0.00  0.00    -0.276 OA
ATOM      5  N   UNL     1      -2.253  -1.202  24.424  0.00  0.00    -0.297 N 
ATOM      7  C   UNL     1      -1.458   1.168  23.877  0.00  0.00    +0.162 C 
ATOM      8  C   UNL     1      -2.426   0.009  23.616  0.00  0.00    +0.141 C 
ATOM      9  C   UNL     1      -1.418   1.594  25.342  0.00  0.00    +0.193 C 
ATOM     10  C   UNL     1      -0.995  -1.387  25.151  0.00  0.00    +0.136 C 
ATOM     11  C   UNL     1      -0.937  -0.506  26.392  0.00  0.00    +0.179 C 
ATOM     12  C   UNL     1      -3.238  -2.196  24.516  0.00  0.00    +0.213 C 
ATOM     14  C   UNL     1      -4.517  -1.946  23.753  0.00  0.00    +0.109 C 
ENDROOT
BRANCH   7   2
ATOM      2  O   UNL     1      -1.903   2.288  23.110  0.00  0.00    -0.364 OA
BRANCH   2  13
ATOM     13  C   UNL     1      -3.315   2.286  22.968  0.00  0.00    +0.256 C 
BRANCH  13  15
ATOM      4  O   UNL     1      -3.564   4.454  23.893  0.00  0.00    -0.273 OA
ATOM      6  N   UNL     1      -4.878   2.789  24.837  0.00  0.00    -0.306 N 
ATOM     15  C   UNL     1      -3.925   3.274  23.940  0.00  0.00    +0.241 C 
ATOM     16  C   UNL     1      -5.501   3.703  25.786  0.00  0.00    +0.131 C 
ATOM     17  C   UNL     1      -5.343   1.405  24.913  0.00  0.00    +0.131 C 
ENDBRANCH  13  15
ENDBRANCH   2  13
ENDBRANCH   7   2
TORSDOF 3
ENDMDL
MODEL 5
REMARK VINA RESULT:      -4.4      1.580      4.889
REMARK  Name = 75367815
REMARK  6 active torsions:
REMARK  status: ('A' for Active; 'I' for Inactive)
REMARK    1  A    between atoms: O_2  and  C_7
REMARK    2  A    between atoms: O_2  and  C_13
REMARK    3  A    between atoms: N_6  and  C_16
REMARK    4  A    between atoms: N_6  and  C_17
REMARK    5  A    between atoms: C_12  and  C_14
REMARK    6  A    between atoms: C_13  and  C_15
REMARK                            x       y       z     vdW  Elec       q    Type
REMARK                         _______ _______ _______ _____ _____    ______ ____
ROOT
ATOM      1  O   UNL     1       1.112   1.284  23.682  0.00  0.00    -0.376 OA
ATOM      3  O   UNL     1      -2.099  -2.388  24.229  0.00  0.00    -0.276 OA
ATOM      5  N   UNL     1      -1.615  -0.116  24.419  0.00  0.00    -0.297 N 
ATOM      7  C   UNL     1      -0.807   2.279  24.820  0.00  0.00    +0.162 C 
ATOM      8  C   UNL     1      -1.766   1.136  25.167  0.00  0.00    +0.141 C 
ATOM      9  C   UNL     1       0.662   1.871  24.898  0.00  0.00    +0.193 C 
ATOM     10  C   UNL     1      -0.838  -0.101  23.177  0.00  0.00    +0.136 C 
ATOM     11  C   UNL     1       0.657  -0.045  23.459  0.00  0.00    +0.179 C 
ATOM     12  C   UNL     1      -2.195  -1.322  24.839  0.00  0.00    +0.213 C 
ATOM     14  C   UNL     1      -2.976  -1.277  26.131  0.00  0.00    +0.109 C 
ENDROOT
BRANCH   7   2
ATOM      2  O   UNL     1      -1.019   3.328  25.766  0.00  0.00    -0.364 OA
BRANCH   2  13
ATOM     13  C   UNL     1      -1.951   4.280  25.278  0.00  0.00    +0.256 C 
BRANCH  13  15
ATOM      4  O   UNL     1      -3.499   4.248  27.072  0.00  0.00    -0.273 OA
ATOM      6  N   UNL     1      -4.300   3.502  25.025  0.00  0.00    -0.306 N 
ATOM     15  C   UNL     1      -3.316   4.007  25.875  0.00  0.00    +0.241 C 
ATOM     16  C   UNL     1      -5.633   3.232  25.550  0.00  0.00    +0.131 C 
ATOM     17  C   UNL     1      -4.127   3.220  23.601  0.00  0.00    +0.131 C 
ENDBRANCH  13  15
ENDBRANCH   2  13
ENDBRANCH   7   2
TORSDOF 3
ENDMDL
MODEL 6
REMARK VINA RESULT:      -4.1      1.817      4.673
REMARK  Name = 75367815
REMARK  6 active torsions:
REMARK  status: ('A' for Active; 'I' for Inactive)
REMARK    1  A    between atoms: O_2  and  C_7
REMARK    2  A    between atoms: O_2  and  C_13
REMARK    3  A    between atoms: N_6  and  C_16
REMARK    4  A    between atoms: N_6  and  C_17
REMARK    5  A    between atoms: C_12  and  C_14
REMARK    6  A    between atoms: C_13  and  C_15
REMARK                            x       y       z     vdW  Elec       q    Type
REMARK                         _______ _______ _______ _____ _____    ______ ____
ROOT
ATOM      1  O   UNL     1       0.525   2.893  24.093  0.00  0.00    -0.376 OA
ATOM      3  O   UNL     1      -0.508  -1.810  25.053  0.00  0.00    -0.276 OA
ATOM      5  N   UNL     1      -1.265   0.337  24.548  0.00  0.00    -0.297 N 
ATOM      7  C   UNL     1      -1.910   2.798  24.272  0.00  0.00    +0.162 C 
ATOM      8  C   UNL     1      -2.272   1.385  24.741  0.00  0.00    +0.141 C 
ATOM      9  C   UNL     1      -0.598   3.306  24.864  0.00  0.00    +0.193 C 
ATOM     10  C   UNL     1      -0.155   0.591  23.625  0.00  0.00    +0.136 C 
ATOM     11  C   UNL     1       0.878   1.523  24.244  0.00  0.00    +0.179 C 
ATOM     12  C   UNL     1      -1.329  -0.902  25.201  0.00  0.00    +0.213 C 
ATOM     14  C   UNL     1      -2.490  -1.103  26.147  0.00  0.00    +0.109 C 
ENDROOT
BRANCH   7   2
ATOM      2  O   UNL     1      -2.950   3.678  24.699  0.00  0.00    -0.364 OA
BRANCH   2  13
ATOM     13  C   UNL     1      -4.204   3.295  24.155  0.00  0.00    +0.256 C 
BRANCH  13  15
ATOM      4  O   UNL     1      -5.627   4.216  25.810  0.00  0.00    -0.273 OA
ATOM      6  N   UNL     1      -5.671   1.904  25.603  0.00  0.00    -0.306 N 
ATOM     15  C   UNL     1      -5.227   3.183  25.264  0.00  0.00    +0.241 C 
ATOM     16  C   UNL     1      -6.663   1.745  26.659  0.00  0.00    +0.131 C 
ATOM     17  C   UNL     1      -5.235   0.661  24.971  0.00  0.00    +0.131 C 
ENDBRANCH  13  15
ENDBRANCH   2  13
ENDBRANCH   7   2
TORSDOF 3
ENDMDL
MODEL 7
REMARK VINA RESULT:      -3.7     15.512     17.809
REMARK  Name = 75367815
REMARK  6 active torsions:
REMARK  status: ('A' for Active; 'I' for Inactive)
REMARK    1  A    between atoms: O_2  and  C_7
REMARK    2  A    between atoms: O_2  and  C_13
REMARK    3  A    between atoms: N_6  and  C_16
REMARK    4  A    between atoms: N_6  and  C_17
REMARK    5  A    between atoms: C_12  and  C_14
REMARK    6  A    between atoms: C_13  and  C_15
REMARK                            x       y       z     vdW  Elec       q    Type
REMARK                         _______ _______ _______ _____ _____    ______ ____
ROOT
ATOM      1  O   UNL     1      15.264   7.185  18.175  0.00  0.00    -0.376 OA
ATOM      3  O   UNL     1      11.541   8.664  15.337  0.00  0.00    -0.276 OA
ATOM      5  N   UNL     1      12.731   8.862  17.333  0.00  0.00    -0.297 N 
ATOM      7  C   UNL     1      13.982   8.736  19.561  0.00  0.00    +0.162 C 
ATOM      8  C   UNL     1      12.714   9.094  18.780  0.00  0.00    +0.141 C 
ATOM      9  C   UNL     1      14.440   7.298  19.330  0.00  0.00    +0.193 C 
ATOM     10  C   UNL     1      14.021   8.658  16.670  0.00  0.00    +0.136 C 
ATOM     11  C   UNL     1      14.566   7.261  16.938  0.00  0.00    +0.179 C 
ATOM     12  C   UNL     1      11.563   8.843  16.557  0.00  0.00    +0.213 C 
ATOM     14  C   UNL     1      10.262   9.050  17.296  0.00  0.00    +0.109 C 
ENDROOT
BRANCH   7   2
ATOM      2  O   UNL     1      13.694   8.883  20.952  0.00  0.00    -0.364 OA
BRANCH   2  13
ATOM     13  C   UNL     1      13.245   7.661  21.517  0.00  0.00    +0.256 C 
BRANCH  13  15
ATOM      4  O   UNL     1      11.541   8.912  22.587  0.00  0.00    -0.273 OA
ATOM      6  N   UNL     1      10.964   6.761  21.932  0.00  0.00    -0.306 N 
ATOM     15  C   UNL     1      11.844   7.836  22.062  0.00  0.00    +0.241 C 
ATOM     16  C   UNL     1       9.601   6.884  22.433  0.00  0.00    +0.131 C 
ATOM     17  C   UNL     1      11.280   5.479  21.304  0.00  0.00    +0.131 C 
ENDBRANCH  13  15
ENDBRANCH   2  13
ENDBRANCH   7   2
TORSDOF 3
ENDMDL
MODEL 8
REMARK VINA RESULT:      -3.7      2.315      3.043
REMARK  Name = 75367815
REMARK  6 active torsions:
REMARK  status: ('A' for Active; 'I' for Inactive)
REMARK    1  A    between atoms: O_2  and  C_7
REMARK    2  A    between atoms: O_2  and  C_13
REMARK    3  A    between atoms: N_6  and  C_16
REMARK    4  A    between atoms: N_6  and  C_17
REMARK    5  A    between atoms: C_12  and  C_14
REMARK    6  A    between atoms: C_13  and  C_15
REMARK                            x       y       z     vdW  Elec       q    Type
REMARK                         _______ _______ _______ _____ _____    ______ ____
ROOT
ATOM      1  O   UNL     1      -0.797   4.757  25.114  0.00  0.00    -0.376 OA
ATOM      3  O   UNL     1      -5.643   4.040  25.428  0.00  0.00    -0.276 OA
ATOM      5  N   UNL     1      -3.481   3.206  25.688  0.00  0.00    -0.297 N 
ATOM      7  C   UNL     1      -1.058   2.386  25.639  0.00  0.00    +0.162 C 
ATOM      8  C   UNL     1      -2.557   2.074  25.578  0.00  0.00    +0.141 C 
ATOM      9  C   UNL     1      -0.624   3.435  24.619  0.00  0.00    +0.193 C 
ATOM     10  C   UNL     1      -2.971   4.482  26.198  0.00  0.00    +0.136 C 
ATOM     11  C   UNL     1      -2.145   5.209  25.145  0.00  0.00    +0.179 C 
ATOM     12  C   UNL     1      -4.836   3.113  25.337  0.00  0.00    +0.213 C 
ATOM     14  C   UNL     1      -5.301   1.776  24.808  0.00  0.00    +0.109 C 
ENDROOT
BRANCH   7   2
ATOM      2  O   UNL     1      -0.350   1.179  25.352  0.00  0.00    -0.364 OA
BRANCH   2  13
ATOM     13  C   UNL     1       0.725   1.414  24.455  0.00  0.00    +0.256 C 
BRANCH  13  15
ATOM      4  O   UNL     1      -0.445  -0.089  23.046  0.00  0.00    -0.273 OA
ATOM      6  N   UNL     1       1.802   0.224  22.556  0.00  0.00    -0.306 N 
ATOM     15  C   UNL     1       0.639   0.448  23.293  0.00  0.00    +0.241 C 
ATOM     16  C   UNL     1       1.768  -0.691  21.421  0.00  0.00    +0.131 C 
ATOM     17  C   UNL     1       3.098   0.852  22.806  0.00  0.00    +0.131 C 
ENDBRANCH  13  15
ENDBRANCH   2  13
ENDBRANCH   7   2
TORSDOF 3
ENDMDL
MODEL 9
REMARK VINA RESULT:      -3.5      2.208      3.127
REMARK  Name = 75367815
REMARK  6 active torsions:
REMARK  status: ('A' for Active; 'I' for Inactive)
REMARK    1  A    between atoms: O_2  and  C_7
REMARK    2  A    between atoms: O_2  and  C_13
REMARK    3  A    between atoms: N_6  and  C_16
REMARK    4  A    between atoms: N_6  and  C_17
REMARK    5  A    between atoms: C_12  and  C_14
REMARK    6  A    between atoms: C_13  and  C_15
REMARK                            x       y       z     vdW  Elec       q    Type
REMARK                         _______ _______ _______ _____ _____    ______ ____
ROOT
ATOM      1  O   UNL     1      -2.828   2.257  22.511  0.00  0.00    -0.376 OA
ATOM      3  O   UNL     1      -6.082   4.129  25.674  0.00  0.00    -0.276 OA
ATOM      5  N   UNL     1      -4.436   2.544  25.207  0.00  0.00    -0.297 N 
ATOM      7  C   UNL     1      -2.823   0.724  24.413  0.00  0.00    +0.162 C 
ATOM      8  C   UNL     1      -3.947   1.170  25.353  0.00  0.00    +0.141 C 
ATOM      9  C   UNL     1      -3.155   0.940  22.939  0.00  0.00    +0.193 C 
ATOM     10  C   UNL     1      -3.620   3.504  24.460  0.00  0.00    +0.136 C 
ATOM     11  C   UNL     1      -3.723   3.268  22.959  0.00  0.00    +0.179 C 
ATOM     12  C   UNL     1      -5.647   2.979  25.767  0.00  0.00    +0.213 C 
ATOM     14  C   UNL     1      -6.449   1.943  26.518  0.00  0.00    +0.109 C 
ENDROOT
BRANCH   7   2
ATOM      2  O   UNL     1      -2.618  -0.675  24.613  0.00  0.00    -0.364 OA
BRANCH   2  13
ATOM     13  C   UNL     1      -1.327  -0.935  25.144  0.00  0.00    +0.256 C 
BRANCH  13  15
ATOM      4  O   UNL     1       0.178  -0.774  23.321  0.00  0.00    -0.273 OA
ATOM      6  N   UNL     1       0.096   1.064  24.737  0.00  0.00    -0.306 N 
ATOM     15  C   UNL     1      -0.283  -0.212  24.320  0.00  0.00    +0.241 C 
ATOM     16  C   UNL     1       1.091   1.804  23.972  0.00  0.00    +0.131 C 
ATOM     17  C   UNL     1      -0.437   1.767  25.902  0.00  0.00    +0.131 C 
ENDBRANCH  13  15
ENDBRANCH   2  13
ENDBRANCH   7   2
TORSDOF 3
ENDMDL
MODEL 10
REMARK VINA RESULT:      -3.0      1.707      2.850
REMARK  Name = 75367815
REMARK  6 active torsions:
REMARK  status: ('A' for Active; 'I' for Inactive)
REMARK    1  A    between atoms: O_2  and  C_7
REMARK    2  A    between atoms: O_2  and  C_13
REMARK    3  A    between atoms: N_6  and  C_16
REMARK    4  A    between atoms: N_6  and  C_17
REMARK    5  A    between atoms: C_12  and  C_14
REMARK    6  A    between atoms: C_13  and  C_15
REMARK                            x       y       z     vdW  Elec       q    Type
REMARK                         _______ _______ _______ _____ _____    ______ ____
ROOT
ATOM      1  O   UNL     1       0.693   1.013  23.860  0.00  0.00    -0.376 OA
ATOM      3  O   UNL     1      -1.607   5.115  25.267  0.00  0.00    -0.276 OA
ATOM      5  N   UNL     1      -1.269   2.824  25.536  0.00  0.00    -0.297 N 
ATOM      7  C   UNL     1      -0.974   0.283  25.489  0.00  0.00    +0.162 C 
ATOM      8  C   UNL     1      -1.833   1.504  25.831  0.00  0.00    +0.141 C 
ATOM      9  C   UNL     1      -0.507   0.269  24.036  0.00  0.00    +0.193 C 
ATOM     10  C   UNL     1       0.170   2.932  25.282  0.00  0.00    +0.136 C 
ATOM     11  C   UNL     1       0.527   2.426  23.891  0.00  0.00    +0.179 C 
ATOM     12  C   UNL     1      -2.050   3.989  25.500  0.00  0.00    +0.213 C 
ATOM     14  C   UNL     1      -3.528   3.814  25.759  0.00  0.00    +0.109 C 
ENDROOT
BRANCH   7   2
ATOM      2  O   UNL     1      -1.769  -0.884  25.703  0.00  0.00    -0.364 OA
BRANCH   2  13
ATOM     13  C   UNL     1      -3.124  -0.544  25.952  0.00  0.00    +0.256 C 
BRANCH  13  15
ATOM      4  O   UNL     1      -4.630  -0.011  24.202  0.00  0.00    -0.273 OA
ATOM      6  N   UNL     1      -3.943  -2.226  24.313  0.00  0.00    -0.306 N 
ATOM     15  C   UNL     1      -3.969  -0.900  24.747  0.00  0.00    +0.241 C 
ATOM     16  C   UNL     1      -4.733  -2.617  23.152  0.00  0.00    +0.131 C 
ATOM     17  C   UNL     1      -3.162  -3.301  24.921  0.00  0.00    +0.131 C 
ENDBRANCH  13  15
ENDBRANCH   2  13
ENDBRANCH   7   2
TORSDOF 3
ENDMDL
