MODEL 1
REMARK VINA RESULT:      -3.6      0.000      0.000
REMARK  Name = 28962594
REMARK  5 active torsions:
REMARK  status: ('A' for Active; 'I' for Inactive)
REMARK    1  A    between atoms: N_4  and  C_13
REMARK    2  A    between atoms: C_6  and  C_16
REMARK    3  A    between atoms: C_9  and  C_17
REMARK    4  A    between atoms: C_15  and  C_19
REMARK    5  A    between atoms: C_20  and  C_21
REMARK                            x       y       z     vdW  Elec       q    Type
REMARK                         _______ _______ _______ _____ _____    ______ ____
ROOT
ATOM      1  O   UNL     1      -3.085   3.075  25.071  0.00  0.00    -0.461 OA
ATOM      2  O   UNL     1      -4.297   5.000  25.416  0.00  0.00    -0.251 OA
ATOM      5  C   UNL     1      -2.515   0.677  24.524  0.00  0.00    +0.041 C 
ATOM      6  C   UNL     1      -3.027  -0.775  24.853  0.00  0.00    -0.025 C 
ATOM      7  C   UNL     1      -3.325   1.694  25.348  0.00  0.00    +0.184 C 
ATOM      8  C   UNL     1      -4.801   1.574  25.015  0.00  0.00    +0.044 C 
ATOM      9  C   UNL     1      -0.963   0.784  24.642  0.00  0.00    +0.013 C 
ATOM     10  C   UNL     1      -4.571  -0.869  24.656  0.00  0.00    +0.007 C 
ATOM     11  C   UNL     1      -2.346  -1.762  23.877  0.00  0.00    +0.009 C 
ATOM     12  C   UNL     1      -5.360   0.219  25.400  0.00  0.00    +0.008 C 
ATOM     13  C   UNL     1      -0.289  -0.273  23.723  0.00  0.00    +0.076 C 
ATOM     14  C   UNL     1      -0.825  -1.692  23.930  0.00  0.00    +0.023 C 
ATOM     15  C   UNL     1      -5.347   2.809  25.705  0.00  0.00    +0.101 C 
ATOM     16  C   UNL     1      -2.711  -1.206  26.310  0.00  0.00    +0.011 C 
ATOM     17  C   UNL     1      -0.438   2.186  24.295  0.00  0.00    +0.010 C 
ATOM     18  C   UNL     1      -4.225   3.781  25.390  0.00  0.00    +0.311 C 
ATOM     19  C   UNL     1      -6.685   3.263  25.154  0.00  0.00    +0.019 C 
ENDROOT
BRANCH  13   4
ATOM      3  O   UNL     1       1.690  -0.190  21.644  0.00  0.00    -0.270 OA
ATOM      4  N   UNL     1       1.148  -0.289  23.896  0.00  0.00    -0.308 N 
ATOM     20  C   UNL     1       2.024  -0.246  22.824  0.00  0.00    +0.244 C 
ATOM     27  H   UNL     1       1.494  -0.450  24.836  0.00  0.00    +0.149 HD
BRANCH  20  21
ATOM     21  C   UNL     1       3.468  -0.298  23.168  0.00  0.00    +0.037 A 
ATOM     22  C   UNL     1       4.270   0.829  22.985  0.00  0.00    +0.013 A 
ATOM     23  C   UNL     1       4.022  -1.472  23.677  0.00  0.00    +0.013 A 
ATOM     24  C   UNL     1       5.625   0.781  23.308  0.00  0.00    +0.001 A 
ATOM     25  C   UNL     1       5.378  -1.521  24.001  0.00  0.00    +0.001 A 
ATOM     26  C   UNL     1       6.180  -0.394  23.817  0.00  0.00    +0.000 A 
ENDBRANCH  20  21
ENDBRANCH  13   4
TORSDOF 2
ENDMDL
