MODEL 1
REMARK VINA RESULT:       3.1      0.000      0.000
REMARK  Name = 7674736
REMARK  7 active torsions:
REMARK  status: ('A' for Active; 'I' for Inactive)
REMARK    1  A    between atoms: S_1  and  N_9
REMARK    2  A    between atoms: S_1  and  C_20
REMARK    3  A    between atoms: O_8  and  C_30
REMARK    4  A    between atoms: O_8  and  C_31
REMARK    5  A    between atoms: C_20  and  C_23
REMARK    6  A    between atoms: C_21  and  C_24
REMARK    7  A    between atoms: C_23  and  C_25
REMARK                            x       y       z     vdW  Elec       q    Type
REMARK                         _______ _______ _______ _____ _____    ______ ____
ROOT
ATOM      7  O   UNL     1       0.023   2.411  25.725  0.00  0.00    -0.267 OA
ATOM      9  N   UNL     1      -4.943   2.482  25.295  0.00  0.00    -0.180 NA
ATOM     10  N   UNL     1      -1.919   3.159  24.674  0.00  0.00    -0.311 N 
ATOM     11  C   UNL     1      -3.690   4.559  25.884  0.00  0.00    +0.025 C 
ATOM     12  C   UNL     1      -4.012   3.959  23.525  0.00  0.00    +0.052 C 
ATOM     13  C   UNL     1      -3.979   5.131  24.502  0.00  0.00    +0.017 C 
ATOM     14  C   UNL     1      -4.791   3.571  26.301  0.00  0.00    +0.114 C 
ATOM     15  C   UNL     1      -5.154   3.000  23.910  0.00  0.00    +0.118 C 
ATOM     16  C   UNL     1      -2.298   3.917  25.875  0.00  0.00    +0.130 C 
ATOM     17  C   UNL     1      -2.686   3.223  23.509  0.00  0.00    +0.026 A 
ATOM     18  C   UNL     1      -2.261   2.617  22.388  0.00  0.00    +0.022 A 
ATOM     19  C   UNL     1      -0.697   2.460  24.727  0.00  0.00    +0.259 A 
ATOM     21  C   UNL     1      -0.264   1.760  23.467  0.00  0.00    +0.047 A 
ATOM     22  C   UNL     1      -1.034   1.871  22.373  0.00  0.00    +0.015 A 
ENDROOT
BRANCH  21  24
ATOM     24  C   UNL     1       0.973   0.962  23.423  0.00  0.00    -0.012 A 
ATOM     26  C   UNL     1       0.937  -0.400  23.719  0.00  0.00    +0.012 A 
ATOM     27  C   UNL     1       2.184   1.570  23.086  0.00  0.00    +0.012 A 
ATOM     28  C   UNL     1       2.109  -1.155  23.678  0.00  0.00    +0.046 A 
ATOM     29  C   UNL     1       3.356   0.815  23.045  0.00  0.00    +0.046 A 
ATOM     30  C   UNL     1       3.319  -0.547  23.340  0.00  0.00    +0.130 A 
BRANCH  30   8
ATOM      8  O   UNL     1       4.462  -1.284  23.300  0.00  0.00    -0.406 OA
BRANCH   8  31
ATOM      2  F   UNL     1       6.291  -1.645  24.625  0.00  0.00    -0.133 F 
ATOM      3  F   UNL     1       5.291   0.297  24.681  0.00  0.00    -0.133 F 
ATOM      4  F   UNL     1       6.466  -0.249  22.921  0.00  0.00    -0.133 F 
ATOM     31  C   UNL     1       5.641  -0.731  23.875  0.00  0.00    +0.575 C 
ENDBRANCH   8  31
ENDBRANCH  30   8
ENDBRANCH  21  24
BRANCH   9   1
ATOM      1  S   UNL     1      -5.951   1.180  25.760  0.00  0.00    +0.032 S 
ATOM      5  O   UNL     1      -6.890   0.913  24.692  0.00  0.00    -0.158 OA
ATOM      6  O   UNL     1      -6.390   1.393  27.122  0.00  0.00    -0.158 OA
BRANCH   1  20
ATOM     20  C   UNL     1      -4.747  -0.123  25.770  0.00  0.00    +0.185 C 
BRANCH  20  23
ATOM     23  C   UNL     1      -4.088  -0.279  24.409  0.00  0.00    +0.021 C 
ATOM     25  C   UNL     1      -4.164  -1.713  23.915  0.00  0.00    +0.005 C 
ENDBRANCH  20  23
ENDBRANCH   1  20
ENDBRANCH   9   1
TORSDOF 6
ENDMDL
MODEL 2
REMARK VINA RESULT:       4.6      1.933      3.278
REMARK  Name = 7674736
REMARK  7 active torsions:
REMARK  status: ('A' for Active; 'I' for Inactive)
REMARK    1  A    between atoms: S_1  and  N_9
REMARK    2  A    between atoms: S_1  and  C_20
REMARK    3  A    between atoms: O_8  and  C_30
REMARK    4  A    between atoms: O_8  and  C_31
REMARK    5  A    between atoms: C_20  and  C_23
REMARK    6  A    between atoms: C_21  and  C_24
REMARK    7  A    between atoms: C_23  and  C_25
REMARK                            x       y       z     vdW  Elec       q    Type
REMARK                         _______ _______ _______ _____ _____    ______ ____
ROOT
ATOM      7  O   UNL     1      -1.063   1.391  22.167  0.00  0.00    -0.267 OA
ATOM      9  N   UNL     1      -4.378   2.816  25.607  0.00  0.00    -0.180 NA
ATOM     10  N   UNL     1      -2.675   0.884  23.774  0.00  0.00    -0.311 N 
ATOM     11  C   UNL     1      -5.121   1.611  23.550  0.00  0.00    +0.025 C 
ATOM     12  C   UNL     1      -4.405   0.331  25.519  0.00  0.00    +0.052 C 
ATOM     13  C   UNL     1      -5.419   0.369  24.379  0.00  0.00    +0.017 C 
ATOM     14  C   UNL     1      -5.260   2.880  24.407  0.00  0.00    +0.114 C 
ATOM     15  C   UNL     1      -4.585   1.573  26.410  0.00  0.00    +0.118 C 
ATOM     16  C   UNL     1      -3.725   1.473  22.930  0.00  0.00    +0.130 C 
ATOM     17  C   UNL     1      -2.987   0.264  24.986  0.00  0.00    +0.026 A 
ATOM     18  C   UNL     1      -2.029  -0.368  25.684  0.00  0.00    +0.022 A 
ATOM     19  C   UNL     1      -1.368   0.885  23.248  0.00  0.00    +0.259 A 
ATOM     21  C   UNL     1      -0.309   0.201  24.071  0.00  0.00    +0.047 A 
ATOM     22  C   UNL     1      -0.671  -0.393  25.219  0.00  0.00    +0.015 A 
ENDROOT
BRANCH  21  24
ATOM     24  C   UNL     1       1.099   0.181  23.639  0.00  0.00    -0.012 A 
ATOM     26  C   UNL     1       1.760  -1.035  23.463  0.00  0.00    +0.012 A 
ATOM     27  C   UNL     1       1.774   1.380  23.406  0.00  0.00    +0.012 A 
ATOM     28  C   UNL     1       3.093  -1.053  23.055  0.00  0.00    +0.046 A 
ATOM     29  C   UNL     1       3.107   1.363  22.998  0.00  0.00    +0.046 A 
ATOM     30  C   UNL     1       3.767   0.147  22.822  0.00  0.00    +0.130 A 
BRANCH  30   8
ATOM      8  O   UNL     1       5.068   0.129  22.424  0.00  0.00    -0.406 OA
BRANCH   8  31
ATOM      2  F   UNL     1       5.762  -0.990  24.293  0.00  0.00    -0.133 F 
ATOM      3  F   UNL     1       6.169   1.149  24.110  0.00  0.00    -0.133 F 
ATOM      4  F   UNL     1       7.279  -0.260  22.862  0.00  0.00    -0.133 F 
ATOM     31  C   UNL     1       6.075  -0.010  23.420  0.00  0.00    +0.575 C 
ENDBRANCH   8  31
ENDBRANCH  30   8
ENDBRANCH  21  24
BRANCH   9   1
ATOM      1  S   UNL     1      -4.245   4.265  26.506  0.00  0.00    +0.032 S 
ATOM      5  O   UNL     1      -3.971   3.933  27.888  0.00  0.00    -0.158 OA
ATOM      6  O   UNL     1      -5.333   5.145  26.138  0.00  0.00    -0.158 OA
BRANCH   1  20
ATOM     20  C   UNL     1      -2.754   4.907  25.791  0.00  0.00    +0.185 C 
BRANCH  20  23
ATOM     23  C   UNL     1      -1.693   3.828  25.657  0.00  0.00    +0.021 C 
ATOM     25  C   UNL     1      -0.603   4.237  24.682  0.00  0.00    +0.005 C 
ENDBRANCH  20  23
ENDBRANCH   1  20
ENDBRANCH   9   1
TORSDOF 6
ENDMDL
