MODEL 1
REMARK VINA RESULT:      -1.9      0.000      0.000
REMARK  Name = 51137041
REMARK  4 active torsions:
REMARK  status: ('A' for Active; 'I' for Inactive)
REMARK    1  A    between atoms: N_4  and  C_13
REMARK    2  A    between atoms: C_8  and  C_12
REMARK    3  A    between atoms: C_13  and  C_14
REMARK    4  A    between atoms: C_22  and  C_25
REMARK                            x       y       z     vdW  Elec       q    Type
REMARK                         _______ _______ _______ _____ _____    ______ ____
ROOT
ATOM      4  N   UNL     1      -2.945  -0.806  24.640  0.00  0.00    -0.297 NA
ATOM      8  C   UNL     1      -0.809  -1.389  23.868  0.00  0.00    +0.070 C 
ATOM      9  C   UNL     1      -1.040  -2.005  25.259  0.00  0.00    +0.028 C 
ATOM     10  C   UNL     1      -1.906  -0.325  23.728  0.00  0.00    +0.096 C 
ATOM     11  C   UNL     1      -2.226  -1.243  25.836  0.00  0.00    +0.085 C 
ENDROOT
BRANCH   8  12
ATOM      5  N   UNL     1       1.693  -1.590  23.899  0.00  0.00    -0.340 N 
ATOM      6  N   UNL     1       0.886   0.361  23.193  0.00  0.00    -0.213 NA
ATOM      7  N   UNL     1       3.024   1.427  22.762  0.00  0.00    -0.234 NA
ATOM     12  C   UNL     1       0.580  -0.837  23.640  0.00  0.00    +0.114 A 
ATOM     15  C   UNL     1       2.788  -0.827  23.597  0.00  0.00    +0.085 A 
ATOM     16  C   UNL     1       2.257   0.382  23.161  0.00  0.00    +0.178 A 
ATOM     19  C   UNL     1       4.159  -1.051  23.656  0.00  0.00    +0.031 A 
ATOM     23  C   UNL     1       4.959   0.014  23.249  0.00  0.00    +0.022 A 
ATOM     24  C   UNL     1       4.355   1.194  22.825  0.00  0.00    +0.113 A 
ATOM     26  H   UNL     1       1.706  -2.540  24.248  0.00  0.00    +0.167 HD
ENDBRANCH   8  12
BRANCH   4  13
ATOM     13  C   UNL     1      -3.942   0.213  24.934  0.00  0.00    +0.119 C 
BRANCH  13  14
ATOM     14  C   UNL     1      -3.350   1.597  24.920  0.00  0.00    -0.033 A 
ATOM     17  C   UNL     1      -2.102   1.825  25.499  0.00  0.00    +0.005 A 
ATOM     18  C   UNL     1      -4.049   2.650  24.330  0.00  0.00    +0.005 A 
ATOM     20  C   UNL     1      -1.552   3.108  25.486  0.00  0.00    +0.012 A 
ATOM     21  C   UNL     1      -3.500   3.931  24.318  0.00  0.00    +0.012 A 
ATOM     22  C   UNL     1      -2.251   4.161  24.897  0.00  0.00    +0.055 A 
BRANCH  22  25
ATOM      1  F   UNL     1      -0.295   5.539  24.881  0.00  0.00    -0.166 F 
ATOM      2  F   UNL     1      -2.032   6.275  25.962  0.00  0.00    -0.166 F 
ATOM      3  F   UNL     1      -2.020   6.268  23.788  0.00  0.00    -0.166 F 
ATOM     25  C   UNL     1      -1.661   5.530  24.881  0.00  0.00    +0.417 C 
ENDBRANCH  22  25
ENDBRANCH  13  14
ENDBRANCH   4  13
TORSDOF 4
ENDMDL
MODEL 2
REMARK VINA RESULT:      -1.6      1.642      2.173
REMARK  Name = 51137041
REMARK  4 active torsions:
REMARK  status: ('A' for Active; 'I' for Inactive)
REMARK    1  A    between atoms: N_4  and  C_13
REMARK    2  A    between atoms: C_8  and  C_12
REMARK    3  A    between atoms: C_13  and  C_14
REMARK    4  A    between atoms: C_22  and  C_25
REMARK                            x       y       z     vdW  Elec       q    Type
REMARK                         _______ _______ _______ _____ _____    ______ ____
ROOT
ATOM      4  N   UNL     1      -2.673  -1.859  24.530  0.00  0.00    -0.297 NA
ATOM      8  C   UNL     1      -0.332  -1.991  24.534  0.00  0.00    +0.070 C 
ATOM      9  C   UNL     1      -0.826  -1.568  25.929  0.00  0.00    +0.028 C 
ATOM     10  C   UNL     1      -1.537  -1.768  23.611  0.00  0.00    +0.096 C 
ATOM     11  C   UNL     1      -2.262  -1.106  25.714  0.00  0.00    +0.085 C 
ENDROOT
BRANCH   8  12
ATOM      5  N   UNL     1       2.159  -1.797  24.297  0.00  0.00    -0.340 N 
ATOM      6  N   UNL     1       0.968  -0.144  23.399  0.00  0.00    -0.213 NA
ATOM      7  N   UNL     1       2.842   1.149  22.556  0.00  0.00    -0.234 NA
ATOM     12  C   UNL     1       0.914  -1.280  24.060  0.00  0.00    +0.114 A 
ATOM     15  C   UNL     1       3.075  -0.937  23.753  0.00  0.00    +0.085 A 
ATOM     16  C   UNL     1       2.306   0.083  23.201  0.00  0.00    +0.178 A 
ATOM     19  C   UNL     1       4.463  -0.933  23.682  0.00  0.00    +0.031 A 
ATOM     23  C   UNL     1       5.028   0.156  23.023  0.00  0.00    +0.022 A 
ATOM     24  C   UNL     1       4.194   1.137  22.496  0.00  0.00    +0.113 A 
ATOM     26  H   UNL     1       2.368  -2.658  24.786  0.00  0.00    +0.167 HD
ENDBRANCH   8  12
BRANCH   4  13
ATOM     13  C   UNL     1      -3.903  -1.345  23.945  0.00  0.00    +0.119 C 
BRANCH  13  14
ATOM     14  C   UNL     1      -4.100   0.117  24.249  0.00  0.00    -0.033 A 
ATOM     17  C   UNL     1      -5.075   0.512  25.165  0.00  0.00    +0.005 A 
ATOM     18  C   UNL     1      -3.309   1.075  23.615  0.00  0.00    +0.005 A 
ATOM     20  C   UNL     1      -5.258   1.866  25.447  0.00  0.00    +0.012 A 
ATOM     21  C   UNL     1      -3.492   2.428  23.897  0.00  0.00    +0.012 A 
ATOM     22  C   UNL     1      -4.467   2.824  24.813  0.00  0.00    +0.055 A 
BRANCH  22  25
ATOM      1  F   UNL     1      -5.940   4.588  25.481  0.00  0.00    -0.166 F 
ATOM      2  F   UNL     1      -4.373   5.076  24.055  0.00  0.00    -0.166 F 
ATOM      3  F   UNL     1      -3.879   4.723  26.142  0.00  0.00    -0.166 F 
ATOM     25  C   UNL     1      -4.661   4.271  25.118  0.00  0.00    +0.417 C 
ENDBRANCH  22  25
ENDBRANCH  13  14
ENDBRANCH   4  13
TORSDOF 4
ENDMDL
MODEL 3
REMARK VINA RESULT:      -1.0      3.820      5.241
REMARK  Name = 51137041
REMARK  4 active torsions:
REMARK  status: ('A' for Active; 'I' for Inactive)
REMARK    1  A    between atoms: N_4  and  C_13
REMARK    2  A    between atoms: C_8  and  C_12
REMARK    3  A    between atoms: C_13  and  C_14
REMARK    4  A    between atoms: C_22  and  C_25
REMARK                            x       y       z     vdW  Elec       q    Type
REMARK                         _______ _______ _______ _____ _____    ______ ____
ROOT
ATOM      4  N   UNL     1      -3.132   3.062  25.532  0.00  0.00    -0.297 NA
ATOM      8  C   UNL     1      -0.838   3.075  25.050  0.00  0.00    +0.070 C 
ATOM      9  C   UNL     1      -1.543   4.165  24.224  0.00  0.00    +0.028 C 
ATOM     10  C   UNL     1      -1.972   2.170  25.548  0.00  0.00    +0.096 C 
ATOM     11  C   UNL     1      -3.022   3.803  24.276  0.00  0.00    +0.085 C 
ENDROOT
BRANCH   8  12
ATOM      5  N   UNL     1      -0.030   1.132  23.681  0.00  0.00    -0.340 N 
ATOM      6  N   UNL     1       1.501   2.668  24.183  0.00  0.00    -0.213 NA
ATOM      7  N   UNL     1       3.369   1.605  23.053  0.00  0.00    -0.234 NA
ATOM     12  C   UNL     1       0.241   2.316  24.311  0.00  0.00    +0.114 A 
ATOM     15  C   UNL     1       1.133   0.693  23.108  0.00  0.00    +0.085 A 
ATOM     16  C   UNL     1       2.069   1.667  23.437  0.00  0.00    +0.178 A 
ATOM     19  C   UNL     1       1.468  -0.426  22.355  0.00  0.00    +0.031 A 
ATOM     23  C   UNL     1       2.799  -0.504  21.953  0.00  0.00    +0.022 A 
ATOM     24  C   UNL     1       3.679   0.510  22.320  0.00  0.00    +0.113 A 
ATOM     26  H   UNL     1      -0.927   0.665  23.643  0.00  0.00    +0.167 HD
ENDBRANCH   8  12
BRANCH   4  13
ATOM     13  C   UNL     1      -4.391   2.339  25.641  0.00  0.00    +0.119 C 
BRANCH  13  14
ATOM     14  C   UNL     1      -4.239   0.889  25.267  0.00  0.00    -0.033 A 
ATOM     17  C   UNL     1      -4.525   0.472  23.967  0.00  0.00    +0.005 A 
ATOM     18  C   UNL     1      -3.813  -0.037  26.219  0.00  0.00    +0.005 A 
ATOM     20  C   UNL     1      -4.384  -0.872  23.619  0.00  0.00    +0.012 A 
ATOM     21  C   UNL     1      -3.672  -1.380  25.872  0.00  0.00    +0.012 A 
ATOM     22  C   UNL     1      -3.958  -1.798  24.572  0.00  0.00    +0.055 A 
BRANCH  22  25
ATOM      1  F   UNL     1      -4.746  -3.673  23.311  0.00  0.00    -0.166 F 
ATOM      2  F   UNL     1      -3.896  -4.069  25.273  0.00  0.00    -0.166 F 
ATOM      3  F   UNL     1      -2.604  -3.521  23.613  0.00  0.00    -0.166 F 
ATOM     25  C   UNL     1      -3.804  -3.234  24.198  0.00  0.00    +0.417 C 
ENDBRANCH  22  25
ENDBRANCH  13  14
ENDBRANCH   4  13
TORSDOF 4
ENDMDL
MODEL 4
REMARK VINA RESULT:      -0.9      2.879      5.238
REMARK  Name = 51137041
REMARK  4 active torsions:
REMARK  status: ('A' for Active; 'I' for Inactive)
REMARK    1  A    between atoms: N_4  and  C_13
REMARK    2  A    between atoms: C_8  and  C_12
REMARK    3  A    between atoms: C_13  and  C_14
REMARK    4  A    between atoms: C_22  and  C_25
REMARK                            x       y       z     vdW  Elec       q    Type
REMARK                         _______ _______ _______ _____ _____    ______ ____
ROOT
ATOM      4  N   UNL     1       0.328   2.848  25.064  0.00  0.00    -0.297 NA
ATOM      8  C   UNL     1       0.074   0.524  24.889  0.00  0.00    +0.070 C 
ATOM      9  C   UNL     1       0.791   1.059  23.637  0.00  0.00    +0.028 C 
ATOM     10  C   UNL     1      -0.532   1.768  25.551  0.00  0.00    +0.096 C 
ATOM     11  C   UNL     1       0.529   2.559  23.644  0.00  0.00    +0.085 C 
ENDROOT
BRANCH   8  12
ATOM      5  N   UNL     1      -2.265  -0.255  24.420  0.00  0.00    -0.340 N 
ATOM      6  N   UNL     1      -0.720  -1.852  24.556  0.00  0.00    -0.213 NA
ATOM      7  N   UNL     1      -2.200  -3.733  24.145  0.00  0.00    -0.234 NA
ATOM     12  C   UNL     1      -0.946  -0.559  24.623  0.00  0.00    +0.114 A 
ATOM     15  C   UNL     1      -2.932  -1.431  24.207  0.00  0.00    +0.085 A 
ATOM     16  C   UNL     1      -1.947  -2.409  24.298  0.00  0.00    +0.178 A 
ATOM     19  C   UNL     1      -4.261  -1.747  23.951  0.00  0.00    +0.031 A 
ATOM     23  C   UNL     1      -4.537  -3.103  23.792  0.00  0.00    +0.022 A 
ATOM     24  C   UNL     1      -3.498  -4.023  23.896  0.00  0.00    +0.113 A 
ATOM     26  H   UNL     1      -2.675   0.670  24.424  0.00  0.00    +0.167 HD
ENDBRANCH   8  12
BRANCH   4  13
ATOM     13  C   UNL     1      -0.253   4.164  25.285  0.00  0.00    +0.119 C 
BRANCH  13  14
ATOM     14  C   UNL     1      -1.755   4.106  25.371  0.00  0.00    -0.033 A 
ATOM     17  C   UNL     1      -2.509   3.855  24.225  0.00  0.00    +0.005 A 
ATOM     18  C   UNL     1      -2.393   4.303  26.596  0.00  0.00    +0.005 A 
ATOM     20  C   UNL     1      -3.901   3.801  24.303  0.00  0.00    +0.012 A 
ATOM     21  C   UNL     1      -3.784   4.249  26.675  0.00  0.00    +0.012 A 
ATOM     22  C   UNL     1      -4.539   3.999  25.528  0.00  0.00    +0.055 A 
BRANCH  22  25
ATOM      1  F   UNL     1      -6.629   5.163  25.576  0.00  0.00    -0.166 F 
ATOM      2  F   UNL     1      -6.464   3.348  26.763  0.00  0.00    -0.166 F 
ATOM      3  F   UNL     1      -6.602   3.228  24.596  0.00  0.00    -0.166 F 
ATOM     25  C   UNL     1      -6.026   3.937  25.612  0.00  0.00    +0.417 C 
ENDBRANCH  22  25
ENDBRANCH  13  14
ENDBRANCH   4  13
TORSDOF 4
ENDMDL
MODEL 5
REMARK VINA RESULT:      -0.6      3.739      7.778
REMARK  Name = 51137041
REMARK  4 active torsions:
REMARK  status: ('A' for Active; 'I' for Inactive)
REMARK    1  A    between atoms: N_4  and  C_13
REMARK    2  A    between atoms: C_8  and  C_12
REMARK    3  A    between atoms: C_13  and  C_14
REMARK    4  A    between atoms: C_22  and  C_25
REMARK                            x       y       z     vdW  Elec       q    Type
REMARK                         _______ _______ _______ _____ _____    ______ ____
ROOT
ATOM      4  N   UNL     1       0.136  -0.618  23.726  0.00  0.00    -0.297 NA
ATOM      8  C   UNL     1      -1.558   0.097  25.181  0.00  0.00    +0.070 C 
ATOM      9  C   UNL     1      -1.836  -1.350  24.740  0.00  0.00    +0.028 C 
ATOM     10  C   UNL     1      -0.511   0.613  24.186  0.00  0.00    +0.096 C 
ATOM     11  C   UNL     1      -0.960  -1.563  23.512  0.00  0.00    +0.085 C 
ENDROOT
BRANCH   8  12
ATOM      5  N   UNL     1      -2.667   2.346  25.295  0.00  0.00    -0.340 N 
ATOM      6  N   UNL     1      -4.034   0.589  25.310  0.00  0.00    -0.213 NA
ATOM      7  N   UNL     1      -6.115   1.833  25.442  0.00  0.00    -0.234 NA
ATOM     12  C   UNL     1      -2.780   0.983  25.263  0.00  0.00    +0.114 A 
ATOM     15  C   UNL     1      -3.932   2.864  25.368  0.00  0.00    +0.085 A 
ATOM     16  C   UNL     1      -4.763   1.749  25.377  0.00  0.00    +0.178 A 
ATOM     19  C   UNL     1      -4.436   4.158  25.427  0.00  0.00    +0.031 A 
ATOM     23  C   UNL     1      -5.823   4.260  25.495  0.00  0.00    +0.022 A 
ATOM     24  C   UNL     1      -6.590   3.099  25.499  0.00  0.00    +0.113 A 
ATOM     26  H   UNL     1      -1.806   2.877  25.269  0.00  0.00    +0.167 HD
ENDBRANCH   8  12
BRANCH   4  13
ATOM     13  C   UNL     1       0.933  -0.412  22.526  0.00  0.00    +0.119 C 
BRANCH  13  14
ATOM     14  C   UNL     1       2.403  -0.326  22.838  0.00  0.00    -0.033 A 
ATOM     17  C   UNL     1       3.045  -1.393  23.467  0.00  0.00    +0.005 A 
ATOM     18  C   UNL     1       3.124   0.819  22.499  0.00  0.00    +0.005 A 
ATOM     20  C   UNL     1       4.408  -1.315  23.756  0.00  0.00    +0.012 A 
ATOM     21  C   UNL     1       4.486   0.897  22.788  0.00  0.00    +0.012 A 
ATOM     22  C   UNL     1       5.128  -0.169  23.417  0.00  0.00    +0.055 A 
BRANCH  22  25
ATOM      1  F   UNL     1       7.386  -0.434  22.671  0.00  0.00    -0.166 F 
ATOM      2  F   UNL     1       6.953  -0.909  24.749  0.00  0.00    -0.166 F 
ATOM      3  F   UNL     1       6.998   1.162  24.088  0.00  0.00    -0.166 F 
ATOM     25  C   UNL     1       6.585  -0.088  23.723  0.00  0.00    +0.417 C 
ENDBRANCH  22  25
ENDBRANCH  13  14
ENDBRANCH   4  13
TORSDOF 4
ENDMDL
MODEL 6
REMARK VINA RESULT:       0.8      3.964      8.020
REMARK  Name = 51137041
REMARK  4 active torsions:
REMARK  status: ('A' for Active; 'I' for Inactive)
REMARK    1  A    between atoms: N_4  and  C_13
REMARK    2  A    between atoms: C_8  and  C_12
REMARK    3  A    between atoms: C_13  and  C_14
REMARK    4  A    between atoms: C_22  and  C_25
REMARK                            x       y       z     vdW  Elec       q    Type
REMARK                         _______ _______ _______ _____ _____    ______ ____
ROOT
ATOM      4  N   UNL     1       0.291   1.107  23.021  0.00  0.00    -0.297 NA
ATOM      8  C   UNL     1      -1.518   2.516  23.510  0.00  0.00    +0.070 C 
ATOM      9  C   UNL     1      -0.307   2.915  24.372  0.00  0.00    +0.028 C 
ATOM     10  C   UNL     1      -1.173   1.120  22.977  0.00  0.00    +0.096 C 
ATOM     11  C   UNL     1       0.636   1.720  24.303  0.00  0.00    +0.085 C 
ENDROOT
BRANCH   8  12
ATOM      5  N   UNL     1      -3.533   1.415  24.525  0.00  0.00    -0.340 N 
ATOM      6  N   UNL     1      -3.488   3.638  24.628  0.00  0.00    -0.213 NA
ATOM      7  N   UNL     1      -5.607   3.924  25.778  0.00  0.00    -0.234 NA
ATOM     12  C   UNL     1      -2.849   2.562  24.225  0.00  0.00    +0.114 A 
ATOM     15  C   UNL     1      -4.688   1.777  25.164  0.00  0.00    +0.085 A 
ATOM     16  C   UNL     1      -4.634   3.165  25.214  0.00  0.00    +0.178 A 
ATOM     19  C   UNL     1      -5.755   1.061  25.694  0.00  0.00    +0.031 A 
ATOM     23  C   UNL     1      -6.762   1.827  26.276  0.00  0.00    +0.022 A 
ATOM     24  C   UNL     1      -6.639   3.213  26.289  0.00  0.00    +0.113 A 
ATOM     26  H   UNL     1      -3.239   0.470  24.315  0.00  0.00    +0.167 HD
ENDBRANCH   8  12
BRANCH   4  13
ATOM     13  C   UNL     1       0.839  -0.235  22.882  0.00  0.00    +0.119 C 
BRANCH  13  14
ATOM     14  C   UNL     1       2.333  -0.251  23.063  0.00  0.00    -0.033 A 
ATOM     17  C   UNL     1       2.954  -1.365  23.628  0.00  0.00    +0.005 A 
ATOM     18  C   UNL     1       3.097   0.847  22.667  0.00  0.00    +0.005 A 
ATOM     20  C   UNL     1       4.339  -1.382  23.795  0.00  0.00    +0.012 A 
ATOM     21  C   UNL     1       4.481   0.831  22.834  0.00  0.00    +0.012 A 
ATOM     22  C   UNL     1       5.103  -0.283  23.399  0.00  0.00    +0.055 A 
BRANCH  22  25
ATOM      1  F   UNL     1       7.001  -1.083  24.616  0.00  0.00    -0.166 F 
ATOM      2  F   UNL     1       7.100   0.936  23.816  0.00  0.00    -0.166 F 
ATOM      3  F   UNL     1       7.257  -0.775  22.484  0.00  0.00    -0.166 F 
ATOM     25  C   UNL     1       6.583  -0.303  23.575  0.00  0.00    +0.417 C 
ENDBRANCH  22  25
ENDBRANCH  13  14
ENDBRANCH   4  13
TORSDOF 4
ENDMDL
MODEL 7
REMARK VINA RESULT:       0.8      4.187      7.558
REMARK  Name = 51137041
REMARK  4 active torsions:
REMARK  status: ('A' for Active; 'I' for Inactive)
REMARK    1  A    between atoms: N_4  and  C_13
REMARK    2  A    between atoms: C_8  and  C_12
REMARK    3  A    between atoms: C_13  and  C_14
REMARK    4  A    between atoms: C_22  and  C_25
REMARK                            x       y       z     vdW  Elec       q    Type
REMARK                         _______ _______ _______ _____ _____    ______ ____
ROOT
ATOM      4  N   UNL     1       0.685   1.865  24.249  0.00  0.00    -0.297 NA
ATOM      8  C   UNL     1      -0.957   3.500  24.607  0.00  0.00    +0.070 C 
ATOM      9  C   UNL     1      -0.056   3.396  25.849  0.00  0.00    +0.028 C 
ATOM     10  C   UNL     1      -0.662   2.225  23.805  0.00  0.00    +0.096 C 
ATOM     11  C   UNL     1       0.672   2.066  25.698  0.00  0.00    +0.085 C 
ENDROOT
BRANCH   8  12
ATOM      5  N   UNL     1      -3.231   2.614  25.196  0.00  0.00    -0.340 N 
ATOM      6  N   UNL     1      -3.091   4.819  24.916  0.00  0.00    -0.213 NA
ATOM      7  N   UNL     1      -5.424   5.323  25.361  0.00  0.00    -0.234 NA
ATOM     12  C   UNL     1      -2.428   3.683  24.902  0.00  0.00    +0.114 A 
ATOM     15  C   UNL     1      -4.494   3.094  25.414  0.00  0.00    +0.085 A 
ATOM     16  C   UNL     1      -4.379   4.468  25.233  0.00  0.00    +0.178 A 
ATOM     19  C   UNL     1      -5.704   2.494  25.742  0.00  0.00    +0.031 A 
ATOM     23  C   UNL     1      -6.787   3.359  25.877  0.00  0.00    +0.022 A 
ATOM     24  C   UNL     1      -6.594   4.723  25.680  0.00  0.00    +0.113 A 
ATOM     26  H   UNL     1      -2.945   1.645  25.245  0.00  0.00    +0.167 HD
ENDBRANCH   8  12
BRANCH   4  13
ATOM     13  C   UNL     1       1.046   0.504  23.881  0.00  0.00    +0.119 C 
BRANCH  13  14
ATOM     14  C   UNL     1      -0.114  -0.444  24.031  0.00  0.00    -0.033 A 
ATOM     17  C   UNL     1      -1.380  -0.070  23.582  0.00  0.00    +0.005 A 
ATOM     18  C   UNL     1       0.077  -1.695  24.617  0.00  0.00    +0.005 A 
ATOM     20  C   UNL     1      -2.456  -0.947  23.720  0.00  0.00    +0.012 A 
ATOM     21  C   UNL     1      -0.998  -2.572  24.755  0.00  0.00    +0.012 A 
ATOM     22  C   UNL     1      -2.265  -2.198  24.307  0.00  0.00    +0.055 A 
BRANCH  22  25
ATOM      1  F   UNL     1      -4.601  -2.624  24.006  0.00  0.00    -0.166 F 
ATOM      2  F   UNL     1      -3.636  -3.503  25.746  0.00  0.00    -0.166 F 
ATOM      3  F   UNL     1      -3.254  -4.307  23.762  0.00  0.00    -0.166 F 
ATOM     25  C   UNL     1      -3.415  -3.137  24.450  0.00  0.00    +0.417 C 
ENDBRANCH  22  25
ENDBRANCH  13  14
ENDBRANCH   4  13
TORSDOF 4
ENDMDL
MODEL 8
REMARK VINA RESULT:       1.3      3.146      6.234
REMARK  Name = 51137041
REMARK  4 active torsions:
REMARK  status: ('A' for Active; 'I' for Inactive)
REMARK    1  A    between atoms: N_4  and  C_13
REMARK    2  A    between atoms: C_8  and  C_12
REMARK    3  A    between atoms: C_13  and  C_14
REMARK    4  A    between atoms: C_22  and  C_25
REMARK                            x       y       z     vdW  Elec       q    Type
REMARK                         _______ _______ _______ _____ _____    ______ ____
ROOT
ATOM      4  N   UNL     1      -3.277  -1.716  25.141  0.00  0.00    -0.297 NA
ATOM      8  C   UNL     1      -4.037   0.485  25.412  0.00  0.00    +0.070 C 
ATOM      9  C   UNL     1      -4.876  -0.219  24.331  0.00  0.00    +0.028 C 
ATOM     10  C   UNL     1      -2.800  -0.405  25.586  0.00  0.00    +0.096 C 
ATOM     11  C   UNL     1      -4.060  -1.444  23.936  0.00  0.00    +0.085 C 
ENDROOT
BRANCH   8  12
ATOM      5  N   UNL     1      -2.533   2.488  25.576  0.00  0.00    -0.340 N 
ATOM      6  N   UNL     1      -4.404   2.773  24.402  0.00  0.00    -0.213 NA
ATOM      7  N   UNL     1      -4.029   5.096  23.806  0.00  0.00    -0.234 NA
ATOM     12  C   UNL     1      -3.690   1.924  25.109  0.00  0.00    +0.114 A 
ATOM     15  C   UNL     1      -2.500   3.786  25.140  0.00  0.00    +0.085 A 
ATOM     16  C   UNL     1      -3.677   3.936  24.413  0.00  0.00    +0.178 A 
ATOM     19  C   UNL     1      -1.593   4.827  25.297  0.00  0.00    +0.031 A 
ATOM     23  C   UNL     1      -1.942   6.025  24.679  0.00  0.00    +0.022 A 
ATOM     24  C   UNL     1      -3.135   6.100  23.968  0.00  0.00    +0.113 A 
ATOM     26  H   UNL     1      -1.829   2.031  26.139  0.00  0.00    +0.167 HD
ENDBRANCH   8  12
BRANCH   4  13
ATOM     13  C   UNL     1      -2.187  -2.650  24.896  0.00  0.00    +0.119 C 
BRANCH  13  14
ATOM     14  C   UNL     1      -0.965  -1.955  24.357  0.00  0.00    -0.033 A 
ATOM     17  C   UNL     1       0.276  -2.166  24.958  0.00  0.00    +0.005 A 
ATOM     18  C   UNL     1      -1.072  -1.102  23.259  0.00  0.00    +0.005 A 
ATOM     20  C   UNL     1       1.410  -1.523  24.460  0.00  0.00    +0.012 A 
ATOM     21  C   UNL     1       0.060  -0.460  22.761  0.00  0.00    +0.012 A 
ATOM     22  C   UNL     1       1.302  -0.669  23.362  0.00  0.00    +0.055 A 
BRANCH  22  25
ATOM      1  F   UNL     1       2.642   1.310  23.244  0.00  0.00    -0.166 F 
ATOM      2  F   UNL     1       2.532   0.065  21.464  0.00  0.00    -0.166 F 
ATOM      3  F   UNL     1       3.686  -0.591  23.186  0.00  0.00    -0.166 F 
ATOM     25  C   UNL     1       2.515   0.014  22.827  0.00  0.00    +0.417 C 
ENDBRANCH  22  25
ENDBRANCH  13  14
ENDBRANCH   4  13
TORSDOF 4
ENDMDL
MODEL 9
REMARK VINA RESULT:       1.4      3.356      4.717
REMARK  Name = 51137041
REMARK  4 active torsions:
REMARK  status: ('A' for Active; 'I' for Inactive)
REMARK    1  A    between atoms: N_4  and  C_13
REMARK    2  A    between atoms: C_8  and  C_12
REMARK    3  A    between atoms: C_13  and  C_14
REMARK    4  A    between atoms: C_22  and  C_25
REMARK                            x       y       z     vdW  Elec       q    Type
REMARK                         _______ _______ _______ _____ _____    ______ ____
ROOT
ATOM      4  N   UNL     1      -6.252   2.904  25.443  0.00  0.00    -0.297 NA
ATOM      8  C   UNL     1      -5.716   0.668  24.984  0.00  0.00    +0.070 C 
ATOM      9  C   UNL     1      -6.284   0.779  26.410  0.00  0.00    +0.028 C 
ATOM     10  C   UNL     1      -5.364   2.109  24.593  0.00  0.00    +0.096 C 
ATOM     11  C   UNL     1      -6.195   2.260  26.755  0.00  0.00    +0.085 C 
ENDROOT
BRANCH   8  12
ATOM      5  N   UNL     1      -3.325   0.007  25.367  0.00  0.00    -0.340 N 
ATOM      6  N   UNL     1      -4.561  -1.445  24.218  0.00  0.00    -0.213 NA
ATOM      7  N   UNL     1      -2.822  -3.104  23.871  0.00  0.00    -0.234 NA
ATOM     12  C   UNL     1      -4.552  -0.285  24.836  0.00  0.00    +0.114 A 
ATOM     15  C   UNL     1      -2.488  -1.035  25.072  0.00  0.00    +0.085 A 
ATOM     16  C   UNL     1      -3.282  -1.924  24.355  0.00  0.00    +0.178 A 
ATOM     19  C   UNL     1      -1.150  -1.296  25.343  0.00  0.00    +0.031 A 
ATOM     23  C   UNL     1      -0.663  -2.505  24.851  0.00  0.00    +0.022 A 
ATOM     24  C   UNL     1      -1.518  -3.344  24.143  0.00  0.00    +0.113 A 
ATOM     26  H   UNL     1      -3.079   0.841  25.885  0.00  0.00    +0.167 HD
ENDBRANCH   8  12
BRANCH   4  13
ATOM     13  C   UNL     1      -5.863   4.305  25.497  0.00  0.00    +0.119 C 
BRANCH  13  14
ATOM     14  C   UNL     1      -4.384   4.485  25.277  0.00  0.00    -0.033 A 
ATOM     17  C   UNL     1      -3.491   4.242  26.320  0.00  0.00    +0.005 A 
ATOM     18  C   UNL     1      -3.908   4.895  24.032  0.00  0.00    +0.005 A 
ATOM     20  C   UNL     1      -2.120   4.409  26.117  0.00  0.00    +0.012 A 
ATOM     21  C   UNL     1      -2.539   5.062  23.828  0.00  0.00    +0.012 A 
ATOM     22  C   UNL     1      -1.644   4.819  24.871  0.00  0.00    +0.055 A 
BRANCH  22  25
ATOM      1  F   UNL     1       0.215   4.767  23.365  0.00  0.00    -0.166 F 
ATOM      2  F   UNL     1       0.569   4.147  25.419  0.00  0.00    -0.166 F 
ATOM      3  F   UNL     1       0.272   6.249  24.949  0.00  0.00    -0.166 F 
ATOM     25  C   UNL     1      -0.179   4.993  24.654  0.00  0.00    +0.417 C 
ENDBRANCH  22  25
ENDBRANCH  13  14
ENDBRANCH   4  13
TORSDOF 4
ENDMDL
