MODEL 1
REMARK VINA RESULT:       0.4      0.000      0.000
REMARK  Name = 25313526
REMARK  11 active torsions:
REMARK  status: ('A' for Active; 'I' for Inactive)
REMARK    1  A    between atoms: O_4  and  C_27
REMARK    2  A    between atoms: O_4  and  C_33
REMARK    3  A    between atoms: O_5  and  C_31
REMARK    4  A    between atoms: O_5  and  C_34
REMARK    5  A    between atoms: N_7  and  C_20
REMARK    6  A    between atoms: C_9  and  C_15
REMARK    7  A    between atoms: C_10  and  C_14
REMARK    8  A    between atoms: C_14  and  C_16
REMARK    9  A    between atoms: C_15  and  C_17
REMARK   10  A    between atoms: C_19  and  C_21
REMARK   11  A    between atoms: C_20  and  C_22
REMARK                            x       y       z     vdW  Elec       q    Type
REMARK                         _______ _______ _______ _____ _____    ______ ____
ROOT
ATOM      6  N   UNL     1      -0.218   5.395  24.618  0.00  0.00    -0.316 NA
ATOM      9  C   UNL     1      -2.740   4.088  25.415  0.00  0.00    +0.004 C 
ATOM     10  C   UNL     1      -1.489   3.292  24.975  0.00  0.00    +0.012 C 
ATOM     11  C   UNL     1      -2.300   5.463  25.945  0.00  0.00    +0.019 C 
ATOM     12  C   UNL     1      -0.598   4.111  24.026  0.00  0.00    +0.085 C 
ATOM     13  C   UNL     1      -1.386   6.200  24.968  0.00  0.00    +0.081 C 
ATOM     35  H   UNL     1       0.363   5.912  23.958  0.00  0.00    +0.122 HD
ENDROOT
BRANCH  10  14
ATOM     14  C   UNL     1      -1.829   1.936  24.356  0.00  0.00    +0.064 C 
BRANCH  14  16
ATOM      3  O   UNL     1       0.607  -0.238  22.838  0.00  0.00    -0.354 OA
ATOM      8  N   UNL     1      -0.700   0.175  23.066  0.00  0.00    -0.083 NA
ATOM     16  C   UNL     1      -0.593   1.222  23.889  0.00  0.00    +0.085 A 
ATOM     18  C   UNL     1       0.744   1.513  24.212  0.00  0.00    +0.076 A 
ATOM     19  C   UNL     1       1.457   0.567  23.525  0.00  0.00    +0.167 A 
BRANCH  19  21
ATOM      1  F   UNL     1       6.864  -0.623  22.983  0.00  0.00    -0.205 F 
ATOM     21  C   UNL     1       2.851   0.260  23.387  0.00  0.00    +0.020 A 
ATOM     24  C   UNL     1       3.729   1.220  22.881  0.00  0.00    +0.014 A 
ATOM     25  C   UNL     1       3.329  -0.997  23.755  0.00  0.00    +0.014 A 
ATOM     29  C   UNL     1       5.085   0.921  22.745  0.00  0.00    +0.039 A 
ATOM     30  C   UNL     1       4.685  -1.295  23.619  0.00  0.00    +0.039 A 
ATOM     32  C   UNL     1       5.562  -0.337  23.114  0.00  0.00    +0.123 A 
ENDBRANCH  19  21
ENDBRANCH  14  16
ENDBRANCH  10  14
BRANCH   9  15
ATOM     15  C   UNL     1      -3.801   4.241  24.318  0.00  0.00    +0.099 C 
BRANCH  15  17
ATOM      2  O   UNL     1      -4.292   2.393  22.835  0.00  0.00    -0.276 OA
ATOM      7  N   UNL     1      -5.169   2.394  24.988  0.00  0.00    -0.311 N 
ATOM     17  C   UNL     1      -4.429   2.917  23.938  0.00  0.00    +0.214 C 
ATOM     36  H   UNL     1      -5.183   2.887  25.876  0.00  0.00    +0.149 HD
BRANCH   7  20
ATOM     20  C   UNL     1      -5.881   1.140  24.903  0.00  0.00    +0.139 C 
BRANCH  20  22
ATOM     22  C   UNL     1      -4.946  -0.034  24.844  0.00  0.00    -0.027 A 
ATOM     23  C   UNL     1      -3.973  -0.201  25.828  0.00  0.00    +0.054 A 
ATOM     26  C   UNL     1      -5.052  -0.958  23.803  0.00  0.00    +0.009 A 
ATOM     27  C   UNL     1      -3.104  -1.291  25.773  0.00  0.00    +0.162 A 
ATOM     28  C   UNL     1      -4.183  -2.048  23.749  0.00  0.00    +0.050 A 
ATOM     31  C   UNL     1      -3.210  -2.214  24.733  0.00  0.00    +0.162 A 
BRANCH  27   4
ATOM      4  O   UNL     1      -2.158  -1.443  26.740  0.00  0.00    -0.491 OA
ATOM     33  C   UNL     1      -0.934  -0.729  26.568  0.00  0.00    +0.277 C 
ENDBRANCH  27   4
BRANCH  31   5
ATOM      5  O   UNL     1      -2.366  -3.282  24.667  0.00  0.00    -0.491 OA
ATOM     34  C   UNL     1      -1.168  -3.115  23.911  0.00  0.00    +0.277 C 
ENDBRANCH  31   5
ENDBRANCH  20  22
ENDBRANCH   7  20
ENDBRANCH  15  17
ENDBRANCH   9  15
TORSDOF 9
ENDMDL
MODEL 2
REMARK VINA RESULT:       1.1      1.883      4.886
REMARK  Name = 25313526
REMARK  11 active torsions:
REMARK  status: ('A' for Active; 'I' for Inactive)
REMARK    1  A    between atoms: O_4  and  C_27
REMARK    2  A    between atoms: O_4  and  C_33
REMARK    3  A    between atoms: O_5  and  C_31
REMARK    4  A    between atoms: O_5  and  C_34
REMARK    5  A    between atoms: N_7  and  C_20
REMARK    6  A    between atoms: C_9  and  C_15
REMARK    7  A    between atoms: C_10  and  C_14
REMARK    8  A    between atoms: C_14  and  C_16
REMARK    9  A    between atoms: C_15  and  C_17
REMARK   10  A    between atoms: C_19  and  C_21
REMARK   11  A    between atoms: C_20  and  C_22
REMARK                            x       y       z     vdW  Elec       q    Type
REMARK                         _______ _______ _______ _____ _____    ______ ____
ROOT
ATOM      6  N   UNL     1      -2.106  -3.150  24.873  0.00  0.00    -0.316 NA
ATOM      9  C   UNL     1      -4.006  -1.217  23.707  0.00  0.00    +0.004 C 
ATOM     10  C   UNL     1      -2.484  -0.951  23.782  0.00  0.00    +0.012 C 
ATOM     11  C   UNL     1      -4.252  -2.736  23.722  0.00  0.00    +0.019 C 
ATOM     12  C   UNL     1      -1.831  -1.714  24.947  0.00  0.00    +0.085 C 
ATOM     13  C   UNL     1      -3.540  -3.430  24.882  0.00  0.00    +0.081 C 
ATOM     35  H   UNL     1      -1.665  -3.619  25.664  0.00  0.00    +0.122 HD
ENDROOT
BRANCH  10  14
ATOM     14  C   UNL     1      -2.139   0.537  23.853  0.00  0.00    +0.064 C 
BRANCH  14  16
ATOM      3  O   UNL     1       1.194   1.858  23.532  0.00  0.00    -0.354 OA
ATOM      8  N   UNL     1      -0.181   2.009  23.660  0.00  0.00    -0.083 NA
ATOM     16  C   UNL     1      -0.662   0.764  23.713  0.00  0.00    +0.085 A 
ATOM     18  C   UNL     1       0.354  -0.205  23.624  0.00  0.00    +0.076 A 
ATOM     19  C   UNL     1       1.500   0.536  23.512  0.00  0.00    +0.167 A 
BRANCH  19  21
ATOM      1  F   UNL     1       6.906  -0.679  23.017  0.00  0.00    -0.205 F 
ATOM     21  C   UNL     1       2.894   0.223  23.384  0.00  0.00    +0.020 A 
ATOM     24  C   UNL     1       3.367  -1.029  23.779  0.00  0.00    +0.014 A 
ATOM     25  C   UNL     1       3.777   1.170  22.865  0.00  0.00    +0.014 A 
ATOM     29  C   UNL     1       4.722  -1.334  23.655  0.00  0.00    +0.039 A 
ATOM     30  C   UNL     1       5.132   0.865  22.741  0.00  0.00    +0.039 A 
ATOM     32  C   UNL     1       5.604  -0.386  23.136  0.00  0.00    +0.123 A 
ENDBRANCH  19  21
ENDBRANCH  14  16
ENDBRANCH  10  14
BRANCH   9  15
ATOM     15  C   UNL     1      -4.817  -0.523  24.807  0.00  0.00    +0.099 C 
BRANCH  15  17
ATOM      2  O   UNL     1      -4.581   1.558  23.595  0.00  0.00    -0.276 OA
ATOM      7  N   UNL     1      -5.125   1.608  25.854  0.00  0.00    -0.311 N 
ATOM     17  C   UNL     1      -4.822   0.983  24.653  0.00  0.00    +0.214 C 
ATOM     36  H   UNL     1      -5.352   1.038  26.664  0.00  0.00    +0.149 HD
BRANCH   7  20
ATOM     20  C   UNL     1      -5.197   3.044  26.000  0.00  0.00    +0.139 C 
BRANCH  20  22
ATOM     22  C   UNL     1      -3.905   3.712  25.627  0.00  0.00    -0.027 A 
ATOM     23  C   UNL     1      -2.708   3.285  26.201  0.00  0.00    +0.054 A 
ATOM     26  C   UNL     1      -3.902   4.761  24.706  0.00  0.00    +0.009 A 
ATOM     27  C   UNL     1      -1.508   3.906  25.855  0.00  0.00    +0.162 A 
ATOM     28  C   UNL     1      -2.702   5.381  24.361  0.00  0.00    +0.050 A 
ATOM     31  C   UNL     1      -1.505   4.954  24.935  0.00  0.00    +0.162 A 
BRANCH  27   4
ATOM      4  O   UNL     1      -0.345   3.480  26.423  0.00  0.00    -0.491 OA
ATOM     33  C   UNL     1      -0.308   2.132  26.890  0.00  0.00    +0.277 C 
ENDBRANCH  27   4
BRANCH  31   5
ATOM      5  O   UNL     1      -0.339   5.570  24.591  0.00  0.00    -0.491 OA
ATOM     34  C   UNL     1       0.199   5.265  23.306  0.00  0.00    +0.277 C 
ENDBRANCH  31   5
ENDBRANCH  20  22
ENDBRANCH   7  20
ENDBRANCH  15  17
ENDBRANCH   9  15
TORSDOF 9
ENDMDL
MODEL 3
REMARK VINA RESULT:       4.3      2.979      5.756
REMARK  Name = 25313526
REMARK  11 active torsions:
REMARK  status: ('A' for Active; 'I' for Inactive)
REMARK    1  A    between atoms: O_4  and  C_27
REMARK    2  A    between atoms: O_4  and  C_33
REMARK    3  A    between atoms: O_5  and  C_31
REMARK    4  A    between atoms: O_5  and  C_34
REMARK    5  A    between atoms: N_7  and  C_20
REMARK    6  A    between atoms: C_9  and  C_15
REMARK    7  A    between atoms: C_10  and  C_14
REMARK    8  A    between atoms: C_14  and  C_16
REMARK    9  A    between atoms: C_15  and  C_17
REMARK   10  A    between atoms: C_19  and  C_21
REMARK   11  A    between atoms: C_20  and  C_22
REMARK                            x       y       z     vdW  Elec       q    Type
REMARK                         _______ _______ _______ _____ _____    ______ ____
ROOT
ATOM      6  N   UNL     1      -6.397   2.938  24.780  0.00  0.00    -0.316 NA
ATOM      9  C   UNL     1      -4.233   0.969  25.163  0.00  0.00    +0.004 C 
ATOM     10  C   UNL     1      -3.967   2.430  24.730  0.00  0.00    +0.012 C 
ATOM     11  C   UNL     1      -5.573   0.904  25.914  0.00  0.00    +0.019 C 
ATOM     12  C   UNL     1      -5.171   3.030  23.985  0.00  0.00    +0.085 C 
ATOM     13  C   UNL     1      -6.713   1.555  25.133  0.00  0.00    +0.081 C 
ATOM     35  H   UNL     1      -7.173   3.337  24.252  0.00  0.00    +0.122 HD
ENDROOT
BRANCH  10  14
ATOM     14  C   UNL     1      -2.691   2.586  23.902  0.00  0.00    +0.064 C 
BRANCH  14  16
ATOM      3  O   UNL     1       0.536   3.262  25.348  0.00  0.00    -0.354 OA
ATOM      8  N   UNL     1      -0.365   3.279  24.291  0.00  0.00    -0.083 NA
ATOM     16  C   UNL     1      -1.483   2.733  24.780  0.00  0.00    +0.085 A 
ATOM     18  C   UNL     1      -1.346   2.356  26.128  0.00  0.00    +0.076 A 
ATOM     19  C   UNL     1      -0.060   2.710  26.436  0.00  0.00    +0.167 A 
BRANCH  19  21
ATOM      1  F   UNL     1       3.098   2.376  31.003  0.00  0.00    -0.205 F 
ATOM     21  C   UNL     1       0.754   2.625  27.614  0.00  0.00    +0.020 A 
ATOM     24  C   UNL     1       2.124   2.880  27.535  0.00  0.00    +0.014 A 
ATOM     25  C   UNL     1       0.177   2.286  28.838  0.00  0.00    +0.014 A 
ATOM     29  C   UNL     1       2.915   2.796  28.680  0.00  0.00    +0.039 A 
ATOM     30  C   UNL     1       0.969   2.202  29.982  0.00  0.00    +0.039 A 
ATOM     32  C   UNL     1       2.337   2.457  29.904  0.00  0.00    +0.123 A 
ENDBRANCH  19  21
ENDBRANCH  14  16
ENDBRANCH  10  14
BRANCH   9  15
ATOM     15  C   UNL     1      -4.207  -0.040  24.008  0.00  0.00    +0.099 C 
BRANCH  15  17
ATOM      2  O   UNL     1      -3.480  -2.342  24.173  0.00  0.00    -0.276 OA
ATOM      7  N   UNL     1      -1.945  -0.632  24.519  0.00  0.00    -0.311 N 
ATOM     17  C   UNL     1      -3.200  -1.147  24.234  0.00  0.00    +0.214 C 
ATOM     36  H   UNL     1      -1.809   0.375  24.503  0.00  0.00    +0.149 HD
BRANCH   7  20
ATOM     20  C   UNL     1      -0.792  -1.462  24.782  0.00  0.00    +0.139 C 
BRANCH  20  22
ATOM     22  C   UNL     1       0.434  -0.965  24.071  0.00  0.00    -0.027 A 
ATOM     23  C   UNL     1       1.655  -1.614  24.250  0.00  0.00    +0.054 A 
ATOM     26  C   UNL     1       0.351   0.147  23.233  0.00  0.00    +0.009 A 
ATOM     27  C   UNL     1       2.793  -1.151  23.590  0.00  0.00    +0.162 A 
ATOM     28  C   UNL     1       1.490   0.609  22.573  0.00  0.00    +0.050 A 
ATOM     31  C   UNL     1       2.711  -0.040  22.752  0.00  0.00    +0.162 A 
BRANCH  27   4
ATOM      4  O   UNL     1       3.981  -1.794  23.773  0.00  0.00    -0.491 OA
ATOM     33  C   UNL     1       5.086  -1.003  24.207  0.00  0.00    +0.277 C 
ENDBRANCH  27   4
BRANCH  31   5
ATOM      5  O   UNL     1       3.816   0.422  22.104  0.00  0.00    -0.491 OA
ATOM     34  C   UNL     1       4.301   1.708  22.485  0.00  0.00    +0.277 C 
ENDBRANCH  31   5
ENDBRANCH  20  22
ENDBRANCH   7  20
ENDBRANCH  15  17
ENDBRANCH   9  15
TORSDOF 9
ENDMDL
