MODEL 1
REMARK VINA RESULT:      -4.8      0.000      0.000
REMARK  Name = 11886267
REMARK  8 active torsions:
REMARK  status: ('A' for Active; 'I' for Inactive)
REMARK    1  A    between atoms: O_3  and  C_21
REMARK    2  A    between atoms: O_3  and  C_24
REMARK    3  A    between atoms: O_5  and  C_34
REMARK    4  A    between atoms: O_5  and  C_36
REMARK    5  A    between atoms: N_6  and  C_17
REMARK    6  A    between atoms: N_7  and  C_18
REMARK    7  A    between atoms: N_11  and  C_23
REMARK    8  A    between atoms: N_12  and  C_33
REMARK                            x       y       z     vdW  Elec       q    Type
REMARK                         _______ _______ _______ _____ _____    ______ ____
ROOT
ATOM      1  O   UNL     1      15.876  -7.244  29.228  0.00  0.00    -0.370 OA
ATOM      2  O   UNL     1      16.634 -10.040  30.451  0.00  0.00    -0.370 OA
ATOM     15  C   UNL     1      15.792  -9.623  29.362  0.00  0.00    +0.176 C 
ATOM     16  C   UNL     1      15.121  -8.331  29.785  0.00  0.00    +0.172 C 
ATOM     17  C   UNL     1      16.645  -9.240  28.168  0.00  0.00    +0.171 C 
ATOM     18  C   UNL     1      15.230  -8.329  31.293  0.00  0.00    +0.131 C 
ATOM     19  C   UNL     1      16.935  -7.764  28.412  0.00  0.00    +0.190 C 
ATOM     20  C   UNL     1      16.520  -9.095  31.524  0.00  0.00    +0.185 C 
ENDROOT
BRANCH  18   7
ATOM      4  O   UNL     1      12.466  -7.622  31.032  0.00  0.00    -0.252 OA
ATOM      7  N   UNL     1      14.108  -9.000  31.900  0.00  0.00    -0.292 N 
ATOM     11  N   UNL     1      11.912  -9.426  32.427  0.00  0.00    -0.269 N 
ATOM     22  C   UNL     1      12.780  -8.589  31.721  0.00  0.00    +0.304 C 
ATOM     38  H   UNL     1      14.281  -9.850  32.430  0.00  0.00    +0.151 HD
ATOM     39  H   UNL     1      12.338 -10.186  32.953  0.00  0.00    +0.156 HD
BRANCH  11  23
ATOM     23  C   UNL     1      10.502  -9.349  32.504  0.00  0.00    +0.035 A 
ATOM     27  C   UNL     1       9.728 -10.489  32.284  0.00  0.00    +0.027 A 
ATOM     28  C   UNL     1       9.885  -8.132  32.797  0.00  0.00    +0.027 A 
ATOM     31  C   UNL     1       8.337 -10.412  32.358  0.00  0.00    +0.047 A 
ATOM     32  C   UNL     1       8.494  -8.056  32.870  0.00  0.00    +0.047 A 
ATOM     34  C   UNL     1       7.720  -9.195  32.651  0.00  0.00    +0.120 A 
BRANCH  34   5
ATOM      5  O   UNL     1       6.364  -9.121  32.721  0.00  0.00    -0.495 OA
ATOM     36  C   UNL     1       5.769  -7.844  32.493  0.00  0.00    +0.277 C 
ENDBRANCH  34   5
ENDBRANCH  11  23
ENDBRANCH  18   7
BRANCH  17   6
ATOM      6  N   UNL     1      15.992  -9.542  26.891  0.00  0.00    -0.187 N 
ATOM      8  N   UNL     1      14.880 -10.286  26.840  0.00  0.00    -0.041 NA
ATOM      9  N   UNL     1      15.481  -9.660  24.787  0.00  0.00    -0.071 NA
ATOM     10  N   UNL     1      14.571 -10.354  25.551  0.00  0.00    -0.020 NA
ATOM     21  C   UNL     1      16.352  -9.165  25.637  0.00  0.00    +0.342 A 
BRANCH  21   3
ATOM      3  O   UNL     1      17.405  -8.424  25.345  0.00  0.00    -0.423 OA
BRANCH   3  24
ATOM     24  C   UNL     1      17.303  -7.088  24.983  0.00  0.00    +0.132 A 
ATOM     25  C   UNL     1      17.107  -6.114  25.961  0.00  0.00    +0.048 A 
ATOM     26  C   UNL     1      17.396  -6.720  23.641  0.00  0.00    +0.048 A 
ATOM     29  C   UNL     1      17.005  -4.771  25.598  0.00  0.00    +0.031 A 
ATOM     30  C   UNL     1      17.293  -5.377  23.278  0.00  0.00    +0.031 A 
ATOM     33  C   UNL     1      17.098  -4.402  24.256  0.00  0.00    +0.067 A 
BRANCH  33  12
ATOM     12  N   UNL     1      16.997  -3.072  23.895  0.00  0.00    -0.220 N 
ATOM     13  N   UNL     1      16.486  -2.697  22.711  0.00  0.00    -0.154 NA
ATOM     14  N   UNL     1      17.120  -0.891  23.963  0.00  0.00    -0.222 NA
ATOM     35  C   UNL     1      17.371  -1.992  24.632  0.00  0.00    +0.225 A 
ATOM     37  C   UNL     1      16.584  -1.369  22.802  0.00  0.00    +0.245 A 
ENDBRANCH  33  12
ENDBRANCH   3  24
ENDBRANCH  21   3
ENDBRANCH  17   6
TORSDOF 7
ENDMDL
MODEL 2
REMARK VINA RESULT:      -1.4      1.514      2.084
REMARK  Name = 11886267
REMARK  8 active torsions:
REMARK  status: ('A' for Active; 'I' for Inactive)
REMARK    1  A    between atoms: O_3  and  C_21
REMARK    2  A    between atoms: O_3  and  C_24
REMARK    3  A    between atoms: O_5  and  C_34
REMARK    4  A    between atoms: O_5  and  C_36
REMARK    5  A    between atoms: N_6  and  C_17
REMARK    6  A    between atoms: N_7  and  C_18
REMARK    7  A    between atoms: N_11  and  C_23
REMARK    8  A    between atoms: N_12  and  C_33
REMARK                            x       y       z     vdW  Elec       q    Type
REMARK                         _______ _______ _______ _____ _____    ______ ____
ROOT
ATOM      1  O   UNL     1      15.796  -5.155  28.599  0.00  0.00    -0.370 OA
ATOM      2  O   UNL     1      17.027  -7.204  30.643  0.00  0.00    -0.370 OA
ATOM     15  C   UNL     1      16.068  -7.313  29.576  0.00  0.00    +0.176 C 
ATOM     16  C   UNL     1      15.243  -6.041  29.584  0.00  0.00    +0.172 C 
ATOM     17  C   UNL     1      16.782  -7.300  28.238  0.00  0.00    +0.171 C 
ATOM     18  C   UNL     1      15.443  -5.475  30.972  0.00  0.00    +0.131 C 
ATOM     19  C   UNL     1      16.867  -5.813  27.909  0.00  0.00    +0.190 C 
ATOM     20  C   UNL     1      16.842  -5.952  31.317  0.00  0.00    +0.185 C 
ENDROOT
BRANCH  18   7
ATOM      4  O   UNL     1      12.852  -6.512  30.326  0.00  0.00    -0.252 OA
ATOM      7  N   UNL     1      14.470  -6.000  31.897  0.00  0.00    -0.292 N 
ATOM     11  N   UNL     1      12.493  -6.931  32.608  0.00  0.00    -0.269 N 
ATOM     22  C   UNL     1      13.220  -6.490  31.498  0.00  0.00    +0.304 C 
ATOM     38  H   UNL     1      14.727  -6.078  32.877  0.00  0.00    +0.151 HD
ATOM     39  H   UNL     1      12.945  -6.841  33.515  0.00  0.00    +0.156 HD
BRANCH  11  23
ATOM     23  C   UNL     1      11.195  -7.492  32.628  0.00  0.00    +0.035 A 
ATOM     27  C   UNL     1      10.086  -6.674  32.850  0.00  0.00    +0.027 A 
ATOM     28  C   UNL     1      11.023  -8.862  32.430  0.00  0.00    +0.027 A 
ATOM     31  C   UNL     1       8.805  -7.227  32.872  0.00  0.00    +0.047 A 
ATOM     32  C   UNL     1       9.742  -9.415  32.452  0.00  0.00    +0.047 A 
ATOM     34  C   UNL     1       8.634  -8.597  32.672  0.00  0.00    +0.120 A 
BRANCH  34   5
ATOM      5  O   UNL     1       7.385  -9.136  32.696  0.00  0.00    -0.495 OA
ATOM     36  C   UNL     1       6.285  -8.236  32.564  0.00  0.00    +0.277 C 
ENDBRANCH  34   5
ENDBRANCH  11  23
ENDBRANCH  18   7
BRANCH  17   6
ATOM      6  N   UNL     1      16.103  -8.119  27.230  0.00  0.00    -0.187 N 
ATOM      8  N   UNL     1      15.029  -8.856  27.545  0.00  0.00    -0.041 NA
ATOM      9  N   UNL     1      15.528  -9.106  25.387  0.00  0.00    -0.071 NA
ATOM     10  N   UNL     1      14.681  -9.457  26.414  0.00  0.00    -0.020 NA
ATOM     21  C   UNL     1      16.400  -8.277  25.915  0.00  0.00    +0.342 A 
BRANCH  21   3
ATOM      3  O   UNL     1      17.403  -7.687  25.292  0.00  0.00    -0.423 OA
BRANCH   3  24
ATOM     24  C   UNL     1      17.311  -6.401  24.778  0.00  0.00    +0.132 A 
ATOM     25  C   UNL     1      17.281  -6.203  23.398  0.00  0.00    +0.048 A 
ATOM     26  C   UNL     1      17.249  -5.307  25.641  0.00  0.00    +0.048 A 
ATOM     29  C   UNL     1      17.188  -4.910  22.880  0.00  0.00    +0.031 A 
ATOM     30  C   UNL     1      17.157  -4.015  25.124  0.00  0.00    +0.031 A 
ATOM     33  C   UNL     1      17.126  -3.816  23.743  0.00  0.00    +0.067 A 
BRANCH  33  12
ATOM     12  N   UNL     1      17.034  -2.535  23.232  0.00  0.00    -0.220 N 
ATOM     13  N   UNL     1      16.544  -1.518  23.957  0.00  0.00    -0.154 NA
ATOM     14  N   UNL     1      17.170  -0.835  21.866  0.00  0.00    -0.222 NA
ATOM     35  C   UNL     1      17.404  -2.121  21.990  0.00  0.00    +0.225 A 
ATOM     37  C   UNL     1      16.648  -0.512  23.084  0.00  0.00    +0.245 A 
ENDBRANCH  33  12
ENDBRANCH   3  24
ENDBRANCH  21   3
ENDBRANCH  17   6
TORSDOF 7
ENDMDL
