MODEL 1
REMARK VINA RESULT:      -5.9      0.000      0.000
REMARK  Name = 75536617
REMARK  6 active torsions:
REMARK  status: ('A' for Active; 'I' for Inactive)
REMARK    1  A    between atoms: O_4  and  C_10
REMARK    2  A    between atoms: N_6  and  C_8
REMARK    3  A    between atoms: N_6  and  C_9
REMARK    4  A    between atoms: N_7  and  C_18
REMARK    5  A    between atoms: C_13  and  C_18
REMARK    6  A    between atoms: C_19  and  C_20
REMARK                            x       y       z     vdW  Elec       q    Type
REMARK                         _______ _______ _______ _____ _____    ______ ____
ROOT
ATOM      3  O   UNL     1      -1.356  -2.221  23.533  0.00  0.00    -0.371 OA
ATOM      9  C   UNL     1       0.122  -0.714  24.624  0.00  0.00    +0.111 C 
ATOM     10  C   UNL     1      -1.158  -0.824  25.432  0.00  0.00    +0.164 C 
ATOM     13  C   UNL     1      -1.712  -2.149  24.924  0.00  0.00    +0.165 C 
ATOM     14  C   UNL     1      -0.328  -1.248  23.274  0.00  0.00    +0.181 C 
ENDROOT
BRANCH  10   4
ATOM      4  O   UNL     1      -0.923  -0.851  26.827  0.00  0.00    -0.388 OA
ATOM     27  H   UNL     1      -1.184   0.009  27.197  0.00  0.00    +0.210 HD
ENDBRANCH  10   4
BRANCH   9   6
ATOM      6  N   UNL     1       0.649   0.639  24.550  0.00  0.00    -0.306 NA
ATOM     26  H   UNL     1       1.089   0.797  23.645  0.00  0.00    +0.123 HD
BRANCH   6   8
ATOM      1  F   UNL     1      -2.316   5.284  25.326  0.00  0.00    -0.206 F 
ATOM      2  F   UNL     1      -0.164   5.126  25.058  0.00  0.00    -0.206 F 
ATOM      8  C   UNL     1      -0.413   1.620  24.765  0.00  0.00    +0.054 C 
ATOM     11  C   UNL     1      -0.176   2.364  26.085  0.00  0.00    +0.024 C 
ATOM     12  C   UNL     1      -0.470   2.595  23.581  0.00  0.00    +0.024 C 
ATOM     15  C   UNL     1      -1.227   3.448  26.309  0.00  0.00    +0.077 C 
ATOM     16  C   UNL     1      -1.523   3.678  23.805  0.00  0.00    +0.077 C 
ATOM     17  C   UNL     1      -1.309   4.398  25.126  0.00  0.00    +0.249 C 
ENDBRANCH   6   8
ENDBRANCH   9   6
BRANCH  13  18
ATOM     18  C   UNL     1      -3.219  -2.266  25.074  0.00  0.00    +0.138 C 
BRANCH  18   7
ATOM      5  O   UNL     1      -3.833  -0.217  23.158  0.00  0.00    -0.270 OA
ATOM      7  N   UNL     1      -3.816  -0.991  25.346  0.00  0.00    -0.309 N 
ATOM     19  C   UNL     1      -4.080  -0.054  24.350  0.00  0.00    +0.244 C 
ATOM     28  H   UNL     1      -3.981  -0.765  26.321  0.00  0.00    +0.149 HD
BRANCH  19  20
ATOM     20  C   UNL     1      -4.678   1.230  24.800  0.00  0.00    +0.037 A 
ATOM     21  C   UNL     1      -5.635   1.237  25.814  0.00  0.00    +0.013 A 
ATOM     22  C   UNL     1      -4.280   2.429  24.208  0.00  0.00    +0.013 A 
ATOM     23  C   UNL     1      -6.194   2.442  26.237  0.00  0.00    +0.001 A 
ATOM     24  C   UNL     1      -4.839   3.634  24.631  0.00  0.00    +0.001 A 
ATOM     25  C   UNL     1      -5.797   3.641  25.645  0.00  0.00    +0.000 A 
ENDBRANCH  19  20
ENDBRANCH  18   7
ENDBRANCH  13  18
TORSDOF 6
ENDMDL
MODEL 2
REMARK VINA RESULT:      -5.6      2.457      4.928
REMARK  Name = 75536617
REMARK  6 active torsions:
REMARK  status: ('A' for Active; 'I' for Inactive)
REMARK    1  A    between atoms: O_4  and  C_10
REMARK    2  A    between atoms: N_6  and  C_8
REMARK    3  A    between atoms: N_6  and  C_9
REMARK    4  A    between atoms: N_7  and  C_18
REMARK    5  A    between atoms: C_13  and  C_18
REMARK    6  A    between atoms: C_19  and  C_20
REMARK                            x       y       z     vdW  Elec       q    Type
REMARK                         _______ _______ _______ _____ _____    ______ ____
ROOT
ATOM      3  O   UNL     1      -0.100   3.030  23.385  0.00  0.00    -0.371 OA
ATOM      9  C   UNL     1      -0.850   3.764  25.517  0.00  0.00    +0.111 C 
ATOM     10  C   UNL     1      -0.290   2.359  25.646  0.00  0.00    +0.164 C 
ATOM     13  C   UNL     1       0.583   2.276  24.401  0.00  0.00    +0.165 C 
ATOM     14  C   UNL     1      -1.094   3.854  24.020  0.00  0.00    +0.181 C 
ENDROOT
BRANCH  10   4
ATOM      4  O   UNL     1       0.461   2.177  26.830  0.00  0.00    -0.388 OA
ATOM     27  H   UNL     1      -0.022   1.561  27.407  0.00  0.00    +0.210 HD
ENDBRANCH  10   4
BRANCH   9   6
ATOM      6  N   UNL     1      -2.053   3.986  26.302  0.00  0.00    -0.306 NA
ATOM     26  H   UNL     1      -2.108   4.960  26.596  0.00  0.00    +0.123 HD
BRANCH   6   8
ATOM      1  F   UNL     1      -6.910   1.913  24.546  0.00  0.00    -0.206 F 
ATOM      2  F   UNL     1      -5.966   1.598  26.479  0.00  0.00    -0.206 F 
ATOM      8  C   UNL     1      -3.244   3.631  25.533  0.00  0.00    +0.054 C 
ATOM     11  C   UNL     1      -3.300   2.111  25.332  0.00  0.00    +0.024 C 
ATOM     12  C   UNL     1      -4.500   4.143  26.251  0.00  0.00    +0.024 C 
ATOM     15  C   UNL     1      -4.571   1.695  24.594  0.00  0.00    +0.077 C 
ATOM     16  C   UNL     1      -5.770   3.728  25.512  0.00  0.00    +0.077 C 
ATOM     17  C   UNL     1      -5.816   2.226  25.284  0.00  0.00    +0.249 C 
ENDBRANCH   6   8
ENDBRANCH   9   6
BRANCH  13  18
ATOM     18  C   UNL     1       0.807   0.853  23.919  0.00  0.00    +0.138 C 
BRANCH  18   7
ATOM      5  O   UNL     1       0.042  -1.441  25.467  0.00  0.00    -0.270 OA
ATOM      7  N   UNL     1      -0.430   0.133  23.827  0.00  0.00    -0.309 N 
ATOM     19  C   UNL     1      -0.718  -0.974  24.622  0.00  0.00    +0.244 C 
ATOM     28  H   UNL     1      -1.073   0.424  23.100  0.00  0.00    +0.149 HD
BRANCH  19  20
ATOM     20  C   UNL     1      -2.032  -1.626  24.387  0.00  0.00    +0.037 A 
ATOM     21  C   UNL     1      -3.089  -0.892  23.849  0.00  0.00    +0.013 A 
ATOM     22  C   UNL     1      -2.208  -2.973  24.703  0.00  0.00    +0.013 A 
ATOM     23  C   UNL     1      -4.321  -1.504  23.626  0.00  0.00    +0.001 A 
ATOM     24  C   UNL     1      -3.441  -3.585  24.480  0.00  0.00    +0.001 A 
ATOM     25  C   UNL     1      -4.498  -2.851  23.943  0.00  0.00    +0.000 A 
ENDBRANCH  19  20
ENDBRANCH  18   7
ENDBRANCH  13  18
TORSDOF 6
ENDMDL
MODEL 3
REMARK VINA RESULT:      -4.8      2.643      5.003
REMARK  Name = 75536617
REMARK  6 active torsions:
REMARK  status: ('A' for Active; 'I' for Inactive)
REMARK    1  A    between atoms: O_4  and  C_10
REMARK    2  A    between atoms: N_6  and  C_8
REMARK    3  A    between atoms: N_6  and  C_9
REMARK    4  A    between atoms: N_7  and  C_18
REMARK    5  A    between atoms: C_13  and  C_18
REMARK    6  A    between atoms: C_19  and  C_20
REMARK                            x       y       z     vdW  Elec       q    Type
REMARK                         _______ _______ _______ _____ _____    ______ ____
ROOT
ATOM      3  O   UNL     1      -4.301   3.921  26.977  0.00  0.00    -0.371 OA
ATOM      9  C   UNL     1      -2.608   4.466  25.402  0.00  0.00    +0.111 C 
ATOM     10  C   UNL     1      -3.741   3.756  24.684  0.00  0.00    +0.164 C 
ATOM     13  C   UNL     1      -4.887   3.967  25.665  0.00  0.00    +0.165 C 
ATOM     14  C   UNL     1      -2.877   4.079  26.847  0.00  0.00    +0.181 C 
ENDROOT
BRANCH  10   4
ATOM      4  O   UNL     1      -4.021   4.316  23.416  0.00  0.00    -0.388 OA
ATOM     27  H   UNL     1      -3.260   4.857  23.147  0.00  0.00    +0.210 HD
ENDBRANCH  10   4
BRANCH   9   6
ATOM      6  N   UNL     1      -1.287   4.066  24.945  0.00  0.00    -0.306 NA
ATOM     26  H   UNL     1      -0.584   4.307  25.642  0.00  0.00    +0.123 HD
BRANCH   6   8
ATOM      1  F   UNL     1       0.164  -1.096  23.455  0.00  0.00    -0.206 F 
ATOM      2  F   UNL     1       1.369   0.707  23.298  0.00  0.00    -0.206 F 
ATOM      8  C   UNL     1      -1.247   2.630  24.675  0.00  0.00    +0.054 C 
ATOM     11  C   UNL     1      -1.049   2.388  23.174  0.00  0.00    +0.024 C 
ATOM     12  C   UNL     1      -0.128   1.976  25.496  0.00  0.00    +0.024 C 
ATOM     15  C   UNL     1      -0.930   0.897  22.862  0.00  0.00    +0.077 C 
ATOM     16  C   UNL     1      -0.010   0.486  25.185  0.00  0.00    +0.077 C 
ATOM     17  C   UNL     1       0.157   0.239  23.695  0.00  0.00    +0.249 C 
ENDBRANCH   6   8
ENDBRANCH   9   6
BRANCH  13  18
ATOM     18  C   UNL     1      -5.975   2.914  25.552  0.00  0.00    +0.138 C 
BRANCH  18   7
ATOM      5  O   UNL     1      -4.419   1.643  23.501  0.00  0.00    -0.270 OA
ATOM      7  N   UNL     1      -5.425   1.590  25.592  0.00  0.00    -0.309 N 
ATOM     19  C   UNL     1      -4.679   1.053  24.546  0.00  0.00    +0.244 C 
ATOM     28  H   UNL     1      -5.662   1.023  26.398  0.00  0.00    +0.149 HD
BRANCH  19  20
ATOM     20  C   UNL     1      -4.202  -0.343  24.730  0.00  0.00    +0.037 A 
ATOM     21  C   UNL     1      -4.438  -1.297  23.741  0.00  0.00    +0.013 A 
ATOM     22  C   UNL     1      -3.516  -0.697  25.892  0.00  0.00    +0.013 A 
ATOM     23  C   UNL     1      -3.989  -2.606  23.913  0.00  0.00    +0.001 A 
ATOM     24  C   UNL     1      -3.067  -2.005  26.064  0.00  0.00    +0.001 A 
ATOM     25  C   UNL     1      -3.303  -2.961  25.075  0.00  0.00    +0.000 A 
ENDBRANCH  19  20
ENDBRANCH  18   7
ENDBRANCH  13  18
TORSDOF 6
ENDMDL
MODEL 4
REMARK VINA RESULT:      -3.8      3.016      3.968
REMARK  Name = 75536617
REMARK  6 active torsions:
REMARK  status: ('A' for Active; 'I' for Inactive)
REMARK    1  A    between atoms: O_4  and  C_10
REMARK    2  A    between atoms: N_6  and  C_8
REMARK    3  A    between atoms: N_6  and  C_9
REMARK    4  A    between atoms: N_7  and  C_18
REMARK    5  A    between atoms: C_13  and  C_18
REMARK    6  A    between atoms: C_19  and  C_20
REMARK                            x       y       z     vdW  Elec       q    Type
REMARK                         _______ _______ _______ _____ _____    ______ ____
ROOT
ATOM      3  O   UNL     1      -1.508  -2.676  23.877  0.00  0.00    -0.371 OA
ATOM      9  C   UNL     1       0.158  -1.001  24.131  0.00  0.00    +0.111 C 
ATOM     10  C   UNL     1      -0.994  -0.701  25.073  0.00  0.00    +0.164 C 
ATOM     13  C   UNL     1      -1.657  -2.068  25.171  0.00  0.00    +0.165 C 
ATOM     14  C   UNL     1      -0.500  -1.954  23.147  0.00  0.00    +0.181 C 
ENDROOT
BRANCH  10   4
ATOM      4  O   UNL     1      -0.559  -0.233  26.335  0.00  0.00    -0.388 OA
ATOM     27  H   UNL     1      -1.098   0.539  26.577  0.00  0.00    +0.210 HD
ENDBRANCH  10   4
BRANCH   9   6
ATOM      6  N   UNL     1       0.710   0.181  23.491  0.00  0.00    -0.306 NA
ATOM     26  H   UNL     1       0.715   0.965  24.141  0.00  0.00    +0.123 HD
BRANCH   6   8
ATOM      1  F   UNL     1       6.230  -0.249  22.923  0.00  0.00    -0.206 F 
ATOM      2  F   UNL     1       5.140   0.547  24.628  0.00  0.00    -0.206 F 
ATOM      8  C   UNL     1       2.068  -0.076  23.013  0.00  0.00    +0.054 C 
ATOM     11  C   UNL     1       2.844   1.243  22.916  0.00  0.00    +0.024 C 
ATOM     12  C   UNL     1       2.771  -1.067  23.949  0.00  0.00    +0.024 C 
ATOM     15  C   UNL     1       4.291   1.006  22.488  0.00  0.00    +0.077 C 
ATOM     16  C   UNL     1       4.217  -1.305  23.520  0.00  0.00    +0.077 C 
ATOM     17  C   UNL     1       4.983   0.001  23.395  0.00  0.00    +0.249 C 
ENDBRANCH   6   8
ENDBRANCH   9   6
BRANCH  13  18
ATOM     18  C   UNL     1      -3.128  -1.997  25.538  0.00  0.00    +0.138 C 
BRANCH  18   7
ATOM      5  O   UNL     1      -4.007  -0.322  23.378  0.00  0.00    -0.270 OA
ATOM      7  N   UNL     1      -3.576  -0.638  25.637  0.00  0.00    -0.309 N 
ATOM     19  C   UNL     1      -3.986   0.102  24.531  0.00  0.00    +0.244 C 
ATOM     28  H   UNL     1      -3.516  -0.204  26.551  0.00  0.00    +0.149 HD
BRANCH  19  20
ATOM     20  C   UNL     1      -4.396   1.506  24.796  0.00  0.00    +0.037 A 
ATOM     21  C   UNL     1      -5.581   1.768  25.482  0.00  0.00    +0.013 A 
ATOM     22  C   UNL     1      -3.593   2.560  24.361  0.00  0.00    +0.013 A 
ATOM     23  C   UNL     1      -5.965   3.085  25.733  0.00  0.00    +0.001 A 
ATOM     24  C   UNL     1      -3.977   3.877  24.612  0.00  0.00    +0.001 A 
ATOM     25  C   UNL     1      -5.163   4.140  25.297  0.00  0.00    +0.000 A 
ENDBRANCH  19  20
ENDBRANCH  18   7
ENDBRANCH  13  18
TORSDOF 6
ENDMDL
MODEL 5
REMARK VINA RESULT:      -3.3      3.060      4.769
REMARK  Name = 75536617
REMARK  6 active torsions:
REMARK  status: ('A' for Active; 'I' for Inactive)
REMARK    1  A    between atoms: O_4  and  C_10
REMARK    2  A    between atoms: N_6  and  C_8
REMARK    3  A    between atoms: N_6  and  C_9
REMARK    4  A    between atoms: N_7  and  C_18
REMARK    5  A    between atoms: C_13  and  C_18
REMARK    6  A    between atoms: C_19  and  C_20
REMARK                            x       y       z     vdW  Elec       q    Type
REMARK                         _______ _______ _______ _____ _____    ______ ____
ROOT
ATOM      3  O   UNL     1      -0.173   3.315  26.357  0.00  0.00    -0.371 OA
ATOM      9  C   UNL     1       0.512   1.983  24.513  0.00  0.00    +0.111 C 
ATOM     10  C   UNL     1      -0.411   3.081  24.015  0.00  0.00    +0.164 C 
ATOM     13  C   UNL     1      -0.309   4.088  25.152  0.00  0.00    +0.165 C 
ATOM     14  C   UNL     1       0.190   1.970  25.997  0.00  0.00    +0.181 C 
ENDROOT
BRANCH  10   4
ATOM      4  O   UNL     1       0.011   3.632  22.782  0.00  0.00    -0.388 OA
ATOM     27  H   UNL     1      -0.304   4.550  22.735  0.00  0.00    +0.210 HD
ENDBRANCH  10   4
BRANCH   9   6
ATOM      6  N   UNL     1       0.287   0.698  23.873  0.00  0.00    -0.306 NA
ATOM     26  H   UNL     1       1.173   0.215  23.729  0.00  0.00    +0.123 HD
BRANCH   6   8
ATOM      1  F   UNL     1      -3.713  -2.718  25.690  0.00  0.00    -0.206 F 
ATOM      2  F   UNL     1      -3.345  -2.095  23.639  0.00  0.00    -0.206 F 
ATOM      8  C   UNL     1      -0.607  -0.132  24.679  0.00  0.00    +0.054 C 
ATOM     11  C   UNL     1      -2.046   0.385  24.559  0.00  0.00    +0.024 C 
ATOM     12  C   UNL     1      -0.503  -1.596  24.233  0.00  0.00    +0.024 C 
ATOM     15  C   UNL     1      -3.020  -0.501  25.331  0.00  0.00    +0.077 C 
ATOM     16  C   UNL     1      -1.477  -2.482  25.007  0.00  0.00    +0.077 C 
ATOM     17  C   UNL     1      -2.900  -1.957  24.915  0.00  0.00    +0.249 C 
ENDBRANCH   6   8
ENDBRANCH   9   6
BRANCH  13  18
ATOM     18  C   UNL     1      -1.521   4.997  25.260  0.00  0.00    +0.138 C 
BRANCH  18   7
ATOM      5  O   UNL     1      -3.208   3.611  23.395  0.00  0.00    -0.270 OA
ATOM      7  N   UNL     1      -2.706   4.250  25.569  0.00  0.00    -0.309 N 
ATOM     19  C   UNL     1      -3.466   3.607  24.596  0.00  0.00    +0.244 C 
ATOM     28  H   UNL     1      -3.014   4.266  26.535  0.00  0.00    +0.149 HD
BRANCH  19  20
ATOM     20  C   UNL     1      -4.681   2.898  25.076  0.00  0.00    +0.037 A 
ATOM     21  C   UNL     1      -5.339   1.997  24.240  0.00  0.00    +0.013 A 
ATOM     22  C   UNL     1      -5.161   3.132  26.364  0.00  0.00    +0.013 A 
ATOM     23  C   UNL     1      -6.477   1.329  24.690  0.00  0.00    +0.001 A 
ATOM     24  C   UNL     1      -6.299   2.465  26.815  0.00  0.00    +0.001 A 
ATOM     25  C   UNL     1      -6.958   1.564  25.978  0.00  0.00    +0.000 A 
ENDBRANCH  19  20
ENDBRANCH  18   7
ENDBRANCH  13  18
TORSDOF 6
ENDMDL
MODEL 6
REMARK VINA RESULT:      -2.4      1.070      1.435
REMARK  Name = 75536617
REMARK  6 active torsions:
REMARK  status: ('A' for Active; 'I' for Inactive)
REMARK    1  A    between atoms: O_4  and  C_10
REMARK    2  A    between atoms: N_6  and  C_8
REMARK    3  A    between atoms: N_6  and  C_9
REMARK    4  A    between atoms: N_7  and  C_18
REMARK    5  A    between atoms: C_13  and  C_18
REMARK    6  A    between atoms: C_19  and  C_20
REMARK                            x       y       z     vdW  Elec       q    Type
REMARK                         _______ _______ _______ _____ _____    ______ ____
ROOT
ATOM      3  O   UNL     1      -0.346  -1.418  23.065  0.00  0.00    -0.371 OA
ATOM      9  C   UNL     1       0.712   0.021  24.631  0.00  0.00    +0.111 C 
ATOM     10  C   UNL     1      -0.697  -0.278  25.109  0.00  0.00    +0.164 C 
ATOM     13  C   UNL     1      -1.003  -1.555  24.337  0.00  0.00    +0.165 C 
ATOM     14  C   UNL     1       0.619  -0.355  23.162  0.00  0.00    +0.181 C 
ENDROOT
BRANCH  10   4
ATOM      4  O   UNL     1      -0.770  -0.476  26.507  0.00  0.00    -0.388 OA
ATOM     27  H   UNL     1      -0.018  -1.029  26.777  0.00  0.00    +0.210 HD
ENDBRANCH  10   4
BRANCH   9   6
ATOM      6  N   UNL     1       1.116   1.402  24.837  0.00  0.00    -0.306 NA
ATOM     26  H   UNL     1       1.790   1.683  24.127  0.00  0.00    +0.123 HD
BRANCH   6   8
ATOM      1  F   UNL     1      -2.328   5.773  24.960  0.00  0.00    -0.206 F 
ATOM      2  F   UNL     1      -0.173   5.787  25.247  0.00  0.00    -0.206 F 
ATOM      8  C   UNL     1      -0.044   2.291  24.801  0.00  0.00    +0.054 C 
ATOM     11  C   UNL     1      -0.212   2.984  26.158  0.00  0.00    +0.024 C 
ATOM     12  C   UNL     1       0.119   3.315  23.670  0.00  0.00    +0.024 C 
ATOM     15  C   UNL     1      -1.373   3.976  26.136  0.00  0.00    +0.077 C 
ATOM     16  C   UNL     1      -1.043   4.306  23.647  0.00  0.00    +0.077 C 
ATOM     17  C   UNL     1      -1.232   4.974  24.999  0.00  0.00    +0.249 C 
ENDBRANCH   6   8
ENDBRANCH   9   6
BRANCH  13  18
ATOM     18  C   UNL     1      -2.488  -1.787  24.125  0.00  0.00    +0.138 C 
BRANCH  18   7
ATOM      5  O   UNL     1      -4.144  -1.073  26.359  0.00  0.00    -0.270 OA
ATOM      7  N   UNL     1      -3.233  -0.572  24.283  0.00  0.00    -0.309 N 
ATOM     19  C   UNL     1      -4.013  -0.308  25.406  0.00  0.00    +0.244 C 
ATOM     28  H   UNL     1      -3.225   0.072  23.501  0.00  0.00    +0.149 HD
BRANCH  19  20
ATOM     20  C   UNL     1      -4.745   0.985  25.407  0.00  0.00    +0.037 A 
ATOM     21  C   UNL     1      -4.215   2.087  24.737  0.00  0.00    +0.013 A 
ATOM     22  C   UNL     1      -5.964   1.095  26.076  0.00  0.00    +0.013 A 
ATOM     23  C   UNL     1      -4.903   3.300  24.736  0.00  0.00    +0.001 A 
ATOM     24  C   UNL     1      -6.652   2.308  26.074  0.00  0.00    +0.001 A 
ATOM     25  C   UNL     1      -6.122   3.411  25.405  0.00  0.00    +0.000 A 
ENDBRANCH  19  20
ENDBRANCH  18   7
ENDBRANCH  13  18
TORSDOF 6
ENDMDL
MODEL 7
REMARK VINA RESULT:      -2.2      2.651      4.797
REMARK  Name = 75536617
REMARK  6 active torsions:
REMARK  status: ('A' for Active; 'I' for Inactive)
REMARK    1  A    between atoms: O_4  and  C_10
REMARK    2  A    between atoms: N_6  and  C_8
REMARK    3  A    between atoms: N_6  and  C_9
REMARK    4  A    between atoms: N_7  and  C_18
REMARK    5  A    between atoms: C_13  and  C_18
REMARK    6  A    between atoms: C_19  and  C_20
REMARK                            x       y       z     vdW  Elec       q    Type
REMARK                         _______ _______ _______ _____ _____    ______ ____
ROOT
ATOM      3  O   UNL     1      -3.165   4.853  25.274  0.00  0.00    -0.371 OA
ATOM      9  C   UNL     1      -0.953   4.192  24.715  0.00  0.00    +0.111 C 
ATOM     10  C   UNL     1      -1.917   3.095  24.300  0.00  0.00    +0.164 C 
ATOM     13  C   UNL     1      -3.227   3.868  24.228  0.00  0.00    +0.165 C 
ATOM     14  C   UNL     1      -1.798   4.977  25.704  0.00  0.00    +0.181 C 
ENDROOT
BRANCH  10   4
ATOM      4  O   UNL     1      -1.578   2.512  23.057  0.00  0.00    -0.388 OA
ATOM     27  H   UNL     1      -1.360   3.226  22.434  0.00  0.00    +0.210 HD
ENDBRANCH  10   4
BRANCH   9   6
ATOM      6  N   UNL     1       0.282   3.693  25.297  0.00  0.00    -0.306 NA
ATOM     26  H   UNL     1       0.371   4.008  26.262  0.00  0.00    +0.123 HD
BRANCH   6   8
ATOM      1  F   UNL     1      -0.664  -1.689  24.243  0.00  0.00    -0.206 F 
ATOM      2  F   UNL     1      -1.773   0.017  23.477  0.00  0.00    -0.206 F 
ATOM      8  C   UNL     1       0.325   2.233  25.244  0.00  0.00    +0.054 C 
ATOM     11  C   UNL     1      -0.983   1.653  25.797  0.00  0.00    +0.024 C 
ATOM     12  C   UNL     1       0.573   1.770  23.802  0.00  0.00    +0.024 C 
ATOM     15  C   UNL     1      -1.004   0.130  25.691  0.00  0.00    +0.077 C 
ATOM     16  C   UNL     1       0.553   0.247  23.698  0.00  0.00    +0.077 C 
ATOM     17  C   UNL     1      -0.729  -0.334  24.271  0.00  0.00    +0.249 C 
ENDBRANCH   6   8
ENDBRANCH   9   6
BRANCH  13  18
ATOM     18  C   UNL     1      -4.452   2.992  24.421  0.00  0.00    +0.138 C 
BRANCH  18   7
ATOM      5  O   UNL     1      -5.688   0.861  25.895  0.00  0.00    -0.270 OA
ATOM      7  N   UNL     1      -4.112   1.600  24.360  0.00  0.00    -0.309 N 
ATOM     19  C   UNL     1      -4.768   0.631  25.114  0.00  0.00    +0.244 C 
ATOM     28  H   UNL     1      -3.314   1.352  23.786  0.00  0.00    +0.149 HD
BRANCH  19  20
ATOM     20  C   UNL     1      -4.280  -0.764  24.957  0.00  0.00    +0.037 A 
ATOM     21  C   UNL     1      -3.633  -1.400  26.017  0.00  0.00    +0.013 A 
ATOM     22  C   UNL     1      -4.470  -1.437  23.751  0.00  0.00    +0.013 A 
ATOM     23  C   UNL     1      -3.177  -2.709  25.870  0.00  0.00    +0.001 A 
ATOM     24  C   UNL     1      -4.013  -2.746  23.604  0.00  0.00    +0.001 A 
ATOM     25  C   UNL     1      -3.366  -3.383  24.664  0.00  0.00    +0.000 A 
ENDBRANCH  19  20
ENDBRANCH  18   7
ENDBRANCH  13  18
TORSDOF 6
ENDMDL
MODEL 8
REMARK VINA RESULT:      -2.0      3.668      7.173
REMARK  Name = 75536617
REMARK  6 active torsions:
REMARK  status: ('A' for Active; 'I' for Inactive)
REMARK    1  A    between atoms: O_4  and  C_10
REMARK    2  A    between atoms: N_6  and  C_8
REMARK    3  A    between atoms: N_6  and  C_9
REMARK    4  A    between atoms: N_7  and  C_18
REMARK    5  A    between atoms: C_13  and  C_18
REMARK    6  A    between atoms: C_19  and  C_20
REMARK                            x       y       z     vdW  Elec       q    Type
REMARK                         _______ _______ _______ _____ _____    ______ ____
ROOT
ATOM      3  O   UNL     1      -0.547   3.857  23.516  0.00  0.00    -0.371 OA
ATOM      9  C   UNL     1      -1.452   4.024  25.706  0.00  0.00    +0.111 C 
ATOM     10  C   UNL     1      -0.890   2.627  25.508  0.00  0.00    +0.164 C 
ATOM     13  C   UNL     1       0.069   2.860  24.348  0.00  0.00    +0.165 C 
ATOM     14  C   UNL     1      -1.591   4.499  24.269  0.00  0.00    +0.181 C 
ENDROOT
BRANCH  10   4
ATOM      4  O   UNL     1      -0.223   2.139  26.655  0.00  0.00    -0.388 OA
ATOM     27  H   UNL     1      -0.866   1.653  27.198  0.00  0.00    +0.210 HD
ENDBRANCH  10   4
BRANCH   9   6
ATOM      6  N   UNL     1      -2.709   4.047  26.435  0.00  0.00    -0.306 NA
ATOM     26  H   UNL     1      -2.913   4.993  26.757  0.00  0.00    +0.123 HD
BRANCH   6   8
ATOM      1  F   UNL     1      -7.230   1.508  24.412  0.00  0.00    -0.206 F 
ATOM      2  F   UNL     1      -6.423   1.354  26.426  0.00  0.00    -0.206 F 
ATOM      8  C   UNL     1      -3.803   3.562  25.595  0.00  0.00    +0.054 C 
ATOM     11  C   UNL     1      -3.723   2.036  25.465  0.00  0.00    +0.024 C 
ATOM     12  C   UNL     1      -5.149   3.999  26.187  0.00  0.00    +0.024 C 
ATOM     15  C   UNL     1      -4.892   1.486  24.652  0.00  0.00    +0.077 C 
ATOM     16  C   UNL     1      -6.318   3.449  25.373  0.00  0.00    +0.077 C 
ATOM     17  C   UNL     1      -6.227   1.941  25.217  0.00  0.00    +0.249 C 
ENDBRANCH   6   8
ENDBRANCH   9   6
BRANCH  13  18
ATOM     18  C   UNL     1       0.340   1.608  23.533  0.00  0.00    +0.138 C 
BRANCH  18   7
ATOM      5  O   UNL     1       1.790  -0.191  21.827  0.00  0.00    -0.270 OA
ATOM      7  N   UNL     1       1.681   1.139  23.727  0.00  0.00    -0.309 N 
ATOM     19  C   UNL     1       2.308   0.263  22.844  0.00  0.00    +0.244 C 
ATOM     28  H   UNL     1       2.142   1.420  24.585  0.00  0.00    +0.149 HD
BRANCH  19  20
ATOM     20  C   UNL     1       3.691  -0.149  23.201  0.00  0.00    +0.037 A 
ATOM     21  C   UNL     1       4.753   0.736  23.016  0.00  0.00    +0.013 A 
ATOM     22  C   UNL     1       3.926  -1.420  23.723  0.00  0.00    +0.013 A 
ATOM     23  C   UNL     1       6.049   0.350  23.352  0.00  0.00    +0.001 A 
ATOM     24  C   UNL     1       5.223  -1.806  24.060  0.00  0.00    +0.001 A 
ATOM     25  C   UNL     1       6.285  -0.922  23.874  0.00  0.00    +0.000 A 
ENDBRANCH  19  20
ENDBRANCH  18   7
ENDBRANCH  13  18
TORSDOF 6
ENDMDL
