MODEL 1
REMARK VINA RESULT:       3.6      0.000      0.000
REMARK  Name = 45361432
REMARK  13 active torsions:
REMARK  status: ('A' for Active; 'I' for Inactive)
REMARK    1  A    between atoms: O_1  and  C_10
REMARK    2  A    between atoms: N_4  and  C_14
REMARK    3  A    between atoms: N_5  and  C_23
REMARK    4  A    between atoms: C_7  and  C_17
REMARK    5  A    between atoms: C_9  and  C_19
REMARK    6  A    between atoms: C_12  and  C_18
REMARK    7  A    between atoms: C_18  and  C_20
REMARK    8  A    between atoms: C_18  and  C_21
REMARK    9  A    between atoms: C_22  and  C_24
REMARK   10  A    between atoms: C_23  and  C_25
REMARK   11  A    between atoms: C_23  and  C_26
REMARK   12  A    between atoms: C_23  and  C_27
REMARK   13  A    between atoms: C_32  and  C_33
REMARK                            x       y       z     vdW  Elec       q    Type
REMARK                         _______ _______ _______ _____ _____    ______ ____
ROOT
ATOM      7  C   UNL     1      -2.924  -1.249  25.032  0.00  0.00    -0.027 C 
ATOM      8  C   UNL     1      -2.597   0.043  24.210  0.00  0.00    +0.028 C 
ATOM      9  C   UNL     1      -1.052   0.323  24.202  0.00  0.00    +0.012 C 
ATOM     10  C   UNL     1      -3.491   1.236  24.656  0.00  0.00    +0.122 C 
ATOM     11  C   UNL     1      -4.435  -1.560  24.925  0.00  0.00    +0.007 C 
ATOM     12  C   UNL     1      -4.997   0.885  24.647  0.00  0.00    +0.029 C 
ATOM     13  C   UNL     1      -2.154  -2.443  24.421  0.00  0.00    +0.009 C 
ATOM     14  C   UNL     1      -0.283  -0.912  23.656  0.00  0.00    +0.076 C 
ATOM     15  C   UNL     1      -5.314  -0.408  25.397  0.00  0.00    +0.007 C 
ATOM     16  C   UNL     1      -0.649  -2.217  24.362  0.00  0.00    +0.023 C 
ATOM     17  C   UNL     1      -2.548  -1.112  26.529  0.00  0.00    +0.011 C 
ATOM     19  C   UNL     1      -0.656   1.567  23.387  0.00  0.00    +0.010 C 
ENDROOT
BRANCH  14   4
ATOM      3  O   UNL     1       1.505  -0.318  21.489  0.00  0.00    -0.270 OA
ATOM      4  N   UNL     1       1.152  -0.732  23.743  0.00  0.00    -0.308 N 
ATOM     22  C   UNL     1       1.931  -0.446  22.634  0.00  0.00    +0.244 C 
ATOM     34  H   UNL     1       1.586  -0.938  24.637  0.00  0.00    +0.149 HD
BRANCH  22  24
ATOM     24  C   UNL     1       3.388  -0.317  22.885  0.00  0.00    +0.037 A 
ATOM     28  C   UNL     1       4.070  -1.324  23.569  0.00  0.00    +0.014 A 
ATOM     29  C   UNL     1       4.077   0.810  22.437  0.00  0.00    +0.014 A 
ATOM     30  C   UNL     1       5.440  -1.204  23.804  0.00  0.00    +0.019 A 
ATOM     31  C   UNL     1       5.446   0.931  22.671  0.00  0.00    +0.019 A 
ATOM     32  C   UNL     1       6.128  -0.076  23.354  0.00  0.00    +0.052 A 
BRANCH  32  33
ATOM      6  N   UNL     1       8.671   0.148  23.791  0.00  0.00    -0.191 NA
ATOM     33  C   UNL     1       7.531   0.048  23.596  0.00  0.00    +0.099 C 
ENDBRANCH  32  33
ENDBRANCH  22  24
ENDBRANCH  14   4
BRANCH  10   1
ATOM      1  O   UNL     1      -3.320   2.325  23.749  0.00  0.00    -0.391 OA
ATOM     35  H   UNL     1      -2.583   2.872  24.071  0.00  0.00    +0.210 HD
ENDBRANCH  10   1
BRANCH  12  18
ATOM     18  C   UNL     1      -5.850   2.027  25.212  0.00  0.00    +0.077 C 
ATOM     20  C   UNL     1      -7.028   2.310  24.286  0.00  0.00    +0.017 C 
BRANCH  18  21
ATOM      2  O   UNL     1      -5.375   4.400  25.121  0.00  0.00    -0.275 OA
ATOM      5  N   UNL     1      -3.745   2.974  25.950  0.00  0.00    -0.310 N 
ATOM     21  C   UNL     1      -4.989   3.270  25.413  0.00  0.00    +0.217 C 
ATOM     36  H   UNL     1      -3.512   2.004  26.144  0.00  0.00    +0.149 HD
BRANCH   5  23
ATOM     23  C   UNL     1      -2.752   3.986  26.228  0.00  0.00    +0.026 C 
ATOM     25  C   UNL     1      -2.630   4.922  25.020  0.00  0.00    +0.031 C 
ATOM     26  C   UNL     1      -3.185   4.785  27.461  0.00  0.00    +0.031 C 
ATOM     27  C   UNL     1      -1.402   3.311  26.494  0.00  0.00    +0.031 C 
ENDBRANCH   5  23
ENDBRANCH  18  21
ENDBRANCH  12  18
TORSDOF 7
ENDMDL
