MODEL 1
REMARK VINA RESULT:      -5.5      0.000      0.000
REMARK  Name = 75536634
REMARK  8 active torsions:
REMARK  status: ('A' for Active; 'I' for Inactive)
REMARK    1  A    between atoms: O_3  and  C_8
REMARK    2  A    between atoms: N_5  and  C_7
REMARK    3  A    between atoms: N_5  and  C_12
REMARK    4  A    between atoms: N_6  and  C_11
REMARK    5  A    between atoms: C_9  and  C_11
REMARK    6  A    between atoms: C_12  and  C_13
REMARK    7  A    between atoms: C_12  and  C_14
REMARK    8  A    between atoms: C_15  and  C_16
REMARK                            x       y       z     vdW  Elec       q    Type
REMARK                         _______ _______ _______ _____ _____    ______ ____
ROOT
ATOM      2  O   UNL     1      -1.436  -2.110  23.631  0.00  0.00    -0.371 OA
ATOM      7  C   UNL     1       0.076  -0.617  24.692  0.00  0.00    +0.111 C 
ATOM      8  C   UNL     1      -1.195  -0.703  25.517  0.00  0.00    +0.164 C 
ATOM      9  C   UNL     1      -1.775  -2.022  25.025  0.00  0.00    +0.165 C 
ATOM     10  C   UNL     1      -0.399  -1.154  23.352  0.00  0.00    +0.181 C 
ENDROOT
BRANCH   8   3
ATOM      3  O   UNL     1      -0.942  -0.723  26.909  0.00  0.00    -0.388 OA
ATOM     23  H   UNL     1      -1.482  -0.030  27.327  0.00  0.00    +0.210 HD
ENDBRANCH   8   3
BRANCH   7   5
ATOM      5  N   UNL     1       0.622   0.728  24.602  0.00  0.00    -0.307 NA
ATOM     22  H   UNL     1       0.959   0.907  23.657  0.00  0.00    +0.123 HD
BRANCH   5  12
ATOM     12  C   UNL     1      -0.375   1.726  24.970  0.00  0.00    +0.048 C 
ATOM     13  C   UNL     1       0.105   2.496  26.196  0.00  0.00    +0.023 C 
ATOM     14  C   UNL     1      -0.638   2.668  23.799  0.00  0.00    +0.023 C 
ENDBRANCH   5  12
ENDBRANCH   7   5
BRANCH   9  11
ATOM     11  C   UNL     1      -3.280  -2.117  25.196  0.00  0.00    +0.138 C 
BRANCH  11   6
ATOM      4  O   UNL     1      -3.744  -0.111  23.194  0.00  0.00    -0.270 OA
ATOM      6  N   UNL     1      -3.865  -0.822  25.400  0.00  0.00    -0.309 N 
ATOM     15  C   UNL     1      -4.053   0.090  24.366  0.00  0.00    +0.244 C 
ATOM     24  H   UNL     1      -4.077  -0.565  26.357  0.00  0.00    +0.149 HD
BRANCH  15  16
ATOM      1  F   UNL     1      -6.301   5.032  25.798  0.00  0.00    -0.205 F 
ATOM     16  C   UNL     1      -4.647   1.398  24.745  0.00  0.00    +0.037 A 
ATOM     17  C   UNL     1      -4.096   2.583  24.256  0.00  0.00    +0.016 A 
ATOM     18  C   UNL     1      -5.756   1.441  25.591  0.00  0.00    +0.016 A 
ATOM     19  C   UNL     1      -4.655   3.810  24.611  0.00  0.00    +0.039 A 
ATOM     20  C   UNL     1      -6.314   2.669  25.946  0.00  0.00    +0.039 A 
ATOM     21  C   UNL     1      -5.764   3.853  25.457  0.00  0.00    +0.123 A 
ENDBRANCH  15  16
ENDBRANCH  11   6
ENDBRANCH   9  11
TORSDOF 6
ENDMDL
MODEL 2
REMARK VINA RESULT:      -5.1     13.711     16.051
REMARK  Name = 75536634
REMARK  8 active torsions:
REMARK  status: ('A' for Active; 'I' for Inactive)
REMARK    1  A    between atoms: O_3  and  C_8
REMARK    2  A    between atoms: N_5  and  C_7
REMARK    3  A    between atoms: N_5  and  C_12
REMARK    4  A    between atoms: N_6  and  C_11
REMARK    5  A    between atoms: C_9  and  C_11
REMARK    6  A    between atoms: C_12  and  C_13
REMARK    7  A    between atoms: C_12  and  C_14
REMARK    8  A    between atoms: C_15  and  C_16
REMARK                            x       y       z     vdW  Elec       q    Type
REMARK                         _______ _______ _______ _____ _____    ______ ____
ROOT
ATOM      2  O   UNL     1      -5.190 -10.642  18.711  0.00  0.00    -0.371 OA
ATOM      7  C   UNL     1      -7.344  -9.954  17.983  0.00  0.00    +0.111 C 
ATOM      8  C   UNL     1      -6.372  -9.846  16.823  0.00  0.00    +0.164 C 
ATOM      9  C   UNL     1      -5.262 -10.781  17.282  0.00  0.00    +0.165 C 
ATOM     10  C   UNL     1      -6.393 -10.001  19.169  0.00  0.00    +0.181 C 
ENDROOT
BRANCH   8   3
ATOM      3  O   UNL     1      -6.939 -10.261  15.595  0.00  0.00    -0.388 OA
ATOM     23  H   UNL     1      -6.256 -10.732  15.088  0.00  0.00    +0.210 HD
ENDBRANCH   8   3
BRANCH   7   5
ATOM      5  N   UNL     1      -8.288  -8.851  18.058  0.00  0.00    -0.307 NA
ATOM     22  H   UNL     1      -7.923  -8.042  17.558  0.00  0.00    +0.123 HD
BRANCH   5  12
ATOM     12  C   UNL     1      -9.584  -9.231  17.509  0.00  0.00    +0.048 C 
ATOM     13  C   UNL     1     -10.430  -9.877  18.602  0.00  0.00    +0.023 C 
ATOM     14  C   UNL     1     -10.287  -8.011  16.921  0.00  0.00    +0.023 C 
ENDBRANCH   5  12
ENDBRANCH   7   5
BRANCH   9  11
ATOM     11  C   UNL     1      -3.912 -10.460  16.665  0.00  0.00    +0.138 C 
BRANCH  11   6
ATOM      4  O   UNL     1      -1.808 -10.780  14.738  0.00  0.00    -0.270 OA
ATOM      6  N   UNL     1      -4.017 -10.283  15.245  0.00  0.00    -0.309 N 
ATOM     15  C   UNL     1      -2.940 -10.461  14.383  0.00  0.00    +0.244 C 
ATOM     24  H   UNL     1      -4.908  -9.951  14.893  0.00  0.00    +0.149 HD
BRANCH  15  16
ATOM      1  F   UNL     1      -3.941  -9.532   8.936  0.00  0.00    -0.205 F 
ATOM     16  C   UNL     1      -3.205 -10.215  12.942  0.00  0.00    +0.037 A 
ATOM     17  C   UNL     1      -4.518 -10.133  12.478  0.00  0.00    +0.016 A 
ATOM     18  C   UNL     1      -2.141 -10.068  12.052  0.00  0.00    +0.016 A 
ATOM     19  C   UNL     1      -4.767  -9.902  11.125  0.00  0.00    +0.039 A 
ATOM     20  C   UNL     1      -2.389  -9.837  10.700  0.00  0.00    +0.039 A 
ATOM     21  C   UNL     1      -3.702  -9.755  10.236  0.00  0.00    +0.123 A 
ENDBRANCH  15  16
ENDBRANCH  11   6
ENDBRANCH   9  11
TORSDOF 6
ENDMDL
MODEL 3
REMARK VINA RESULT:      -4.9      3.152      5.426
REMARK  Name = 75536634
REMARK  8 active torsions:
REMARK  status: ('A' for Active; 'I' for Inactive)
REMARK    1  A    between atoms: O_3  and  C_8
REMARK    2  A    between atoms: N_5  and  C_7
REMARK    3  A    between atoms: N_5  and  C_12
REMARK    4  A    between atoms: N_6  and  C_11
REMARK    5  A    between atoms: C_9  and  C_11
REMARK    6  A    between atoms: C_12  and  C_13
REMARK    7  A    between atoms: C_12  and  C_14
REMARK    8  A    between atoms: C_15  and  C_16
REMARK                            x       y       z     vdW  Elec       q    Type
REMARK                         _______ _______ _______ _____ _____    ______ ____
ROOT
ATOM      2  O   UNL     1      -0.109   4.186  24.812  0.00  0.00    -0.371 OA
ATOM      7  C   UNL     1      -2.402   4.691  25.164  0.00  0.00    +0.111 C 
ATOM      8  C   UNL     1      -2.015   3.514  26.040  0.00  0.00    +0.164 C 
ATOM      9  C   UNL     1      -0.502   3.676  26.097  0.00  0.00    +0.165 C 
ATOM     10  C   UNL     1      -1.277   4.689  24.142  0.00  0.00    +0.181 C 
ENDROOT
BRANCH   8   3
ATOM      3  O   UNL     1      -2.602   3.574  27.326  0.00  0.00    -0.388 OA
ATOM     23  H   UNL     1      -3.504   3.925  27.234  0.00  0.00    +0.210 HD
ENDBRANCH   8   3
BRANCH   7   5
ATOM      5  N   UNL     1      -3.718   4.560  24.559  0.00  0.00    -0.307 NA
ATOM     22  H   UNL     1      -3.740   5.041  23.661  0.00  0.00    +0.123 HD
BRANCH   5  12
ATOM     12  C   UNL     1      -4.076   3.158  24.380  0.00  0.00    +0.048 C 
ATOM     13  C   UNL     1      -5.451   2.903  24.989  0.00  0.00    +0.023 C 
ATOM     14  C   UNL     1      -4.055   2.792  22.898  0.00  0.00    +0.023 C 
ENDBRANCH   5  12
ENDBRANCH   7   5
BRANCH   9  11
ATOM     11  C   UNL     1       0.230   2.377  26.382  0.00  0.00    +0.138 C 
BRANCH  11   6
ATOM      4  O   UNL     1      -0.159   1.156  23.812  0.00  0.00    -0.270 OA
ATOM      6  N   UNL     1      -0.593   1.239  26.090  0.00  0.00    -0.309 N 
ATOM     15  C   UNL     1      -0.723   0.712  24.809  0.00  0.00    +0.244 C 
ATOM     24  H   UNL     1      -1.143   0.867  26.857  0.00  0.00    +0.149 HD
BRANCH  15  16
ATOM      1  F   UNL     1      -4.168  -3.691  24.276  0.00  0.00    -0.205 F 
ATOM     16  C   UNL     1      -1.634  -0.453  24.668  0.00  0.00    +0.037 A 
ATOM     17  C   UNL     1      -1.112  -1.746  24.619  0.00  0.00    +0.016 A 
ATOM     18  C   UNL     1      -3.012  -0.254  24.582  0.00  0.00    +0.016 A 
ATOM     19  C   UNL     1      -1.967  -2.839  24.487  0.00  0.00    +0.039 A 
ATOM     20  C   UNL     1      -3.868  -1.348  24.450  0.00  0.00    +0.039 A 
ATOM     21  C   UNL     1      -3.346  -2.640  24.402  0.00  0.00    +0.123 A 
ENDBRANCH  15  16
ENDBRANCH  11   6
ENDBRANCH   9  11
TORSDOF 6
ENDMDL
MODEL 4
REMARK VINA RESULT:      -4.6      3.128      5.438
REMARK  Name = 75536634
REMARK  8 active torsions:
REMARK  status: ('A' for Active; 'I' for Inactive)
REMARK    1  A    between atoms: O_3  and  C_8
REMARK    2  A    between atoms: N_5  and  C_7
REMARK    3  A    between atoms: N_5  and  C_12
REMARK    4  A    between atoms: N_6  and  C_11
REMARK    5  A    between atoms: C_9  and  C_11
REMARK    6  A    between atoms: C_12  and  C_13
REMARK    7  A    between atoms: C_12  and  C_14
REMARK    8  A    between atoms: C_15  and  C_16
REMARK                            x       y       z     vdW  Elec       q    Type
REMARK                         _______ _______ _______ _____ _____    ______ ____
ROOT
ATOM      2  O   UNL     1      -4.813   3.473  26.639  0.00  0.00    -0.371 OA
ATOM      7  C   UNL     1      -3.072   4.631  25.513  0.00  0.00    +0.111 C 
ATOM      8  C   UNL     1      -3.687   3.619  24.564  0.00  0.00    +0.164 C 
ATOM      9  C   UNL     1      -5.040   3.385  25.222  0.00  0.00    +0.165 C 
ATOM     10  C   UNL     1      -3.540   4.104  26.860  0.00  0.00    +0.181 C 
ENDROOT
BRANCH   8   3
ATOM      3  O   UNL     1      -3.820   4.117  23.246  0.00  0.00    -0.388 OA
ATOM     23  H   UNL     1      -3.006   4.598  23.019  0.00  0.00    +0.210 HD
ENDBRANCH   8   3
BRANCH   7   5
ATOM      5  N   UNL     1      -1.624   4.719  25.412  0.00  0.00    -0.307 NA
ATOM     22  H   UNL     1      -1.232   5.062  26.288  0.00  0.00    +0.123 HD
BRANCH   5  12
ATOM     12  C   UNL     1      -1.041   3.425  25.079  0.00  0.00    +0.048 C 
ATOM     13  C   UNL     1      -0.119   3.578  23.874  0.00  0.00    +0.023 C 
ATOM     14  C   UNL     1      -0.286   2.860  26.280  0.00  0.00    +0.023 C 
ENDBRANCH   5  12
ENDBRANCH   7   5
BRANCH   9  11
ATOM     11  C   UNL     1      -5.648   2.036  24.881  0.00  0.00    +0.138 C 
BRANCH  11   6
ATOM      4  O   UNL     1      -3.594   1.223  23.047  0.00  0.00    -0.270 OA
ATOM      6  N   UNL     1      -4.702   0.975  25.071  0.00  0.00    -0.309 N 
ATOM     15  C   UNL     1      -3.736   0.649  24.124  0.00  0.00    +0.244 C 
ATOM     24  H   UNL     1      -4.811   0.414  25.909  0.00  0.00    +0.149 HD
BRANCH  15  16
ATOM      1  F   UNL     1      -0.378  -3.669  25.392  0.00  0.00    -0.205 F 
ATOM     16  C   UNL     1      -2.848  -0.494  24.460  0.00  0.00    +0.037 A 
ATOM     17  C   UNL     1      -1.534  -0.260  24.867  0.00  0.00    +0.016 A 
ATOM     18  C   UNL     1      -3.326  -1.801  24.366  0.00  0.00    +0.016 A 
ATOM     19  C   UNL     1      -0.700  -1.332  25.182  0.00  0.00    +0.039 A 
ATOM     20  C   UNL     1      -2.492  -2.873  24.681  0.00  0.00    +0.039 A 
ATOM     21  C   UNL     1      -1.179  -2.639  25.089  0.00  0.00    +0.123 A 
ENDBRANCH  15  16
ENDBRANCH  11   6
ENDBRANCH   9  11
TORSDOF 6
ENDMDL
MODEL 5
REMARK VINA RESULT:      -4.6      3.172      5.850
REMARK  Name = 75536634
REMARK  8 active torsions:
REMARK  status: ('A' for Active; 'I' for Inactive)
REMARK    1  A    between atoms: O_3  and  C_8
REMARK    2  A    between atoms: N_5  and  C_7
REMARK    3  A    between atoms: N_5  and  C_12
REMARK    4  A    between atoms: N_6  and  C_11
REMARK    5  A    between atoms: C_9  and  C_11
REMARK    6  A    between atoms: C_12  and  C_13
REMARK    7  A    between atoms: C_12  and  C_14
REMARK    8  A    between atoms: C_15  and  C_16
REMARK                            x       y       z     vdW  Elec       q    Type
REMARK                         _______ _______ _______ _____ _____    ______ ____
ROOT
ATOM      2  O   UNL     1      -2.640   4.348  24.053  0.00  0.00    -0.371 OA
ATOM      7  C   UNL     1      -4.518   4.432  25.503  0.00  0.00    +0.111 C 
ATOM      8  C   UNL     1      -3.401   3.663  26.185  0.00  0.00    +0.164 C 
ATOM      9  C   UNL     1      -2.190   4.154  25.404  0.00  0.00    +0.165 C 
ATOM     10  C   UNL     1      -4.077   4.378  24.050  0.00  0.00    +0.181 C 
ENDROOT
BRANCH   8   3
ATOM      3  O   UNL     1      -3.297   3.960  27.564  0.00  0.00    -0.388 OA
ATOM     23  H   UNL     1      -2.802   4.792  27.660  0.00  0.00    +0.210 HD
ENDBRANCH   8   3
BRANCH   7   5
ATOM      5  N   UNL     1      -5.836   3.856  25.716  0.00  0.00    -0.307 NA
ATOM     22  H   UNL     1      -6.466   4.134  24.966  0.00  0.00    +0.123 HD
BRANCH   5  12
ATOM     12  C   UNL     1      -5.768   2.401  25.793  0.00  0.00    +0.048 C 
ATOM     13  C   UNL     1      -6.505   1.922  27.040  0.00  0.00    +0.023 C 
ATOM     14  C   UNL     1      -6.358   1.776  24.532  0.00  0.00    +0.023 C 
ENDBRANCH   5  12
ENDBRANCH   7   5
BRANCH   9  11
ATOM     11  C   UNL     1      -1.027   3.177  25.424  0.00  0.00    +0.138 C 
BRANCH  11   6
ATOM      4  O   UNL     1      -1.706   1.698  23.058  0.00  0.00    -0.270 OA
ATOM      6  N   UNL     1      -1.486   1.819  25.365  0.00  0.00    -0.309 N 
ATOM     15  C   UNL     1      -1.792   1.179  24.169  0.00  0.00    +0.244 C 
ATOM     24  H   UNL     1      -1.647   1.355  26.252  0.00  0.00    +0.149 HD
BRANCH  15  16
ATOM      1  F   UNL     1      -3.632  -4.110  24.584  0.00  0.00    -0.205 F 
ATOM     16  C   UNL     1      -2.279  -0.221  24.279  0.00  0.00    +0.037 A 
ATOM     17  C   UNL     1      -3.632  -0.506  24.088  0.00  0.00    +0.016 A 
ATOM     18  C   UNL     1      -1.385  -1.249  24.574  0.00  0.00    +0.016 A 
ATOM     19  C   UNL     1      -4.089  -1.819  24.191  0.00  0.00    +0.039 A 
ATOM     20  C   UNL     1      -1.842  -2.563  24.677  0.00  0.00    +0.039 A 
ATOM     21  C   UNL     1      -3.193  -2.848  24.486  0.00  0.00    +0.123 A 
ENDBRANCH  15  16
ENDBRANCH  11   6
ENDBRANCH   9  11
TORSDOF 6
ENDMDL
MODEL 6
REMARK VINA RESULT:      -4.1      1.322      2.046
REMARK  Name = 75536634
REMARK  8 active torsions:
REMARK  status: ('A' for Active; 'I' for Inactive)
REMARK    1  A    between atoms: O_3  and  C_8
REMARK    2  A    between atoms: N_5  and  C_7
REMARK    3  A    between atoms: N_5  and  C_12
REMARK    4  A    between atoms: N_6  and  C_11
REMARK    5  A    between atoms: C_9  and  C_11
REMARK    6  A    between atoms: C_12  and  C_13
REMARK    7  A    between atoms: C_12  and  C_14
REMARK    8  A    between atoms: C_15  and  C_16
REMARK                            x       y       z     vdW  Elec       q    Type
REMARK                         _______ _______ _______ _____ _____    ______ ____
ROOT
ATOM      2  O   UNL     1      -1.622  -2.810  24.043  0.00  0.00    -0.371 OA
ATOM      7  C   UNL     1      -0.028  -1.071  24.319  0.00  0.00    +0.111 C 
ATOM      8  C   UNL     1      -1.225  -0.791  25.209  0.00  0.00    +0.164 C 
ATOM      9  C   UNL     1      -1.842  -2.179  25.315  0.00  0.00    +0.165 C 
ATOM     10  C   UNL     1      -0.612  -2.071  23.334  0.00  0.00    +0.181 C 
ENDROOT
BRANCH   8   3
ATOM      3  O   UNL     1      -0.857  -0.278  26.475  0.00  0.00    -0.388 OA
ATOM     23  H   UNL     1      -1.299   0.579  26.596  0.00  0.00    +0.210 HD
ENDBRANCH   8   3
BRANCH   7   5
ATOM      5  N   UNL     1       0.507   0.115  23.671  0.00  0.00    -0.307 NA
ATOM     22  H   UNL     1       0.704   0.835  24.365  0.00  0.00    +0.123 HD
BRANCH   5  12
ATOM     12  C   UNL     1       1.719  -0.197  22.922  0.00  0.00    +0.048 C 
ATOM     13  C   UNL     1       1.369  -0.399  21.451  0.00  0.00    +0.023 C 
ATOM     14  C   UNL     1       2.748   0.917  23.093  0.00  0.00    +0.023 C 
ENDBRANCH   5  12
ENDBRANCH   7   5
BRANCH   9  11
ATOM     11  C   UNL     1      -3.328  -2.153  25.625  0.00  0.00    +0.138 C 
BRANCH  11   6
ATOM      4  O   UNL     1      -4.054  -0.435  23.442  0.00  0.00    -0.270 OA
ATOM      6  N   UNL     1      -3.818  -0.807  25.720  0.00  0.00    -0.309 N 
ATOM     15  C   UNL     1      -4.147  -0.045  24.603  0.00  0.00    +0.244 C 
ATOM     24  H   UNL     1      -3.851  -0.400  26.648  0.00  0.00    +0.149 HD
BRANCH  15  16
ATOM      1  F   UNL     1      -5.917   5.189  25.605  0.00  0.00    -0.205 F 
ATOM     16  C   UNL     1      -4.615   1.340  24.868  0.00  0.00    +0.037 A 
ATOM     17  C   UNL     1      -5.773   1.553  25.617  0.00  0.00    +0.016 A 
ATOM     18  C   UNL     1      -3.898   2.426  24.367  0.00  0.00    +0.016 A 
ATOM     19  C   UNL     1      -6.213   2.853  25.866  0.00  0.00    +0.039 A 
ATOM     20  C   UNL     1      -4.338   3.726  24.617  0.00  0.00    +0.039 A 
ATOM     21  C   UNL     1      -5.495   3.940  25.365  0.00  0.00    +0.123 A 
ENDBRANCH  15  16
ENDBRANCH  11   6
ENDBRANCH   9  11
TORSDOF 6
ENDMDL
MODEL 7
REMARK VINA RESULT:      -4.0     14.301     16.027
REMARK  Name = 75536634
REMARK  8 active torsions:
REMARK  status: ('A' for Active; 'I' for Inactive)
REMARK    1  A    between atoms: O_3  and  C_8
REMARK    2  A    between atoms: N_5  and  C_7
REMARK    3  A    between atoms: N_5  and  C_12
REMARK    4  A    between atoms: N_6  and  C_11
REMARK    5  A    between atoms: C_9  and  C_11
REMARK    6  A    between atoms: C_12  and  C_13
REMARK    7  A    between atoms: C_12  and  C_14
REMARK    8  A    between atoms: C_15  and  C_16
REMARK                            x       y       z     vdW  Elec       q    Type
REMARK                         _______ _______ _______ _____ _____    ______ ____
ROOT
ATOM      2  O   UNL     1      -6.315 -10.370  17.934  0.00  0.00    -0.371 OA
ATOM      7  C   UNL     1      -7.716  -9.803  16.103  0.00  0.00    +0.111 C 
ATOM      8  C   UNL     1      -6.285  -9.928  15.611  0.00  0.00    +0.164 C 
ATOM      9  C   UNL     1      -5.669 -10.775  16.716  0.00  0.00    +0.165 C 
ATOM     10  C   UNL     1      -7.507  -9.638  17.599  0.00  0.00    +0.181 C 
ENDROOT
BRANCH   8   3
ATOM      3  O   UNL     1      -6.195 -10.559  14.348  0.00  0.00    -0.388 OA
ATOM     23  H   UNL     1      -5.292 -10.904  14.244  0.00  0.00    +0.210 HD
ENDBRANCH   8   3
BRANCH   7   5
ATOM      5  N   UNL     1      -8.442  -8.693  15.507  0.00  0.00    -0.307 NA
ATOM     22  H   UNL     1      -8.559  -8.846  14.507  0.00  0.00    +0.123 HD
BRANCH   5  12
ATOM     12  C   UNL     1      -9.744  -8.518  16.138  0.00  0.00    +0.048 C 
ATOM     13  C   UNL     1     -10.421  -7.273  15.572  0.00  0.00    +0.023 C 
ATOM     14  C   UNL     1     -10.607  -9.758  15.923  0.00  0.00    +0.023 C 
ENDBRANCH   5  12
ENDBRANCH   7   5
BRANCH   9  11
ATOM     11  C   UNL     1      -4.168 -10.594  16.845  0.00  0.00    +0.138 C 
BRANCH  11   6
ATOM      4  O   UNL     1      -1.385 -10.775  16.159  0.00  0.00    -0.270 OA
ATOM      6  N   UNL     1      -3.573 -10.260  15.583  0.00  0.00    -0.309 N 
ATOM     15  C   UNL     1      -2.209 -10.380  15.338  0.00  0.00    +0.244 C 
ATOM     24  H   UNL     1      -4.187  -9.859  14.882  0.00  0.00    +0.149 HD
BRANCH  15  16
ATOM      1  F   UNL     1      -0.458  -8.828  10.233  0.00  0.00    -0.205 F 
ATOM     16  C   UNL     1      -1.745  -9.969  13.987  0.00  0.00    +0.037 A 
ATOM     17  C   UNL     1      -0.817  -8.937  13.852  0.00  0.00    +0.016 A 
ATOM     18  C   UNL     1      -2.240 -10.614  12.854  0.00  0.00    +0.016 A 
ATOM     19  C   UNL     1      -0.381  -8.551  12.584  0.00  0.00    +0.039 A 
ATOM     20  C   UNL     1      -1.805 -10.229  11.586  0.00  0.00    +0.039 A 
ATOM     21  C   UNL     1      -0.876  -9.198  11.451  0.00  0.00    +0.123 A 
ENDBRANCH  15  16
ENDBRANCH  11   6
ENDBRANCH   9  11
TORSDOF 6
ENDMDL
MODEL 8
REMARK VINA RESULT:      -3.6      1.914      2.575
REMARK  Name = 75536634
REMARK  8 active torsions:
REMARK  status: ('A' for Active; 'I' for Inactive)
REMARK    1  A    between atoms: O_3  and  C_8
REMARK    2  A    between atoms: N_5  and  C_7
REMARK    3  A    between atoms: N_5  and  C_12
REMARK    4  A    between atoms: N_6  and  C_11
REMARK    5  A    between atoms: C_9  and  C_11
REMARK    6  A    between atoms: C_12  and  C_13
REMARK    7  A    between atoms: C_12  and  C_14
REMARK    8  A    between atoms: C_15  and  C_16
REMARK                            x       y       z     vdW  Elec       q    Type
REMARK                         _______ _______ _______ _____ _____    ______ ____
ROOT
ATOM      2  O   UNL     1      -2.766  -2.448  24.228  0.00  0.00    -0.371 OA
ATOM      7  C   UNL     1      -0.531  -1.946  24.857  0.00  0.00    +0.111 C 
ATOM      8  C   UNL     1      -1.470  -0.972  25.545  0.00  0.00    +0.164 C 
ATOM      9  C   UNL     1      -2.786  -1.734  25.475  0.00  0.00    +0.165 C 
ATOM     10  C   UNL     1      -1.414  -2.475  23.738  0.00  0.00    +0.181 C 
ENDROOT
BRANCH   8   3
ATOM      3  O   UNL     1      -1.089  -0.697  26.879  0.00  0.00    -0.388 OA
ATOM     23  H   UNL     1      -1.895  -0.628  27.418  0.00  0.00    +0.210 HD
ENDBRANCH   8   3
BRANCH   7   5
ATOM      5  N   UNL     1       0.693  -1.331  24.369  0.00  0.00    -0.307 NA
ATOM     22  H   UNL     1       1.297  -2.037  23.951  0.00  0.00    +0.123 HD
BRANCH   5  12
ATOM     12  C   UNL     1       0.403  -0.285  23.395  0.00  0.00    +0.048 C 
ATOM     13  C   UNL     1       0.525   1.080  24.064  0.00  0.00    +0.023 C 
ATOM     14  C   UNL     1       1.348  -0.398  22.202  0.00  0.00    +0.023 C 
ENDBRANCH   5  12
ENDBRANCH   7   5
BRANCH   9  11
ATOM     11  C   UNL     1      -4.006  -0.832  25.531  0.00  0.00    +0.138 C 
BRANCH  11   6
ATOM      4  O   UNL     1      -3.349   0.829  23.283  0.00  0.00    -0.270 OA
ATOM      6  N   UNL     1      -3.629   0.552  25.569  0.00  0.00    -0.309 N 
ATOM     15  C   UNL     1      -3.327   1.282  24.424  0.00  0.00    +0.244 C 
ATOM     24  H   UNL     1      -3.523   0.969  26.488  0.00  0.00    +0.149 HD
BRANCH  15  16
ATOM      1  F   UNL     1      -1.827   6.635  25.217  0.00  0.00    -0.205 F 
ATOM     16  C   UNL     1      -2.930   2.699  24.634  0.00  0.00    +0.037 A 
ATOM     17  C   UNL     1      -1.708   2.999  25.237  0.00  0.00    +0.016 A 
ATOM     18  C   UNL     1      -3.780   3.728  24.231  0.00  0.00    +0.016 A 
ATOM     19  C   UNL     1      -1.335   4.328  25.434  0.00  0.00    +0.039 A 
ATOM     20  C   UNL     1      -3.407   5.058  24.427  0.00  0.00    +0.039 A 
ATOM     21  C   UNL     1      -2.185   5.358  25.029  0.00  0.00    +0.123 A 
ENDBRANCH  15  16
ENDBRANCH  11   6
ENDBRANCH   9  11
TORSDOF 6
ENDMDL
MODEL 9
REMARK VINA RESULT:      -3.6      4.428      7.513
REMARK  Name = 75536634
REMARK  8 active torsions:
REMARK  status: ('A' for Active; 'I' for Inactive)
REMARK    1  A    between atoms: O_3  and  C_8
REMARK    2  A    between atoms: N_5  and  C_7
REMARK    3  A    between atoms: N_5  and  C_12
REMARK    4  A    between atoms: N_6  and  C_11
REMARK    5  A    between atoms: C_9  and  C_11
REMARK    6  A    between atoms: C_12  and  C_13
REMARK    7  A    between atoms: C_12  and  C_14
REMARK    8  A    between atoms: C_15  and  C_16
REMARK                            x       y       z     vdW  Elec       q    Type
REMARK                         _______ _______ _______ _____ _____    ______ ____
ROOT
ATOM      2  O   UNL     1      -0.862   2.603  24.519  0.00  0.00    -0.371 OA
ATOM      7  C   UNL     1      -3.175   2.738  25.040  0.00  0.00    +0.111 C 
ATOM      8  C   UNL     1      -2.913   1.450  24.281  0.00  0.00    +0.164 C 
ATOM      9  C   UNL     1      -1.417   1.277  24.505  0.00  0.00    +0.165 C 
ATOM     10  C   UNL     1      -1.933   3.546  24.700  0.00  0.00    +0.181 C 
ENDROOT
BRANCH   8   3
ATOM      3  O   UNL     1      -3.653   0.357  24.790  0.00  0.00    -0.388 OA
ATOM     23  H   UNL     1      -3.607  -0.369  24.145  0.00  0.00    +0.210 HD
ENDBRANCH   8   3
BRANCH   7   5
ATOM      5  N   UNL     1      -4.407   3.405  24.650  0.00  0.00    -0.307 NA
ATOM     22  H   UNL     1      -4.823   2.932  23.849  0.00  0.00    +0.123 HD
BRANCH   5  12
ATOM     12  C   UNL     1      -5.358   3.439  25.755  0.00  0.00    +0.048 C 
ATOM     13  C   UNL     1      -6.101   4.771  25.745  0.00  0.00    +0.023 C 
ATOM     14  C   UNL     1      -6.330   2.267  25.652  0.00  0.00    +0.023 C 
ENDBRANCH   5  12
ENDBRANCH   7   5
BRANCH   9  11
ATOM     11  C   UNL     1      -0.741   0.448  23.428  0.00  0.00    +0.138 C 
BRANCH  11   6
ATOM      4  O   UNL     1       1.223  -0.460  21.541  0.00  0.00    -0.270 OA
ATOM      6  N   UNL     1       0.677   0.384  23.633  0.00  0.00    -0.309 N 
ATOM     15  C   UNL     1       1.559  -0.071  22.658  0.00  0.00    +0.244 C 
ATOM     24  H   UNL     1       1.014   0.624  24.559  0.00  0.00    +0.149 HD
BRANCH  15  16
ATOM      1  F   UNL     1       6.990  -0.181  24.080  0.00  0.00    -0.205 F 
ATOM     16  C   UNL     1       2.996  -0.100  23.034  0.00  0.00    +0.037 A 
ATOM     17  C   UNL     1       3.801   1.014  22.799  0.00  0.00    +0.016 A 
ATOM     18  C   UNL     1       3.541  -1.243  23.620  0.00  0.00    +0.016 A 
ATOM     19  C   UNL     1       5.150   0.988  23.152  0.00  0.00    +0.039 A 
ATOM     20  C   UNL     1       4.889  -1.269  23.974  0.00  0.00    +0.039 A 
ATOM     21  C   UNL     1       5.694  -0.156  23.740  0.00  0.00    +0.123 A 
ENDBRANCH  15  16
ENDBRANCH  11   6
ENDBRANCH   9  11
TORSDOF 6
ENDMDL
MODEL 10
REMARK VINA RESULT:      -3.5      2.993      3.937
REMARK  Name = 75536634
REMARK  8 active torsions:
REMARK  status: ('A' for Active; 'I' for Inactive)
REMARK    1  A    between atoms: O_3  and  C_8
REMARK    2  A    between atoms: N_5  and  C_7
REMARK    3  A    between atoms: N_5  and  C_12
REMARK    4  A    between atoms: N_6  and  C_11
REMARK    5  A    between atoms: C_9  and  C_11
REMARK    6  A    between atoms: C_12  and  C_13
REMARK    7  A    between atoms: C_12  and  C_14
REMARK    8  A    between atoms: C_15  and  C_16
REMARK                            x       y       z     vdW  Elec       q    Type
REMARK                         _______ _______ _______ _____ _____    ______ ____
ROOT
ATOM      2  O   UNL     1       1.377   1.631  23.918  0.00  0.00    -0.371 OA
ATOM      7  C   UNL     1       2.887   0.714  22.330  0.00  0.00    +0.111 C 
ATOM      8  C   UNL     1       1.702  -0.221  22.483  0.00  0.00    +0.164 C 
ATOM      9  C   UNL     1       0.659   0.721  23.069  0.00  0.00    +0.165 C 
ATOM     10  C   UNL     1       2.776   1.550  23.595  0.00  0.00    +0.181 C 
ENDROOT
BRANCH   8   3
ATOM      3  O   UNL     1       1.281  -0.776  21.252  0.00  0.00    -0.388 OA
ATOM     23  H   UNL     1       1.332  -1.744  21.320  0.00  0.00    +0.210 HD
ENDBRANCH   8   3
BRANCH   7   5
ATOM      5  N   UNL     1       4.162   0.025  22.217  0.00  0.00    -0.307 NA
ATOM     22  H   UNL     1       4.807   0.572  21.649  0.00  0.00    +0.123 HD
BRANCH   5  12
ATOM     12  C   UNL     1       4.745  -0.221  23.530  0.00  0.00    +0.048 C 
ATOM     13  C   UNL     1       4.542  -1.685  23.910  0.00  0.00    +0.023 C 
ATOM     14  C   UNL     1       6.226   0.146  23.530  0.00  0.00    +0.023 C 
ENDBRANCH   5  12
ENDBRANCH   7   5
BRANCH   9  11
ATOM     11  C   UNL     1      -0.413   0.006  23.871  0.00  0.00    +0.138 C 
BRANCH  11   6
ATOM      4  O   UNL     1      -3.218  -0.591  24.014  0.00  0.00    -0.270 OA
ATOM      6  N   UNL     1      -1.462   0.905  24.259  0.00  0.00    -0.309 N 
ATOM     15  C   UNL     1      -2.800   0.528  24.300  0.00  0.00    +0.244 C 
ATOM     24  H   UNL     1      -1.192   1.866  24.439  0.00  0.00    +0.149 HD
BRANCH  15  16
ATOM      1  F   UNL     1      -6.455   4.517  25.802  0.00  0.00    -0.205 F 
ATOM     16  C   UNL     1      -3.768   1.584  24.698  0.00  0.00    +0.037 A 
ATOM     17  C   UNL     1      -5.080   1.241  25.022  0.00  0.00    +0.016 A 
ATOM     18  C   UNL     1      -3.364   2.918  24.744  0.00  0.00    +0.016 A 
ATOM     19  C   UNL     1      -5.988   2.231  25.396  0.00  0.00    +0.039 A 
ATOM     20  C   UNL     1      -4.271   3.909  25.118  0.00  0.00    +0.039 A 
ATOM     21  C   UNL     1      -5.583   3.566  25.443  0.00  0.00    +0.123 A 
ENDBRANCH  15  16
ENDBRANCH  11   6
ENDBRANCH   9  11
TORSDOF 6
ENDMDL
