MODEL 1
REMARK VINA RESULT:      -5.2      0.000      0.000
REMARK  Name = 56774421
REMARK  3 active torsions:
REMARK  status: ('A' for Active; 'I' for Inactive)
REMARK    1  A    between atoms: N_3  and  C_13
REMARK    2  A    between atoms: C_5  and  C_9
REMARK    3  A    between atoms: C_10  and  C_15
REMARK                            x       y       z     vdW  Elec       q    Type
REMARK                         _______ _______ _______ _____ _____    ______ ____
ROOT
ATOM      3  N   UNL     1      -2.526   0.615  24.057  0.00  0.00    -0.330 N 
ATOM      4  N   UNL     1      -4.548  -0.307  24.129  0.00  0.00    -0.232 NA
ATOM      9  C   UNL     1      -3.877   0.814  23.985  0.00  0.00    +0.115 A 
ATOM     11  C   UNL     1      -2.312  -0.725  24.261  0.00  0.00    +0.069 A 
ATOM     12  C   UNL     1      -3.589  -1.277  24.301  0.00  0.00    +0.089 A 
ATOM     13  C   UNL     1      -1.504   1.629  23.941  0.00  0.00    +0.150 C 
ATOM     14  C   UNL     1      -1.147  -1.477  24.408  0.00  0.00    +0.028 A 
ATOM     16  C   UNL     1      -3.730  -2.662  24.499  0.00  0.00    +0.030 A 
ATOM     17  C   UNL     1      -1.305  -2.853  24.604  0.00  0.00    +0.002 A 
ATOM     18  C   UNL     1      -2.573  -3.436  24.649  0.00  0.00    +0.002 A 
ENDROOT
BRANCH   9   5
ATOM      1  O   UNL     1      -3.049   4.989  27.206  0.00  0.00    -0.276 OA
ATOM      2  N   UNL     1      -3.685   3.797  25.331  0.00  0.00    -0.301 N 
ATOM      5  C   UNL     1      -4.480   2.192  23.765  0.00  0.00    +0.074 C 
ATOM      6  C   UNL     1      -5.578   2.499  24.795  0.00  0.00    +0.032 C 
ATOM      7  C   UNL     1      -3.535   3.389  23.936  0.00  0.00    +0.119 C 
ATOM      8  C   UNL     1      -4.826   3.143  25.952  0.00  0.00    +0.108 C 
ATOM     10  C   UNL     1      -2.878   4.681  26.025  0.00  0.00    +0.212 C 
ATOM     15  C   UNL     1      -1.731   5.267  25.243  0.00  0.00    +0.109 C 
ENDBRANCH   9   5
TORSDOF 1
ENDMDL
MODEL 2
REMARK VINA RESULT:      -4.5     13.918     15.052
REMARK  Name = 56774421
REMARK  3 active torsions:
REMARK  status: ('A' for Active; 'I' for Inactive)
REMARK    1  A    between atoms: N_3  and  C_13
REMARK    2  A    between atoms: C_5  and  C_9
REMARK    3  A    between atoms: C_10  and  C_15
REMARK                            x       y       z     vdW  Elec       q    Type
REMARK                         _______ _______ _______ _____ _____    ______ ____
ROOT
ATOM      3  N   UNL     1      -6.555 -10.431  14.139  0.00  0.00    -0.330 N 
ATOM      4  N   UNL     1      -6.689 -10.407  16.358  0.00  0.00    -0.232 NA
ATOM      9  C   UNL     1      -7.372 -10.411  15.235  0.00  0.00    +0.115 A 
ATOM     11  C   UNL     1      -5.257 -10.441  14.585  0.00  0.00    +0.069 A 
ATOM     12  C   UNL     1      -5.368 -10.426  15.973  0.00  0.00    +0.089 A 
ATOM     13  C   UNL     1      -6.977 -10.440  12.757  0.00  0.00    +0.150 C 
ATOM     14  C   UNL     1      -4.035 -10.461  13.914  0.00  0.00    +0.028 A 
ATOM     16  C   UNL     1      -4.199 -10.432  16.753  0.00  0.00    +0.030 A 
ATOM     17  C   UNL     1      -2.881 -10.467  14.706  0.00  0.00    +0.002 A 
ATOM     18  C   UNL     1      -2.960 -10.452  16.100  0.00  0.00    +0.002 A 
ENDROOT
BRANCH   9   5
ATOM      1  O   UNL     1     -10.511  -6.732  17.494  0.00  0.00    -0.276 OA
ATOM      2  N   UNL     1      -9.861  -8.466  16.111  0.00  0.00    -0.301 N 
ATOM      5  C   UNL     1      -8.887 -10.394  15.114  0.00  0.00    +0.074 C 
ATOM      6  C   UNL     1      -9.563 -10.781  16.439  0.00  0.00    +0.032 C 
ATOM      7  C   UNL     1      -9.534  -9.038  14.806  0.00  0.00    +0.119 C 
ATOM      8  C   UNL     1      -9.725  -9.455  17.169  0.00  0.00    +0.108 C 
ATOM     10  C   UNL     1     -10.249  -7.163  16.369  0.00  0.00    +0.212 C 
ATOM     15  C   UNL     1     -10.333  -6.259  15.167  0.00  0.00    +0.109 C 
ENDBRANCH   9   5
TORSDOF 1
ENDMDL
MODEL 3
REMARK VINA RESULT:      -4.3      2.539      5.961
REMARK  Name = 56774421
REMARK  3 active torsions:
REMARK  status: ('A' for Active; 'I' for Inactive)
REMARK    1  A    between atoms: N_3  and  C_13
REMARK    2  A    between atoms: C_5  and  C_9
REMARK    3  A    between atoms: C_10  and  C_15
REMARK                            x       y       z     vdW  Elec       q    Type
REMARK                         _______ _______ _______ _____ _____    ______ ____
ROOT
ATOM      3  N   UNL     1      -3.895   2.704  25.460  0.00  0.00    -0.330 N 
ATOM      4  N   UNL     1      -2.023   1.588  25.024  0.00  0.00    -0.232 NA
ATOM      9  C   UNL     1      -3.302   1.482  25.308  0.00  0.00    +0.115 A 
ATOM     11  C   UNL     1      -2.935   3.663  25.262  0.00  0.00    +0.069 A 
ATOM     12  C   UNL     1      -1.776   2.941  24.991  0.00  0.00    +0.089 A 
ATOM     13  C   UNL     1      -5.285   2.948  25.774  0.00  0.00    +0.150 C 
ATOM     14  C   UNL     1      -2.980   5.057  25.294  0.00  0.00    +0.028 A 
ATOM     16  C   UNL     1      -0.581   3.636  24.736  0.00  0.00    +0.030 A 
ATOM     17  C   UNL     1      -1.781   5.732  25.038  0.00  0.00    +0.002 A 
ATOM     18  C   UNL     1      -0.602   5.036  24.763  0.00  0.00    +0.002 A 
ENDROOT
BRANCH   9   5
ATOM      1  O   UNL     1      -1.707  -3.199  23.300  0.00  0.00    -0.276 OA
ATOM      2  N   UNL     1      -2.898  -1.689  24.580  0.00  0.00    -0.301 N 
ATOM      5  C   UNL     1      -4.075   0.183  25.460  0.00  0.00    +0.074 C 
ATOM      6  C   UNL     1      -4.713  -0.253  24.131  0.00  0.00    +0.032 C 
ATOM      7  C   UNL     1      -3.261  -1.058  25.848  0.00  0.00    +0.119 C 
ATOM      8  C   UNL     1      -3.639  -1.108  23.472  0.00  0.00    +0.108 C 
ATOM     10  C   UNL     1      -1.977  -2.704  24.395  0.00  0.00    +0.212 C 
ATOM     15  C   UNL     1      -1.285  -3.191  25.643  0.00  0.00    +0.109 C 
ENDBRANCH   9   5
TORSDOF 1
ENDMDL
MODEL 4
REMARK VINA RESULT:      -4.2      1.766      3.107
REMARK  Name = 56774421
REMARK  3 active torsions:
REMARK  status: ('A' for Active; 'I' for Inactive)
REMARK    1  A    between atoms: N_3  and  C_13
REMARK    2  A    between atoms: C_5  and  C_9
REMARK    3  A    between atoms: C_10  and  C_15
REMARK                            x       y       z     vdW  Elec       q    Type
REMARK                         _______ _______ _______ _____ _____    ______ ____
ROOT
ATOM      3  N   UNL     1      -2.532   0.582  25.016  0.00  0.00    -0.330 N 
ATOM      4  N   UNL     1      -0.822  -0.828  25.187  0.00  0.00    -0.232 NA
ATOM      9  C   UNL     1      -1.216   0.416  25.345  0.00  0.00    +0.115 A 
ATOM     11  C   UNL     1      -3.021  -0.636  24.617  0.00  0.00    +0.069 A 
ATOM     12  C   UNL     1      -1.934  -1.499  24.734  0.00  0.00    +0.089 A 
ATOM     13  C   UNL     1      -3.280   1.818  25.073  0.00  0.00    +0.150 C 
ATOM     14  C   UNL     1      -4.280  -1.045  24.180  0.00  0.00    +0.028 A 
ATOM     16  C   UNL     1      -2.097  -2.854  24.398  0.00  0.00    +0.030 A 
ATOM     17  C   UNL     1      -4.425  -2.397  23.850  0.00  0.00    +0.002 A 
ATOM     18  C   UNL     1      -3.353  -3.287  23.956  0.00  0.00    +0.002 A 
ENDROOT
BRANCH   9   5
ATOM      1  O   UNL     1      -2.039   5.525  24.040  0.00  0.00    -0.276 OA
ATOM      2  N   UNL     1      -1.202   3.689  25.165  0.00  0.00    -0.301 N 
ATOM      5  C   UNL     1      -0.353   1.568  25.832  0.00  0.00    +0.074 C 
ATOM      6  C   UNL     1       0.515   2.142  24.700  0.00  0.00    +0.032 C 
ATOM      7  C   UNL     1      -1.094   2.815  26.333  0.00  0.00    +0.119 C 
ATOM      8  C   UNL     1      -0.362   3.218  24.075  0.00  0.00    +0.108 C 
ATOM     10  C   UNL     1      -1.984   4.825  25.052  0.00  0.00    +0.212 C 
ATOM     15  C   UNL     1      -2.803   5.175  26.268  0.00  0.00    +0.109 C 
ENDBRANCH   9   5
TORSDOF 1
ENDMDL
MODEL 5
REMARK VINA RESULT:      -4.2      2.868      5.514
REMARK  Name = 56774421
REMARK  3 active torsions:
REMARK  status: ('A' for Active; 'I' for Inactive)
REMARK    1  A    between atoms: N_3  and  C_13
REMARK    2  A    between atoms: C_5  and  C_9
REMARK    3  A    between atoms: C_10  and  C_15
REMARK                            x       y       z     vdW  Elec       q    Type
REMARK                         _______ _______ _______ _____ _____    ______ ____
ROOT
ATOM      3  N   UNL     1      -2.036   1.683  25.462  0.00  0.00    -0.330 N 
ATOM      4  N   UNL     1      -3.511   0.044  25.175  0.00  0.00    -0.232 NA
ATOM      9  C   UNL     1      -2.241   0.336  25.350  0.00  0.00    +0.115 A 
ATOM     11  C   UNL     1      -3.255   2.302  25.351  0.00  0.00    +0.069 A 
ATOM     12  C   UNL     1      -4.159   1.257  25.174  0.00  0.00    +0.089 A 
ATOM     13  C   UNL     1      -0.765   2.342  25.660  0.00  0.00    +0.150 C 
ATOM     14  C   UNL     1      -3.634   3.644  25.391  0.00  0.00    +0.028 A 
ATOM     16  C   UNL     1      -5.525   1.552  25.025  0.00  0.00    +0.030 A 
ATOM     17  C   UNL     1      -4.997   3.919  25.242  0.00  0.00    +0.002 A 
ATOM     18  C   UNL     1      -5.927   2.893  25.062  0.00  0.00    +0.002 A 
ENDROOT
BRANCH   9   5
ATOM      1  O   UNL     1       1.230  -0.542  21.392  0.00  0.00    -0.276 OA
ATOM      2  N   UNL     1       0.314  -0.582  23.512  0.00  0.00    -0.301 N 
ATOM      5  C   UNL     1      -1.099  -0.665  25.425  0.00  0.00    +0.074 C 
ATOM      6  C   UNL     1      -1.362  -1.889  24.534  0.00  0.00    +0.032 C 
ATOM      7  C   UNL     1       0.267  -0.184  24.918  0.00  0.00    +0.119 C 
ATOM      8  C   UNL     1      -0.771  -1.495  23.187  0.00  0.00    +0.108 C 
ATOM     10  C   UNL     1       1.239  -0.176  22.568  0.00  0.00    +0.212 C 
ATOM     15  C   UNL     1       2.296   0.780  23.061  0.00  0.00    +0.109 C 
ENDBRANCH   9   5
TORSDOF 1
ENDMDL
MODEL 6
REMARK VINA RESULT:      -4.1     17.705     19.453
REMARK  Name = 56774421
REMARK  3 active torsions:
REMARK  status: ('A' for Active; 'I' for Inactive)
REMARK    1  A    between atoms: N_3  and  C_13
REMARK    2  A    between atoms: C_5  and  C_9
REMARK    3  A    between atoms: C_10  and  C_15
REMARK                            x       y       z     vdW  Elec       q    Type
REMARK                         _______ _______ _______ _____ _____    ______ ____
ROOT
ATOM      3  N   UNL     1      13.399   8.864  18.682  0.00  0.00    -0.330 N 
ATOM      4  N   UNL     1      11.288   8.561  19.312  0.00  0.00    -0.232 NA
ATOM      9  C   UNL     1      12.534   8.655  19.720  0.00  0.00    +0.115 A 
ATOM     11  C   UNL     1      12.662   8.908  17.526  0.00  0.00    +0.069 A 
ATOM     12  C   UNL     1      11.348   8.717  17.946  0.00  0.00    +0.089 A 
ATOM     13  C   UNL     1      14.833   9.012  18.780  0.00  0.00    +0.150 C 
ATOM     14  C   UNL     1      13.020   9.094  16.191  0.00  0.00    +0.028 A 
ATOM     16  C   UNL     1      10.318   8.708  16.990  0.00  0.00    +0.030 A 
ATOM     17  C   UNL     1      11.983   9.082  15.253  0.00  0.00    +0.002 A 
ATOM     18  C   UNL     1      10.656   8.893  15.643  0.00  0.00    +0.002 A 
ENDROOT
BRANCH   9   5
ATOM      1  O   UNL     1      17.060   6.248  21.205  0.00  0.00    -0.276 OA
ATOM      2  N   UNL     1      15.171   7.572  21.338  0.00  0.00    -0.301 N 
ATOM      5  C   UNL     1      13.009   8.549  21.160  0.00  0.00    +0.074 C 
ATOM      6  C   UNL     1      12.886   7.113  21.692  0.00  0.00    +0.032 C 
ATOM      7  C   UNL     1      14.489   8.863  21.417  0.00  0.00    +0.119 C 
ATOM      8  C   UNL     1      14.219   6.472  21.329  0.00  0.00    +0.108 C 
ATOM     10  C   UNL     1      16.537   7.361  21.274  0.00  0.00    +0.212 C 
ATOM     15  C   UNL     1      17.389   8.605  21.283  0.00  0.00    +0.109 C 
ENDBRANCH   9   5
TORSDOF 1
ENDMDL
MODEL 7
REMARK VINA RESULT:      -4.0     16.588     18.670
REMARK  Name = 56774421
REMARK  3 active torsions:
REMARK  status: ('A' for Active; 'I' for Inactive)
REMARK    1  A    between atoms: N_3  and  C_13
REMARK    2  A    between atoms: C_5  and  C_9
REMARK    3  A    between atoms: C_10  and  C_15
REMARK                            x       y       z     vdW  Elec       q    Type
REMARK                         _______ _______ _______ _____ _____    ______ ____
ROOT
ATOM      3  N   UNL     1      14.532   7.375  18.607  0.00  0.00    -0.330 N 
ATOM      4  N   UNL     1      12.418   8.024  18.833  0.00  0.00    -0.232 NA
ATOM      9  C   UNL     1      13.445   7.464  19.432  0.00  0.00    +0.115 A 
ATOM     11  C   UNL     1      14.183   7.913  17.395  0.00  0.00    +0.069 A 
ATOM     12  C   UNL     1      12.859   8.311  17.562  0.00  0.00    +0.089 A 
ATOM     13  C   UNL     1      15.821   6.815  18.947  0.00  0.00    +0.150 C 
ATOM     14  C   UNL     1      14.890   8.082  16.205  0.00  0.00    +0.028 A 
ATOM     16  C   UNL     1      12.185   8.914  16.486  0.00  0.00    +0.030 A 
ATOM     17  C   UNL     1      14.204   8.684  15.144  0.00  0.00    +0.002 A 
ATOM     18  C   UNL     1      12.876   9.093  15.281  0.00  0.00    +0.002 A 
ENDROOT
BRANCH   9   5
ATOM      1  O   UNL     1      10.070   9.079  23.238  0.00  0.00    -0.276 OA
ATOM      2  N   UNL     1      11.665   7.798  22.164  0.00  0.00    -0.301 N 
ATOM      5  C   UNL     1      13.474   6.959  20.865  0.00  0.00    +0.074 C 
ATOM      6  C   UNL     1      13.988   8.036  21.833  0.00  0.00    +0.032 C 
ATOM      7  C   UNL     1      12.121   6.585  21.486  0.00  0.00    +0.119 C 
ATOM      8  C   UNL     1      12.729   8.787  22.248  0.00  0.00    +0.108 C 
ATOM     10  C   UNL     1      10.402   8.034  22.676  0.00  0.00    +0.212 C 
ATOM     15  C   UNL     1       9.409   6.913  22.502  0.00  0.00    +0.109 C 
ENDBRANCH   9   5
TORSDOF 1
ENDMDL
MODEL 8
REMARK VINA RESULT:      -4.0     14.660     16.902
REMARK  Name = 56774421
REMARK  3 active torsions:
REMARK  status: ('A' for Active; 'I' for Inactive)
REMARK    1  A    between atoms: N_3  and  C_13
REMARK    2  A    between atoms: C_5  and  C_9
REMARK    3  A    between atoms: C_10  and  C_15
REMARK                            x       y       z     vdW  Elec       q    Type
REMARK                         _______ _______ _______ _____ _____    ______ ____
ROOT
ATOM      3  N   UNL     1      -7.795  -9.987  14.546  0.00  0.00    -0.330 N 
ATOM      4  N   UNL     1      -9.696  -9.459  13.522  0.00  0.00    -0.232 NA
ATOM      9  C   UNL     1      -8.536 -10.065  13.400  0.00  0.00    +0.115 A 
ATOM     11  C   UNL     1      -8.525  -9.282  15.469  0.00  0.00    +0.069 A 
ATOM     12  C   UNL     1      -9.707  -8.964  14.806  0.00  0.00    +0.089 A 
ATOM     13  C   UNL     1      -6.477 -10.544  14.754  0.00  0.00    +0.150 C 
ATOM     14  C   UNL     1      -8.261  -8.907  16.787  0.00  0.00    +0.028 A 
ATOM     16  C   UNL     1     -10.696  -8.230  15.482  0.00  0.00    +0.030 A 
ATOM     17  C   UNL     1      -9.256  -8.176  17.445  0.00  0.00    +0.002 A 
ATOM     18  C   UNL     1     -10.452  -7.843  16.806  0.00  0.00    +0.002 A 
ENDROOT
BRANCH   9   5
ATOM      1  O   UNL     1      -6.268  -7.602   9.244  0.00  0.00    -0.276 OA
ATOM      2  N   UNL     1      -6.916  -9.317  10.650  0.00  0.00    -0.301 N 
ATOM      5  C   UNL     1      -8.031 -10.781  12.158  0.00  0.00    +0.074 C 
ATOM      6  C   UNL     1      -8.930 -10.506  10.943  0.00  0.00    +0.032 C 
ATOM      7  C   UNL     1      -6.650 -10.360  11.639  0.00  0.00    +0.119 C 
ATOM      8  C   UNL     1      -8.331  -9.252  10.320  0.00  0.00    +0.108 C 
ATOM     10  C   UNL     1      -5.988  -8.469  10.073  0.00  0.00    +0.212 C 
ATOM     15  C   UNL     1      -4.563  -8.656  10.528  0.00  0.00    +0.109 C 
ENDBRANCH   9   5
TORSDOF 1
ENDMDL
MODEL 9
REMARK VINA RESULT:      -4.0      2.490      6.145
REMARK  Name = 56774421
REMARK  3 active torsions:
REMARK  status: ('A' for Active; 'I' for Inactive)
REMARK    1  A    between atoms: N_3  and  C_13
REMARK    2  A    between atoms: C_5  and  C_9
REMARK    3  A    between atoms: C_10  and  C_15
REMARK                            x       y       z     vdW  Elec       q    Type
REMARK                         _______ _______ _______ _____ _____    ______ ____
ROOT
ATOM      3  N   UNL     1      -2.258   1.660  24.100  0.00  0.00    -0.330 N 
ATOM      4  N   UNL     1      -0.100   2.168  24.263  0.00  0.00    -0.232 NA
ATOM      9  C   UNL     1      -0.968   1.219  23.994  0.00  0.00    +0.115 A 
ATOM     11  C   UNL     1      -2.219   2.982  24.463  0.00  0.00    +0.069 A 
ATOM     12  C   UNL     1      -0.861   3.275  24.557  0.00  0.00    +0.089 A 
ATOM     13  C   UNL     1      -3.452   0.877  23.874  0.00  0.00    +0.150 C 
ATOM     14  C   UNL     1      -3.224   3.917  24.708  0.00  0.00    +0.028 A 
ATOM     16  C   UNL     1      -0.465   4.575  24.917  0.00  0.00    +0.030 A 
ATOM     17  C   UNL     1      -2.812   5.206  25.064  0.00  0.00    +0.002 A 
ATOM     18  C   UNL     1      -1.458   5.531  25.167  0.00  0.00    +0.002 A 
ENDROOT
BRANCH   9   5
ATOM      1  O   UNL     1      -3.392  -3.077  26.033  0.00  0.00    -0.276 OA
ATOM      2  N   UNL     1      -2.094  -1.797  24.613  0.00  0.00    -0.301 N 
ATOM      5  C   UNL     1      -0.632  -0.212  23.607  0.00  0.00    +0.074 C 
ATOM      6  C   UNL     1       0.101  -0.946  24.741  0.00  0.00    +0.032 C 
ATOM      7  C   UNL     1      -1.819  -1.145  23.334  0.00  0.00    +0.119 C 
ATOM      8  C   UNL     1      -1.022  -1.559  25.567  0.00  0.00    +0.108 C 
ATOM     10  C   UNL     1      -3.209  -2.550  24.934  0.00  0.00    +0.212 C 
ATOM     15  C   UNL     1      -4.234  -2.696  23.839  0.00  0.00    +0.109 C 
ENDBRANCH   9   5
TORSDOF 1
ENDMDL
MODEL 10
REMARK VINA RESULT:      -4.0      2.625      6.016
REMARK  Name = 56774421
REMARK  3 active torsions:
REMARK  status: ('A' for Active; 'I' for Inactive)
REMARK    1  A    between atoms: N_3  and  C_13
REMARK    2  A    between atoms: C_5  and  C_9
REMARK    3  A    between atoms: C_10  and  C_15
REMARK                            x       y       z     vdW  Elec       q    Type
REMARK                         _______ _______ _______ _____ _____    ______ ____
ROOT
ATOM      3  N   UNL     1      -0.337   2.202  24.177  0.00  0.00    -0.330 N 
ATOM      4  N   UNL     1      -2.397   1.504  24.635  0.00  0.00    -0.232 NA
ATOM      9  C   UNL     1      -1.207   1.148  24.208  0.00  0.00    +0.115 A 
ATOM     11  C   UNL     1      -1.011   3.314  24.614  0.00  0.00    +0.069 A 
ATOM     12  C   UNL     1      -2.294   2.852  24.894  0.00  0.00    +0.089 A 
ATOM     13  C   UNL     1       1.046   2.159  23.760  0.00  0.00    +0.150 C 
ATOM     14  C   UNL     1      -0.621   4.642  24.783  0.00  0.00    +0.028 A 
ATOM     16  C   UNL     1      -3.258   3.756  25.372  0.00  0.00    +0.030 A 
ATOM     17  C   UNL     1      -1.593   5.528  25.260  0.00  0.00    +0.002 A 
ATOM     18  C   UNL     1      -2.888   5.095  25.550  0.00  0.00    +0.002 A 
ENDROOT
BRANCH   9   5
ATOM      1  O   UNL     1      -3.564  -3.313  25.948  0.00  0.00    -0.276 OA
ATOM      2  N   UNL     1      -2.245  -1.930  24.650  0.00  0.00    -0.301 N 
ATOM      5  C   UNL     1      -0.795  -0.253  23.786  0.00  0.00    +0.074 C 
ATOM      6  C   UNL     1      -0.094  -1.004  24.929  0.00  0.00    +0.032 C 
ATOM      7  C   UNL     1      -1.928  -1.217  23.413  0.00  0.00    +0.119 C 
ATOM      8  C   UNL     1      -1.235  -1.691  25.669  0.00  0.00    +0.108 C 
ATOM     10  C   UNL     1      -3.344  -2.736  24.882  0.00  0.00    +0.212 C 
ATOM     15  C   UNL     1      -4.304  -2.876  23.728  0.00  0.00    +0.109 C 
ENDBRANCH   9   5
TORSDOF 1
ENDMDL
