MODEL 1
REMARK VINA RESULT:       4.3      0.000      0.000
REMARK  Name = 11887612
REMARK  8 active torsions:
REMARK  status: ('A' for Active; 'I' for Inactive)
REMARK    1  A    between atoms: S_1  and  N_8
REMARK    2  A    between atoms: S_1  and  C_27
REMARK    3  A    between atoms: N_9  and  C_19
REMARK    4  A    between atoms: C_12  and  C_15
REMARK    5  A    between atoms: C_15  and  C_19
REMARK    6  A    between atoms: C_19  and  C_25
REMARK    7  A    between atoms: C_20  and  C_23
REMARK    8  A    between atoms: C_26  and  C_28
REMARK                            x       y       z     vdW  Elec       q    Type
REMARK                         _______ _______ _______ _____ _____    ______ ____
ROOT
ATOM      7  O   UNL     1       1.724  -0.156  21.050  0.00  0.00    -0.270 OA
ATOM      8  N   UNL     1      -1.465  -0.297  24.987  0.00  0.00    -0.162 NA
ATOM     10  N   UNL     1       0.782  -0.415  23.176  0.00  0.00    -0.294 N 
ATOM     20  C   UNL     1      -1.661  -0.038  23.532  0.00  0.00    +0.183 C 
ATOM     21  C   UNL     1      -0.567  -0.648  22.660  0.00  0.00    +0.138 C 
ATOM     22  C   UNL     1      -0.257  -1.093  25.326  0.00  0.00    +0.129 C 
ATOM     24  C   UNL     1       0.953  -0.486  24.631  0.00  0.00    +0.125 C 
ATOM     26  C   UNL     1       1.834  -0.219  22.274  0.00  0.00    +0.247 C 
ENDROOT
BRANCH  26  28
ATOM      2  F   UNL     1       5.742  -2.115  24.426  0.00  0.00    -0.205 F 
ATOM     28  C   UNL     1       3.193  -0.080  22.820  0.00  0.00    +0.040 A 
ATOM     31  C   UNL     1       3.833  -1.185  23.375  0.00  0.00    +0.051 A 
ATOM     32  C   UNL     1       3.833   1.156  22.779  0.00  0.00    +0.013 A 
ATOM     36  C   UNL     1       5.122  -1.053  23.891  0.00  0.00    +0.124 A 
ATOM     37  C   UNL     1       5.122   1.288  23.296  0.00  0.00    +0.004 A 
ATOM     38  C   UNL     1       5.767   0.183  23.852  0.00  0.00    +0.038 A 
ENDBRANCH  26  28
BRANCH  20  23
ATOM      3  O   UNL     1      -1.516   2.024  22.345  0.00  0.00    -0.274 OA
ATOM      9  N   UNL     1      -1.878   2.068  24.645  0.00  0.00    -0.303 N 
ATOM     23  C   UNL     1      -1.680   1.453  23.420  0.00  0.00    +0.234 C 
ATOM     39  H   UNL     1      -1.939   1.496  25.482  0.00  0.00    +0.149 HD
BRANCH   9  19
ATOM     19  C   UNL     1      -1.916   3.503  24.812  0.00  0.00    +0.159 C 
BRANCH  19  25
ATOM      6  O   UNL     1      -0.080   5.092  24.719  0.00  0.00    -0.274 OA
ATOM     11  N   UNL     1       0.267   3.078  25.767  0.00  0.00    -0.328 N 
ATOM     25  C   UNL     1      -0.503   3.999  25.087  0.00  0.00    +0.231 C 
ATOM     40  H   UNL     1      -0.089   2.171  26.049  0.00  0.00    +0.145 HD
ATOM     41  H   UNL     1       1.232   3.282  26.005  0.00  0.00    +0.145 HD
ENDBRANCH  19  25
BRANCH  19  15
ATOM     15  C   UNL     1      -2.917   3.934  25.888  0.00  0.00    +0.035 C 
BRANCH  15  12
ATOM     12  C   UNL     1      -4.373   3.608  25.557  0.00  0.00    -0.009 C 
ATOM     13  C   UNL     1      -4.469   2.838  24.233  0.00  0.00    +0.003 C 
ATOM     14  C   UNL     1      -5.022   2.814  26.698  0.00  0.00    +0.003 C 
ATOM     16  C   UNL     1      -5.911   2.454  23.907  0.00  0.00    +0.000 C 
ATOM     17  C   UNL     1      -6.463   2.431  26.369  0.00  0.00    +0.000 C 
ATOM     18  C   UNL     1      -6.556   1.673  25.047  0.00  0.00    +0.000 C 
ENDBRANCH  15  12
ENDBRANCH  19  15
ENDBRANCH   9  19
ENDBRANCH  20  23
BRANCH   8   1
ATOM      1  S   UNL     1      -2.868  -0.624  25.906  0.00  0.00    +0.062 S 
ATOM      4  O   UNL     1      -3.717   0.548  25.909  0.00  0.00    -0.153 OA
ATOM      5  O   UNL     1      -2.480  -1.266  27.144  0.00  0.00    -0.153 OA
BRANCH   1  27
ATOM     27  C   UNL     1      -3.633  -1.842  24.881  0.00  0.00    +0.106 A 
ATOM     29  C   UNL     1      -3.233  -3.163  24.986  0.00  0.00    +0.028 A 
ATOM     30  C   UNL     1      -4.617  -1.454  23.988  0.00  0.00    +0.028 A 
ATOM     33  C   UNL     1      -3.837  -4.125  24.176  0.00  0.00    +0.002 A 
ATOM     34  C   UNL     1      -5.221  -2.415  23.177  0.00  0.00    +0.002 A 
ATOM     35  C   UNL     1      -4.830  -3.750  23.270  0.00  0.00    +0.000 A 
ENDBRANCH   1  27
ENDBRANCH   8   1
TORSDOF 8
ENDMDL
MODEL 2
REMARK VINA RESULT:       4.9      2.397      4.140
REMARK  Name = 11887612
REMARK  8 active torsions:
REMARK  status: ('A' for Active; 'I' for Inactive)
REMARK    1  A    between atoms: S_1  and  N_8
REMARK    2  A    between atoms: S_1  and  C_27
REMARK    3  A    between atoms: N_9  and  C_19
REMARK    4  A    between atoms: C_12  and  C_15
REMARK    5  A    between atoms: C_15  and  C_19
REMARK    6  A    between atoms: C_19  and  C_25
REMARK    7  A    between atoms: C_20  and  C_23
REMARK    8  A    between atoms: C_26  and  C_28
REMARK                            x       y       z     vdW  Elec       q    Type
REMARK                         _______ _______ _______ _____ _____    ______ ____
ROOT
ATOM      7  O   UNL     1       1.911   0.512  21.448  0.00  0.00    -0.270 OA
ATOM      8  N   UNL     1      -1.606  -0.794  24.854  0.00  0.00    -0.162 NA
ATOM     10  N   UNL     1       0.759  -0.474  23.229  0.00  0.00    -0.294 N 
ATOM     20  C   UNL     1      -1.639   0.081  23.649  0.00  0.00    +0.183 C 
ATOM     21  C   UNL     1      -0.557  -0.261  22.628  0.00  0.00    +0.138 C 
ATOM     22  C   UNL     1      -0.544  -1.832  24.849  0.00  0.00    +0.129 C 
ATOM     24  C   UNL     1       0.791  -1.179  24.516  0.00  0.00    +0.125 C 
ATOM     26  C   UNL     1       1.904  -0.078  22.528  0.00  0.00    +0.247 C 
ENDROOT
BRANCH  26  28
ATOM      2  F   UNL     1       6.332   1.286  23.948  0.00  0.00    -0.205 F 
ATOM     28  C   UNL     1       3.215  -0.390  23.115  0.00  0.00    +0.040 A 
ATOM     31  C   UNL     1       4.169   0.615  23.254  0.00  0.00    +0.051 A 
ATOM     32  C   UNL     1       3.498  -1.689  23.531  0.00  0.00    +0.013 A 
ATOM     36  C   UNL     1       5.412   0.320  23.812  0.00  0.00    +0.124 A 
ATOM     37  C   UNL     1       4.742  -1.984  24.089  0.00  0.00    +0.004 A 
ATOM     38  C   UNL     1       5.699  -0.980  24.230  0.00  0.00    +0.038 A 
ENDBRANCH  26  28
BRANCH  20  23
ATOM      3  O   UNL     1      -1.524   2.455  23.468  0.00  0.00    -0.274 OA
ATOM      9  N   UNL     1      -1.205   1.466  25.550  0.00  0.00    -0.303 N 
ATOM     23  C   UNL     1      -1.461   1.464  24.190  0.00  0.00    +0.234 C 
ATOM     39  H   UNL     1      -1.112   0.579  26.038  0.00  0.00    +0.149 HD
BRANCH   9  19
ATOM     19  C   UNL     1      -0.974   2.673  26.311  0.00  0.00    +0.159 C 
BRANCH  19  25
ATOM      6  O   UNL     1      -3.056   3.827  25.827  0.00  0.00    -0.274 OA
ATOM     11  N   UNL     1      -1.095   4.734  25.048  0.00  0.00    -0.328 N 
ATOM     25  C   UNL     1      -1.832   3.787  25.729  0.00  0.00    +0.231 C 
ATOM     40  H   UNL     1      -0.086   4.679  24.958  0.00  0.00    +0.145 HD
ATOM     41  H   UNL     1      -1.548   5.526  24.605  0.00  0.00    +0.145 HD
ENDBRANCH  19  25
BRANCH  19  15
ATOM     15  C   UNL     1       0.511   3.040  26.377  0.00  0.00    +0.035 C 
BRANCH  15  12
ATOM     12  C   UNL     1       1.063   3.169  27.796  0.00  0.00    -0.009 C 
ATOM     13  C   UNL     1       0.245   2.318  28.776  0.00  0.00    +0.003 C 
ATOM     14  C   UNL     1       2.546   2.777  27.837  0.00  0.00    +0.003 C 
ATOM     16  C   UNL     1       0.811   2.390  30.192  0.00  0.00    +0.000 C 
ATOM     17  C   UNL     1       3.108   2.848  29.255  0.00  0.00    +0.000 C 
ATOM     18  C   UNL     1       2.287   2.008  30.229  0.00  0.00    +0.000 C 
ENDBRANCH  15  12
ENDBRANCH  19  15
ENDBRANCH   9  19
ENDBRANCH  20  23
BRANCH   8   1
ATOM      1  S   UNL     1      -3.115  -1.262  25.506  0.00  0.00    +0.062 S 
ATOM      4  O   UNL     1      -3.001  -1.361  26.945  0.00  0.00    -0.153 OA
ATOM      5  O   UNL     1      -3.646  -2.359  24.724  0.00  0.00    -0.153 OA
BRANCH   1  27
ATOM     27  C   UNL     1      -4.072   0.176  25.139  0.00  0.00    +0.106 A 
ATOM     29  C   UNL     1      -4.820   0.767  26.143  0.00  0.00    +0.028 A 
ATOM     30  C   UNL     1      -4.059   0.687  23.852  0.00  0.00    +0.028 A 
ATOM     33  C   UNL     1      -5.576   1.903  25.853  0.00  0.00    +0.002 A 
ATOM     34  C   UNL     1      -4.815   1.823  23.561  0.00  0.00    +0.002 A 
ATOM     35  C   UNL     1      -5.574   2.430  24.561  0.00  0.00    +0.000 A 
ENDBRANCH   1  27
ENDBRANCH   8   1
TORSDOF 8
ENDMDL
MODEL 3
REMARK VINA RESULT:       6.1      1.736      2.858
REMARK  Name = 11887612
REMARK  8 active torsions:
REMARK  status: ('A' for Active; 'I' for Inactive)
REMARK    1  A    between atoms: S_1  and  N_8
REMARK    2  A    between atoms: S_1  and  C_27
REMARK    3  A    between atoms: N_9  and  C_19
REMARK    4  A    between atoms: C_12  and  C_15
REMARK    5  A    between atoms: C_15  and  C_19
REMARK    6  A    between atoms: C_19  and  C_25
REMARK    7  A    between atoms: C_20  and  C_23
REMARK    8  A    between atoms: C_26  and  C_28
REMARK                            x       y       z     vdW  Elec       q    Type
REMARK                         _______ _______ _______ _____ _____    ______ ____
ROOT
ATOM      7  O   UNL     1       1.686   0.136  21.399  0.00  0.00    -0.270 OA
ATOM      8  N   UNL     1      -1.592  -1.081  25.068  0.00  0.00    -0.162 NA
ATOM     10  N   UNL     1       0.684  -0.742  23.322  0.00  0.00    -0.294 N 
ATOM     20  C   UNL     1      -1.740  -0.351  23.777  0.00  0.00    +0.183 C 
ATOM     21  C   UNL     1      -0.664  -0.711  22.756  0.00  0.00    +0.138 C 
ATOM     22  C   UNL     1      -0.440  -2.018  25.131  0.00  0.00    +0.129 C 
ATOM     24  C   UNL     1       0.819  -1.293  24.675  0.00  0.00    +0.125 C 
ATOM     26  C   UNL     1       1.766  -0.329  22.536  0.00  0.00    +0.247 C 
ENDROOT
BRANCH  26  28
ATOM      2  F   UNL     1       6.033   1.604  23.777  0.00  0.00    -0.205 F 
ATOM     28  C   UNL     1       3.117  -0.459  23.100  0.00  0.00    +0.040 A 
ATOM     31  C   UNL     1       3.949   0.656  23.171  0.00  0.00    +0.051 A 
ATOM     32  C   UNL     1       3.561  -1.697  23.560  0.00  0.00    +0.013 A 
ATOM     36  C   UNL     1       5.231   0.533  23.707  0.00  0.00    +0.124 A 
ATOM     37  C   UNL     1       4.842  -1.819  24.096  0.00  0.00    +0.004 A 
ATOM     38  C   UNL     1       5.678  -0.705  24.169  0.00  0.00    +0.038 A 
ENDBRANCH  26  28
BRANCH  20  23
ATOM      3  O   UNL     1      -2.057   1.981  23.402  0.00  0.00    -0.274 OA
ATOM      9  N   UNL     1      -1.117   1.279  25.412  0.00  0.00    -0.303 N 
ATOM     23  C   UNL     1      -1.671   1.093  24.158  0.00  0.00    +0.234 C 
ATOM     39  H   UNL     1      -0.772   0.472  25.926  0.00  0.00    +0.149 HD
BRANCH   9  19
ATOM     19  C   UNL     1      -0.918   2.582  26.005  0.00  0.00    +0.159 C 
BRANCH  19  25
ATOM      6  O   UNL     1       0.038   2.522  28.238  0.00  0.00    -0.274 OA
ATOM     11  N   UNL     1       1.456   2.393  26.436  0.00  0.00    -0.328 N 
ATOM     25  C   UNL     1       0.211   2.487  27.022  0.00  0.00    +0.231 C 
ATOM     40  H   UNL     1       1.587   2.385  25.430  0.00  0.00    +0.145 HD
ATOM     41  H   UNL     1       2.294   2.332  27.004  0.00  0.00    +0.145 HD
ENDBRANCH  19  25
BRANCH  19  15
ATOM     15  C   UNL     1      -2.208   3.151  26.600  0.00  0.00    +0.035 C 
BRANCH  15  12
ATOM     12  C   UNL     1      -2.732   4.397  25.888  0.00  0.00    -0.009 C 
ATOM     13  C   UNL     1      -1.581   5.168  25.228  0.00  0.00    +0.003 C 
ATOM     14  C   UNL     1      -3.801   4.020  24.854  0.00  0.00    +0.003 C 
ATOM     16  C   UNL     1      -2.087   6.391  24.465  0.00  0.00    +0.000 C 
ATOM     17  C   UNL     1      -4.303   5.245  24.092  0.00  0.00    +0.000 C 
ATOM     18  C   UNL     1      -3.156   6.014  23.444  0.00  0.00    +0.000 C 
ENDBRANCH  15  12
ENDBRANCH  19  15
ENDBRANCH   9  19
ENDBRANCH  20  23
BRANCH   8   1
ATOM      1  S   UNL     1      -3.031  -1.602  25.827  0.00  0.00    +0.062 S 
ATOM      4  O   UNL     1      -2.857  -1.546  27.263  0.00  0.00    -0.153 OA
ATOM      5  O   UNL     1      -3.494  -2.811  25.179  0.00  0.00    -0.153 OA
BRANCH   1  27
ATOM     27  C   UNL     1      -4.119  -0.290  25.364  0.00  0.00    +0.106 A 
ATOM     29  C   UNL     1      -4.450  -0.122  24.030  0.00  0.00    +0.028 A 
ATOM     30  C   UNL     1      -4.619   0.552  26.343  0.00  0.00    +0.028 A 
ATOM     33  C   UNL     1      -5.308   0.915  23.665  0.00  0.00    +0.002 A 
ATOM     34  C   UNL     1      -5.477   1.590  25.978  0.00  0.00    +0.002 A 
ATOM     35  C   UNL     1      -5.821   1.772  24.639  0.00  0.00    +0.000 A 
ENDBRANCH   1  27
ENDBRANCH   8   1
TORSDOF 8
ENDMDL
MODEL 4
REMARK VINA RESULT:       7.9      2.480      6.297
REMARK  Name = 11887612
REMARK  8 active torsions:
REMARK  status: ('A' for Active; 'I' for Inactive)
REMARK    1  A    between atoms: S_1  and  N_8
REMARK    2  A    between atoms: S_1  and  C_27
REMARK    3  A    between atoms: N_9  and  C_19
REMARK    4  A    between atoms: C_12  and  C_15
REMARK    5  A    between atoms: C_15  and  C_19
REMARK    6  A    between atoms: C_19  and  C_25
REMARK    7  A    between atoms: C_20  and  C_23
REMARK    8  A    between atoms: C_26  and  C_28
REMARK                            x       y       z     vdW  Elec       q    Type
REMARK                         _______ _______ _______ _____ _____    ______ ____
ROOT
ATOM      7  O   UNL     1      -1.758  -0.199  26.536  0.00  0.00    -0.270 OA
ATOM      8  N   UNL     1       1.633   0.688  22.876  0.00  0.00    -0.162 NA
ATOM     10  N   UNL     1      -0.466  -0.312  24.589  0.00  0.00    -0.294 N 
ATOM     20  C   UNL     1       1.393   1.311  24.208  0.00  0.00    +0.183 C 
ATOM     21  C   UNL     1       0.674   0.384  25.185  0.00  0.00    +0.138 C 
ATOM     22  C   UNL     1       1.139  -0.706  22.736  0.00  0.00    +0.129 C 
ATOM     24  C   UNL     1      -0.308  -0.772  23.205  0.00  0.00    +0.125 C 
ATOM     26  C   UNL     1      -1.595  -0.570  25.373  0.00  0.00    +0.247 C 
ENDROOT
BRANCH  26  28
ATOM      2  F   UNL     1      -4.000  -4.742  24.826  0.00  0.00    -0.205 F 
ATOM     28  C   UNL     1      -2.687  -1.353  24.775  0.00  0.00    +0.040 A 
ATOM     31  C   UNL     1      -2.827  -2.702  25.091  0.00  0.00    +0.051 A 
ATOM     32  C   UNL     1      -3.576  -0.742  23.894  0.00  0.00    +0.013 A 
ATOM     36  C   UNL     1      -3.862  -3.444  24.524  0.00  0.00    +0.124 A 
ATOM     37  C   UNL     1      -4.612  -1.484  23.327  0.00  0.00    +0.004 A 
ATOM     38  C   UNL     1      -4.755  -2.835  23.642  0.00  0.00    +0.038 A 
ENDBRANCH  26  28
BRANCH  20  23
ATOM      3  O   UNL     1       1.073   3.534  23.410  0.00  0.00    -0.274 OA
ATOM      9  N   UNL     1      -0.749   2.371  24.271  0.00  0.00    -0.303 N 
ATOM     23  C   UNL     1       0.577   2.527  23.907  0.00  0.00    +0.234 C 
ATOM     39  H   UNL     1      -1.038   1.514  24.735  0.00  0.00    +0.149 HD
BRANCH   9  19
ATOM     19  C   UNL     1      -1.743   3.408  24.106  0.00  0.00    +0.159 C 
BRANCH  19  25
ATOM      6  O   UNL     1      -1.987   3.784  26.494  0.00  0.00    -0.274 OA
ATOM     11  N   UNL     1      -1.608   5.594  25.134  0.00  0.00    -0.328 N 
ATOM     25  C   UNL     1      -1.785   4.248  25.375  0.00  0.00    +0.231 C 
ATOM     40  H   UNL     1      -1.462   5.968  24.201  0.00  0.00    +0.145 HD
ATOM     41  H   UNL     1      -1.623   6.265  25.894  0.00  0.00    +0.145 HD
ENDBRANCH  19  25
BRANCH  19  15
ATOM     15  C   UNL     1      -3.113   2.842  23.722  0.00  0.00    +0.035 C 
BRANCH  15  12
ATOM     12  C   UNL     1      -4.100   2.746  24.884  0.00  0.00    -0.009 C 
ATOM     13  C   UNL     1      -5.071   3.935  24.869  0.00  0.00    +0.003 C 
ATOM     14  C   UNL     1      -4.864   1.417  24.837  0.00  0.00    +0.003 C 
ATOM     16  C   UNL     1      -6.102   3.834  25.991  0.00  0.00    +0.000 C 
ATOM     17  C   UNL     1      -5.896   1.320  25.959  0.00  0.00    +0.000 C 
ATOM     18  C   UNL     1      -6.854   2.508  25.947  0.00  0.00    +0.000 C 
ENDBRANCH  15  12
ENDBRANCH  19  15
ENDBRANCH   9  19
ENDBRANCH  20  23
BRANCH   8   1
ATOM      1  S   UNL     1       3.125   1.040  22.119  0.00  0.00    +0.062 S 
ATOM      4  O   UNL     1       3.453   2.432  22.341  0.00  0.00    -0.153 OA
ATOM      5  O   UNL     1       3.119   0.479  20.784  0.00  0.00    -0.153 OA
BRANCH   1  27
ATOM     27  C   UNL     1       4.213   0.064  23.111  0.00  0.00    +0.106 A 
ATOM     29  C   UNL     1       5.359   0.643  23.630  0.00  0.00    +0.028 A 
ATOM     30  C   UNL     1       3.903  -1.263  23.351  0.00  0.00    +0.028 A 
ATOM     33  C   UNL     1       6.218  -0.127  24.413  0.00  0.00    +0.002 A 
ATOM     34  C   UNL     1       4.763  -2.035  24.134  0.00  0.00    +0.002 A 
ATOM     35  C   UNL     1       5.920  -1.467  24.664  0.00  0.00    +0.000 A 
ENDBRANCH   1  27
ENDBRANCH   8   1
TORSDOF 8
ENDMDL
