MODEL 1
REMARK VINA RESULT:      -2.8      0.000      0.000
REMARK  Name = 75368653
REMARK  4 active torsions:
REMARK  status: ('A' for Active; 'I' for Inactive)
REMARK    1  A    between atoms: N_2  and  C_6
REMARK    2  A    between atoms: N_4  and  C_17
REMARK    3  A    between atoms: C_17  and  C_18
REMARK    4  A    between atoms: C_17  and  C_19
REMARK                            x       y       z     vdW  Elec       q    Type
REMARK                         _______ _______ _______ _____ _____    ______ ____
ROOT
ATOM      1  O   UNL     1      -0.312  -1.927  23.890  0.00  0.00    -0.252 OA
ATOM      2  N   UNL     1       0.580   0.256  23.824  0.00  0.00    -0.281 N 
ATOM      3  N   UNL     1      -1.486  -0.041  24.653  0.00  0.00    -0.278 N 
ATOM      4  N   UNL     1      -3.633   1.734  25.042  0.00  0.00    -0.297 NA
ATOM      5  C   UNL     1      -1.205   1.362  24.872  0.00  0.00    +0.109 C 
ATOM      7  C   UNL     1       0.093   1.597  24.104  0.00  0.00    +0.133 C 
ATOM      8  C   UNL     1      -2.386   2.219  24.415  0.00  0.00    +0.108 C 
ATOM      9  C   UNL     1      -2.751  -0.589  25.098  0.00  0.00    +0.125 C 
ATOM     12  C   UNL     1      -0.395  -0.724  24.099  0.00  0.00    +0.305 C 
ATOM     13  C   UNL     1      -3.898   0.330  24.670  0.00  0.00    +0.103 C 
ENDROOT
BRANCH   2   6
ATOM      6  C   UNL     1       1.858   0.021  23.197  0.00  0.00    +0.078 C 
ATOM     10  C   UNL     1       2.660  -1.017  23.985  0.00  0.00    +0.022 C 
ATOM     11  C   UNL     1       2.637   1.330  23.046  0.00  0.00    +0.022 C 
ATOM     14  C   UNL     1       4.038  -1.247  23.372  0.00  0.00    +0.002 C 
ATOM     15  C   UNL     1       4.015   1.097  22.433  0.00  0.00    +0.002 C 
ATOM     16  C   UNL     1       4.812   0.059  23.219  0.00  0.00    +0.000 C 
ENDBRANCH   2   6
BRANCH   4  17
ATOM     17  C   UNL     1      -4.759   2.585  24.658  0.00  0.00    +0.051 C 
ATOM     18  C   UNL     1      -4.679   3.928  25.380  0.00  0.00    +0.024 C 
ATOM     19  C   UNL     1      -6.068   1.869  24.977  0.00  0.00    +0.024 C 
ENDBRANCH   4  17
TORSDOF 2
ENDMDL
MODEL 2
REMARK VINA RESULT:      -2.2      1.335      6.738
REMARK  Name = 75368653
REMARK  4 active torsions:
REMARK  status: ('A' for Active; 'I' for Inactive)
REMARK    1  A    between atoms: N_2  and  C_6
REMARK    2  A    between atoms: N_4  and  C_17
REMARK    3  A    between atoms: C_17  and  C_18
REMARK    4  A    between atoms: C_17  and  C_19
REMARK                            x       y       z     vdW  Elec       q    Type
REMARK                         _______ _______ _______ _____ _____    ______ ____
ROOT
ATOM      1  O   UNL     1      -2.449  -0.747  25.995  0.00  0.00    -0.252 OA
ATOM      2  N   UNL     1      -2.382   1.287  24.802  0.00  0.00    -0.281 N 
ATOM      3  N   UNL     1      -0.932  -0.337  24.250  0.00  0.00    -0.278 N 
ATOM      4  N   UNL     1       1.507  -0.287  22.850  0.00  0.00    -0.297 NA
ATOM      5  C   UNL     1      -0.710   0.700  23.263  0.00  0.00    +0.109 C 
ATOM      7  C   UNL     1      -1.529   1.878  23.784  0.00  0.00    +0.133 C 
ATOM      8  C   UNL     1       0.786   0.975  23.109  0.00  0.00    +0.108 C 
ATOM      9  C   UNL     1      -0.165  -1.563  24.175  0.00  0.00    +0.125 C 
ATOM     12  C   UNL     1      -1.982  -0.026  25.124  0.00  0.00    +0.305 C 
ATOM     13  C   UNL     1       1.317  -1.241  23.962  0.00  0.00    +0.103 C 
ENDROOT
BRANCH   2   6
ATOM      6  C   UNL     1      -3.404   2.047  25.481  0.00  0.00    +0.078 C 
ATOM     10  C   UNL     1      -4.796   1.594  25.032  0.00  0.00    +0.022 C 
ATOM     11  C   UNL     1      -3.205   3.547  25.252  0.00  0.00    +0.022 C 
ATOM     14  C   UNL     1      -5.895   2.418  25.696  0.00  0.00    +0.002 C 
ATOM     15  C   UNL     1      -4.308   4.368  25.917  0.00  0.00    +0.002 C 
ATOM     16  C   UNL     1      -5.694   3.913  25.471  0.00  0.00    +0.000 C 
ENDBRANCH   2   6
BRANCH   4  17
ATOM     17  C   UNL     1       2.931  -0.026  22.641  0.00  0.00    +0.051 C 
ATOM     18  C   UNL     1       3.773  -0.930  23.538  0.00  0.00    +0.024 C 
ATOM     19  C   UNL     1       3.224   1.445  22.916  0.00  0.00    +0.024 C 
ENDBRANCH   4  17
TORSDOF 2
ENDMDL
MODEL 3
REMARK VINA RESULT:      -1.9      1.876      7.157
REMARK  Name = 75368653
REMARK  4 active torsions:
REMARK  status: ('A' for Active; 'I' for Inactive)
REMARK    1  A    between atoms: N_2  and  C_6
REMARK    2  A    between atoms: N_4  and  C_17
REMARK    3  A    between atoms: C_17  and  C_18
REMARK    4  A    between atoms: C_17  and  C_19
REMARK                            x       y       z     vdW  Elec       q    Type
REMARK                         _______ _______ _______ _____ _____    ______ ____
ROOT
ATOM      1  O   UNL     1      -1.655   3.945  24.947  0.00  0.00    -0.252 OA
ATOM      2  N   UNL     1      -2.684   1.853  24.586  0.00  0.00    -0.281 N 
ATOM      3  N   UNL     1      -0.441   1.966  24.587  0.00  0.00    -0.278 N 
ATOM      4  N   UNL     1       1.532   0.248  23.554  0.00  0.00    -0.297 NA
ATOM      5  C   UNL     1      -0.734   0.553  24.468  0.00  0.00    +0.109 C 
ATOM      7  C   UNL     1      -2.242   0.513  24.238  0.00  0.00    +0.133 C 
ATOM      8  C   UNL     1       0.104  -0.071  23.352  0.00  0.00    +0.108 C 
ATOM      9  C   UNL     1       0.939   2.402  24.643  0.00  0.00    +0.125 C 
ATOM     12  C   UNL     1      -1.599   2.740  24.737  0.00  0.00    +0.305 C 
ATOM     13  C   UNL     1       1.751   1.709  23.547  0.00  0.00    +0.103 C 
ENDROOT
BRANCH   2   6
ATOM      6  C   UNL     1      -4.080   2.217  24.611  0.00  0.00    +0.078 C 
ATOM     10  C   UNL     1      -4.323   3.345  25.617  0.00  0.00    +0.022 C 
ATOM     11  C   UNL     1      -4.952   0.998  24.920  0.00  0.00    +0.022 C 
ATOM     14  C   UNL     1      -5.801   3.714  25.701  0.00  0.00    +0.002 C 
ATOM     15  C   UNL     1      -6.430   1.371  25.005  0.00  0.00    +0.002 C 
ATOM     16  C   UNL     1      -6.670   2.498  26.006  0.00  0.00    +0.000 C 
ENDBRANCH   2   6
BRANCH   4  17
ATOM     17  C   UNL     1       2.348  -0.395  22.524  0.00  0.00    +0.051 C 
ATOM     18  C   UNL     1       3.602   0.431  22.250  0.00  0.00    +0.024 C 
ATOM     19  C   UNL     1       1.520  -0.571  21.256  0.00  0.00    +0.024 C 
ENDBRANCH   4  17
TORSDOF 2
ENDMDL
MODEL 4
REMARK VINA RESULT:      -1.6      1.986      2.801
REMARK  Name = 75368653
REMARK  4 active torsions:
REMARK  status: ('A' for Active; 'I' for Inactive)
REMARK    1  A    between atoms: N_2  and  C_6
REMARK    2  A    between atoms: N_4  and  C_17
REMARK    3  A    between atoms: C_17  and  C_18
REMARK    4  A    between atoms: C_17  and  C_19
REMARK                            x       y       z     vdW  Elec       q    Type
REMARK                         _______ _______ _______ _____ _____    ______ ____
ROOT
ATOM      1  O   UNL     1       0.345   2.917  26.045  0.00  0.00    -0.252 OA
ATOM      2  N   UNL     1      -0.343   1.703  24.143  0.00  0.00    -0.281 N 
ATOM      3  N   UNL     1      -1.826   3.051  25.157  0.00  0.00    -0.278 N 
ATOM      4  N   UNL     1      -4.636   3.142  25.097  0.00  0.00    -0.297 NA
ATOM      5  C   UNL     1      -2.518   2.568  23.980  0.00  0.00    +0.109 C 
ATOM      7  C   UNL     1      -1.592   1.485  23.432  0.00  0.00    +0.133 C 
ATOM      8  C   UNL     1      -3.921   2.087  24.350  0.00  0.00    +0.108 C 
ATOM      9  C   UNL     1      -2.496   3.979  26.043  0.00  0.00    +0.125 C 
ATOM     12  C   UNL     1      -0.500   2.601  25.218  0.00  0.00    +0.305 C 
ATOM     13  C   UNL     1      -3.916   3.489  26.338  0.00  0.00    +0.103 C 
ENDROOT
BRANCH   2   6
ATOM      6  C   UNL     1       0.851   0.950  23.841  0.00  0.00    +0.078 C 
ATOM     10  C   UNL     1       1.971   1.884  23.374  0.00  0.00    +0.022 C 
ATOM     11  C   UNL     1       0.559  -0.134  22.801  0.00  0.00    +0.022 C 
ATOM     14  C   UNL     1       3.230   1.108  22.998  0.00  0.00    +0.002 C 
ATOM     15  C   UNL     1       1.821  -0.908  22.427  0.00  0.00    +0.002 C 
ATOM     16  C   UNL     1       2.937   0.025  21.964  0.00  0.00    +0.000 C 
ENDBRANCH   2   6
BRANCH   4  17
ATOM     17  C   UNL     1      -6.001   2.714  25.402  0.00  0.00    +0.051 C 
ATOM     18  C   UNL     1      -6.094   2.231  26.847  0.00  0.00    +0.024 C 
ATOM     19  C   UNL     1      -6.419   1.615  24.429  0.00  0.00    +0.024 C 
ENDBRANCH   4  17
TORSDOF 2
ENDMDL
MODEL 5
REMARK VINA RESULT:      -0.9      1.453      6.813
REMARK  Name = 75368653
REMARK  4 active torsions:
REMARK  status: ('A' for Active; 'I' for Inactive)
REMARK    1  A    between atoms: N_2  and  C_6
REMARK    2  A    between atoms: N_4  and  C_17
REMARK    3  A    between atoms: C_17  and  C_18
REMARK    4  A    between atoms: C_17  and  C_19
REMARK                            x       y       z     vdW  Elec       q    Type
REMARK                         _______ _______ _______ _____ _____    ______ ____
ROOT
ATOM      1  O   UNL     1      -1.798  -0.361  23.638  0.00  0.00    -0.252 OA
ATOM      2  N   UNL     1      -0.916   1.679  24.427  0.00  0.00    -0.281 N 
ATOM      3  N   UNL     1       0.367   0.385  23.114  0.00  0.00    -0.278 N 
ATOM      4  N   UNL     1       3.148   0.291  22.702  0.00  0.00    -0.297 NA
ATOM      5  C   UNL     1       1.146   1.589  23.309  0.00  0.00    +0.109 C 
ATOM      7  C   UNL     1       0.371   2.354  24.380  0.00  0.00    +0.133 C 
ATOM      8  C   UNL     1       2.585   1.236  23.687  0.00  0.00    +0.108 C 
ATOM      9  C   UNL     1       0.896  -0.675  22.281  0.00  0.00    +0.125 C 
ATOM     12  C   UNL     1      -0.897   0.464  23.713  0.00  0.00    +0.305 C 
ATOM     13  C   UNL     1       2.355  -0.954  22.654  0.00  0.00    +0.103 C 
ENDROOT
BRANCH   2   6
ATOM      6  C   UNL     1      -2.002   2.160  25.245  0.00  0.00    +0.078 C 
ATOM     10  C   UNL     1      -3.350   1.815  24.605  0.00  0.00    +0.022 C 
ATOM     11  C   UNL     1      -1.871   3.665  25.491  0.00  0.00    +0.022 C 
ATOM     14  C   UNL     1      -4.517   2.358  25.425  0.00  0.00    +0.002 C 
ATOM     15  C   UNL     1      -3.041   4.204  26.311  0.00  0.00    +0.002 C 
ATOM     16  C   UNL     1      -4.383   3.857  25.673  0.00  0.00    +0.000 C 
ENDBRANCH   2   6
BRANCH   4  17
ATOM     17  C   UNL     1       4.544  -0.006  23.021  0.00  0.00    +0.051 C 
ATOM     18  C   UNL     1       4.642  -1.313  23.804  0.00  0.00    +0.024 C 
ATOM     19  C   UNL     1       5.142   1.153  23.811  0.00  0.00    +0.024 C 
ENDBRANCH   4  17
TORSDOF 2
ENDMDL
MODEL 6
REMARK VINA RESULT:      -0.7      1.651      2.300
REMARK  Name = 75368653
REMARK  4 active torsions:
REMARK  status: ('A' for Active; 'I' for Inactive)
REMARK    1  A    between atoms: N_2  and  C_6
REMARK    2  A    between atoms: N_4  and  C_17
REMARK    3  A    between atoms: C_17  and  C_18
REMARK    4  A    between atoms: C_17  and  C_19
REMARK                            x       y       z     vdW  Elec       q    Type
REMARK                         _______ _______ _______ _____ _____    ______ ____
ROOT
ATOM      1  O   UNL     1       1.533   2.402  24.187  0.00  0.00    -0.252 OA
ATOM      2  N   UNL     1       1.223   0.343  23.079  0.00  0.00    -0.281 N 
ATOM      3  N   UNL     1      -0.588   1.505  23.722  0.00  0.00    -0.278 N 
ATOM      4  N   UNL     1      -3.264   0.745  24.134  0.00  0.00    -0.297 NA
ATOM      5  C   UNL     1      -1.121   0.384  22.978  0.00  0.00    +0.109 C 
ATOM      7  C   UNL     1       0.095  -0.511  22.748  0.00  0.00    +0.133 C 
ATOM      8  C   UNL     1      -2.265  -0.272  23.752  0.00  0.00    +0.108 C 
ATOM      9  C   UNL     1      -1.498   2.488  24.272  0.00  0.00    +0.125 C 
ATOM     12  C   UNL     1       0.813   1.530  23.719  0.00  0.00    +0.305 C 
ATOM     13  C   UNL     1      -2.656   1.787  24.986  0.00  0.00    +0.103 C 
ENDROOT
BRANCH   2   6
ATOM      6  C   UNL     1       2.588  -0.086  22.892  0.00  0.00    +0.078 C 
ATOM     10  C   UNL     1       2.958  -1.161  23.918  0.00  0.00    +0.022 C 
ATOM     11  C   UNL     1       3.545   1.107  22.964  0.00  0.00    +0.022 C 
ATOM     14  C   UNL     1       4.414  -1.595  23.776  0.00  0.00    +0.002 C 
ATOM     15  C   UNL     1       5.001   0.668  22.824  0.00  0.00    +0.002 C 
ATOM     16  C   UNL     1       5.367  -0.405  23.845  0.00  0.00    +0.000 C 
ENDBRANCH   2   6
BRANCH   4  17
ATOM     17  C   UNL     1      -4.392   0.118  24.822  0.00  0.00    +0.051 C 
ATOM     18  C   UNL     1      -5.261   1.180  25.491  0.00  0.00    +0.024 C 
ATOM     19  C   UNL     1      -3.869  -0.886  25.845  0.00  0.00    +0.024 C 
ENDBRANCH   4  17
TORSDOF 2
ENDMDL
MODEL 7
REMARK VINA RESULT:       0.1      3.034      5.407
REMARK  Name = 75368653
REMARK  4 active torsions:
REMARK  status: ('A' for Active; 'I' for Inactive)
REMARK    1  A    between atoms: N_2  and  C_6
REMARK    2  A    between atoms: N_4  and  C_17
REMARK    3  A    between atoms: C_17  and  C_18
REMARK    4  A    between atoms: C_17  and  C_19
REMARK                            x       y       z     vdW  Elec       q    Type
REMARK                         _______ _______ _______ _____ _____    ______ ____
ROOT
ATOM      1  O   UNL     1       0.728   1.392  24.911  0.00  0.00    -0.252 OA
ATOM      2  N   UNL     1      -1.426   2.015  25.645  0.00  0.00    -0.281 N 
ATOM      3  N   UNL     1      -0.983  -0.163  25.324  0.00  0.00    -0.278 N 
ATOM      4  N   UNL     1      -2.660  -2.387  24.931  0.00  0.00    -0.297 NA
ATOM      5  C   UNL     1      -2.319  -0.142  25.882  0.00  0.00    +0.109 C 
ATOM      7  C   UNL     1      -2.691   1.339  25.878  0.00  0.00    +0.133 C 
ATOM      8  C   UNL     1      -3.250  -1.040  25.067  0.00  0.00    +0.108 C 
ATOM      9  C   UNL     1      -0.366  -1.435  25.012  0.00  0.00    +0.125 C 
ATOM     12  C   UNL     1      -0.414   1.115  25.253  0.00  0.00    +0.305 C 
ATOM     13  C   UNL     1      -1.352  -2.323  24.249  0.00  0.00    +0.103 C 
ENDROOT
BRANCH   2   6
ATOM      6  C   UNL     1      -1.309   3.453  25.675  0.00  0.00    +0.078 C 
ATOM     10  C   UNL     1      -2.688   4.100  25.833  0.00  0.00    +0.022 C 
ATOM     11  C   UNL     1      -0.593   3.965  24.423  0.00  0.00    +0.022 C 
ATOM     14  C   UNL     1      -2.599   5.623  25.815  0.00  0.00    +0.002 C 
ATOM     15  C   UNL     1      -0.507   5.489  24.408  0.00  0.00    +0.002 C 
ATOM     16  C   UNL     1      -1.882   6.132  24.568  0.00  0.00    +0.000 C 
ENDBRANCH   2   6
BRANCH   4  17
ATOM     17  C   UNL     1      -3.571  -3.271  24.204  0.00  0.00    +0.051 C 
ATOM     18  C   UNL     1      -2.800  -4.102  23.182  0.00  0.00    +0.024 C 
ATOM     19  C   UNL     1      -4.655  -2.439  23.528  0.00  0.00    +0.024 C 
ENDBRANCH   4  17
TORSDOF 2
ENDMDL
