MODEL 1
REMARK VINA RESULT:      -5.7      0.000      0.000
REMARK  Name = 75536632
REMARK  7 active torsions:
REMARK  status: ('A' for Active; 'I' for Inactive)
REMARK    1  A    between atoms: O_3  and  C_8
REMARK    2  A    between atoms: N_5  and  C_7
REMARK    3  A    between atoms: N_5  and  C_12
REMARK    4  A    between atoms: N_6  and  C_11
REMARK    5  A    between atoms: C_9  and  C_11
REMARK    6  A    between atoms: C_12  and  C_13
REMARK    7  A    between atoms: C_14  and  C_17
REMARK                            x       y       z     vdW  Elec       q    Type
REMARK                         _______ _______ _______ _____ _____    ______ ____
ROOT
ATOM      2  O   UNL     1       0.196   3.501  23.635  0.00  0.00    -0.371 OA
ATOM      7  C   UNL     1      -0.869   3.905  25.720  0.00  0.00    +0.111 C 
ATOM      8  C   UNL     1      -0.512   2.433  25.623  0.00  0.00    +0.164 C 
ATOM      9  C   UNL     1       0.574   2.464  24.556  0.00  0.00    +0.165 C 
ATOM     10  C   UNL     1      -0.803   4.326  24.260  0.00  0.00    +0.181 C 
ENDROOT
BRANCH   8   3
ATOM      3  O   UNL     1      -0.035   1.906  26.846  0.00  0.00    -0.388 OA
ATOM     27  H   UNL     1       0.575   1.175  26.646  0.00  0.00    +0.210 HD
ENDBRANCH   8   3
BRANCH   7   5
ATOM      5  N   UNL     1      -2.170   4.151  26.320  0.00  0.00    -0.305 NA
ATOM     26  H   UNL     1      -2.092   4.927  26.978  0.00  0.00    +0.123 HD
BRANCH   5  12
ATOM     12  C   UNL     1      -3.161   4.490  25.305  0.00  0.00    +0.119 C 
BRANCH  12  13
ATOM      1  F   UNL     1      -3.594   2.855  23.034  0.00  0.00    -0.205 F 
ATOM     13  C   UNL     1      -4.260   3.463  25.229  0.00  0.00    +0.002 A 
ATOM     15  C   UNL     1      -4.416   2.691  24.079  0.00  0.00    +0.128 A 
ATOM     16  C   UNL     1      -5.121   3.286  26.312  0.00  0.00    +0.008 A 
ATOM     18  C   UNL     1      -5.435   1.740  24.011  0.00  0.00    +0.038 A 
ATOM     19  C   UNL     1      -6.139   2.335  26.244  0.00  0.00    +0.000 A 
ATOM     20  C   UNL     1      -6.296   1.562  25.094  0.00  0.00    +0.003 A 
ENDBRANCH  12  13
ENDBRANCH   5  12
ENDBRANCH   7   5
BRANCH   9  11
ATOM     11  C   UNL     1       0.724   1.148  23.813  0.00  0.00    +0.138 C 
BRANCH  11   6
ATOM      4  O   UNL     1       0.202  -1.340  25.149  0.00  0.00    -0.270 OA
ATOM      6  N   UNL     1      -0.506   0.411  23.801  0.00  0.00    -0.309 N 
ATOM     14  C   UNL     1      -0.670  -0.793  24.480  0.00  0.00    +0.244 C 
ATOM     28  H   UNL     1      -1.246   0.772  23.208  0.00  0.00    +0.149 HD
BRANCH  14  17
ATOM     17  C   UNL     1      -1.998  -1.445  24.345  0.00  0.00    +0.037 A 
ATOM     21  C   UNL     1      -2.126  -2.817  24.563  0.00  0.00    +0.013 A 
ATOM     22  C   UNL     1      -3.117  -0.686  24.004  0.00  0.00    +0.013 A 
ATOM     23  C   UNL     1      -3.373  -3.431  24.438  0.00  0.00    +0.001 A 
ATOM     24  C   UNL     1      -4.364  -1.299  23.879  0.00  0.00    +0.001 A 
ATOM     25  C   UNL     1      -4.492  -2.671  24.096  0.00  0.00    +0.000 A 
ENDBRANCH  14  17
ENDBRANCH  11   6
ENDBRANCH   9  11
TORSDOF 7
ENDMDL
MODEL 2
REMARK VINA RESULT:      -5.5      2.254      4.606
REMARK  Name = 75536632
REMARK  7 active torsions:
REMARK  status: ('A' for Active; 'I' for Inactive)
REMARK    1  A    between atoms: O_3  and  C_8
REMARK    2  A    between atoms: N_5  and  C_7
REMARK    3  A    between atoms: N_5  and  C_12
REMARK    4  A    between atoms: N_6  and  C_11
REMARK    5  A    between atoms: C_9  and  C_11
REMARK    6  A    between atoms: C_12  and  C_13
REMARK    7  A    between atoms: C_14  and  C_17
REMARK                            x       y       z     vdW  Elec       q    Type
REMARK                         _______ _______ _______ _____ _____    ______ ____
ROOT
ATOM      2  O   UNL     1      -3.861   3.623  26.785  0.00  0.00    -0.371 OA
ATOM      7  C   UNL     1      -2.227   4.367  25.229  0.00  0.00    +0.111 C 
ATOM      8  C   UNL     1      -3.419   3.815  24.470  0.00  0.00    +0.164 C 
ATOM      9  C   UNL     1      -4.507   3.897  25.531  0.00  0.00    +0.165 C 
ATOM     10  C   UNL     1      -2.440   3.758  26.606  0.00  0.00    +0.181 C 
ENDROOT
BRANCH   8   3
ATOM      3  O   UNL     1      -3.740   4.581  23.325  0.00  0.00    -0.388 OA
ATOM     27  H   UNL     1      -3.896   5.499  23.605  0.00  0.00    +0.210 HD
ENDBRANCH   8   3
BRANCH   7   5
ATOM      5  N   UNL     1      -0.946   4.008  24.643  0.00  0.00    -0.305 NA
ATOM     26  H   UNL     1      -0.380   4.850  24.540  0.00  0.00    +0.123 HD
BRANCH   5  12
ATOM     12  C   UNL     1      -0.229   3.059  25.489  0.00  0.00    +0.119 C 
BRANCH  12  13
ATOM      1  F   UNL     1      -1.396   0.607  26.293  0.00  0.00    -0.205 F 
ATOM     13  C   UNL     1       0.024   1.756  24.778  0.00  0.00    +0.002 A 
ATOM     15  C   UNL     1      -0.584   0.585  25.228  0.00  0.00    +0.128 A 
ATOM     16  C   UNL     1       0.868   1.723  23.669  0.00  0.00    +0.008 A 
ATOM     18  C   UNL     1      -0.347  -0.622  24.567  0.00  0.00    +0.038 A 
ATOM     19  C   UNL     1       1.105   0.518  23.008  0.00  0.00    +0.000 A 
ATOM     20  C   UNL     1       0.497  -0.655  23.458  0.00  0.00    +0.003 A 
ENDBRANCH  12  13
ENDBRANCH   5  12
ENDBRANCH   7   5
BRANCH   9  11
ATOM     11  C   UNL     1      -5.638   2.908  25.311  0.00  0.00    +0.138 C 
BRANCH  11   6
ATOM      4  O   UNL     1      -4.082   1.475  23.369  0.00  0.00    -0.270 OA
ATOM      6  N   UNL     1      -5.176   1.554  25.413  0.00  0.00    -0.309 N 
ATOM     14  C   UNL     1      -4.424   0.937  24.419  0.00  0.00    +0.244 C 
ATOM     28  H   UNL     1      -5.486   1.029  26.224  0.00  0.00    +0.149 HD
BRANCH  14  17
ATOM     17  C   UNL     1      -4.046  -0.478  24.666  0.00  0.00    +0.037 A 
ATOM     21  C   UNL     1      -4.106  -1.407  23.627  0.00  0.00    +0.013 A 
ATOM     22  C   UNL     1      -3.629  -0.878  25.935  0.00  0.00    +0.013 A 
ATOM     23  C   UNL     1      -3.750  -2.737  23.858  0.00  0.00    +0.001 A 
ATOM     24  C   UNL     1      -3.273  -2.206  26.166  0.00  0.00    +0.001 A 
ATOM     25  C   UNL     1      -3.334  -3.135  25.128  0.00  0.00    +0.000 A 
ENDBRANCH  14  17
ENDBRANCH  11   6
ENDBRANCH   9  11
TORSDOF 7
ENDMDL
MODEL 3
REMARK VINA RESULT:      -5.1      2.064      4.758
REMARK  Name = 75536632
REMARK  7 active torsions:
REMARK  status: ('A' for Active; 'I' for Inactive)
REMARK    1  A    between atoms: O_3  and  C_8
REMARK    2  A    between atoms: N_5  and  C_7
REMARK    3  A    between atoms: N_5  and  C_12
REMARK    4  A    between atoms: N_6  and  C_11
REMARK    5  A    between atoms: C_9  and  C_11
REMARK    6  A    between atoms: C_12  and  C_13
REMARK    7  A    between atoms: C_14  and  C_17
REMARK                            x       y       z     vdW  Elec       q    Type
REMARK                         _______ _______ _______ _____ _____    ______ ____
ROOT
ATOM      2  O   UNL     1      -1.348  -2.027  23.517  0.00  0.00    -0.371 OA
ATOM      7  C   UNL     1       0.130  -0.618  24.730  0.00  0.00    +0.111 C 
ATOM      8  C   UNL     1      -1.167  -0.759  25.504  0.00  0.00    +0.164 C 
ATOM      9  C   UNL     1      -1.731  -2.038  24.902  0.00  0.00    +0.165 C 
ATOM     10  C   UNL     1      -0.301  -1.056  23.339  0.00  0.00    +0.181 C 
ENDROOT
BRANCH   8   3
ATOM      3  O   UNL     1      -0.960  -0.879  26.899  0.00  0.00    -0.388 OA
ATOM     27  H   UNL     1      -0.955   0.013  27.285  0.00  0.00    +0.210 HD
ENDBRANCH   8   3
BRANCH   7   5
ATOM      5  N   UNL     1       0.680   0.728  24.753  0.00  0.00    -0.305 NA
ATOM     26  H   UNL     1       1.658   0.693  24.466  0.00  0.00    +0.123 HD
BRANCH   5  12
ATOM     12  C   UNL     1      -0.047   1.608  23.845  0.00  0.00    +0.119 C 
BRANCH  12  13
ATOM      1  F   UNL     1       0.248   4.313  23.059  0.00  0.00    -0.205 F 
ATOM     13  C   UNL     1      -0.699   2.752  24.575  0.00  0.00    +0.002 A 
ATOM     15  C   UNL     1      -0.512   4.061  24.133  0.00  0.00    +0.128 A 
ATOM     16  C   UNL     1      -1.491   2.499  25.694  0.00  0.00    +0.008 A 
ATOM     18  C   UNL     1      -1.118   5.119  24.813  0.00  0.00    +0.038 A 
ATOM     19  C   UNL     1      -2.097   3.556  26.373  0.00  0.00    +0.000 A 
ATOM     20  C   UNL     1      -1.910   4.866  25.932  0.00  0.00    +0.003 A 
ENDBRANCH  12  13
ENDBRANCH   5  12
ENDBRANCH   7   5
BRANCH   9  11
ATOM     11  C   UNL     1      -3.242  -2.140  25.015  0.00  0.00    +0.138 C 
BRANCH  11   6
ATOM      4  O   UNL     1      -3.688  -0.070  23.075  0.00  0.00    -0.270 OA
ATOM      6  N   UNL     1      -3.837  -0.857  25.253  0.00  0.00    -0.309 N 
ATOM     14  C   UNL     1      -4.015   0.090  24.248  0.00  0.00    +0.244 C 
ATOM     28  H   UNL     1      -4.063  -0.633  26.216  0.00  0.00    +0.149 HD
BRANCH  14  17
ATOM     17  C   UNL     1      -4.621   1.380  24.664  0.00  0.00    +0.037 A 
ATOM     21  C   UNL     1      -5.494   1.423  25.751  0.00  0.00    +0.013 A 
ATOM     22  C   UNL     1      -4.317   2.551  23.968  0.00  0.00    +0.013 A 
ATOM     23  C   UNL     1      -6.064   2.635  26.143  0.00  0.00    +0.001 A 
ATOM     24  C   UNL     1      -4.886   3.762  24.360  0.00  0.00    +0.001 A 
ATOM     25  C   UNL     1      -5.759   3.804  25.447  0.00  0.00    +0.000 A 
ENDBRANCH  14  17
ENDBRANCH  11   6
ENDBRANCH   9  11
TORSDOF 7
ENDMDL
MODEL 4
REMARK VINA RESULT:      -5.0      2.086      4.625
REMARK  Name = 75536632
REMARK  7 active torsions:
REMARK  status: ('A' for Active; 'I' for Inactive)
REMARK    1  A    between atoms: O_3  and  C_8
REMARK    2  A    between atoms: N_5  and  C_7
REMARK    3  A    between atoms: N_5  and  C_12
REMARK    4  A    between atoms: N_6  and  C_11
REMARK    5  A    between atoms: C_9  and  C_11
REMARK    6  A    between atoms: C_12  and  C_13
REMARK    7  A    between atoms: C_14  and  C_17
REMARK                            x       y       z     vdW  Elec       q    Type
REMARK                         _______ _______ _______ _____ _____    ______ ____
ROOT
ATOM      2  O   UNL     1      -3.066   3.973  23.625  0.00  0.00    -0.371 OA
ATOM      7  C   UNL     1      -4.441   2.921  25.252  0.00  0.00    +0.111 C 
ATOM      8  C   UNL     1      -3.122   3.309  25.894  0.00  0.00    +0.164 C 
ATOM      9  C   UNL     1      -2.632   4.383  24.933  0.00  0.00    +0.165 C 
ATOM     10  C   UNL     1      -4.080   2.964  23.776  0.00  0.00    +0.181 C 
ENDROOT
BRANCH   8   3
ATOM      3  O   UNL     1      -3.281   3.811  27.208  0.00  0.00    -0.388 OA
ATOM     27  H   UNL     1      -3.902   3.232  27.683  0.00  0.00    +0.210 HD
ENDBRANCH   8   3
BRANCH   7   5
ATOM      5  N   UNL     1      -4.936   1.622  25.676  0.00  0.00    -0.305 NA
ATOM     26  H   UNL     1      -5.909   1.716  25.968  0.00  0.00    +0.123 HD
BRANCH   5  12
ATOM     12  C   UNL     1      -4.862   0.652  24.589  0.00  0.00    +0.119 C 
BRANCH  12  13
ATOM      1  F   UNL     1      -4.967  -1.986  23.564  0.00  0.00    -0.205 F 
ATOM     13  C   UNL     1      -3.774  -0.363  24.818  0.00  0.00    +0.002 A 
ATOM     15  C   UNL     1      -3.890  -1.646  24.284  0.00  0.00    +0.128 A 
ATOM     16  C   UNL     1      -2.649  -0.018  25.567  0.00  0.00    +0.008 A 
ATOM     18  C   UNL     1      -2.880  -2.585  24.499  0.00  0.00    +0.038 A 
ATOM     19  C   UNL     1      -1.639  -0.956  25.781  0.00  0.00    +0.000 A 
ATOM     20  C   UNL     1      -1.755  -2.240  25.247  0.00  0.00    +0.003 A 
ENDBRANCH  12  13
ENDBRANCH   5  12
ENDBRANCH   7   5
BRANCH   9  11
ATOM     11  C   UNL     1      -1.123   4.554  24.942  0.00  0.00    +0.138 C 
BRANCH  11   6
ATOM      4  O   UNL     1       0.382   2.364  26.031  0.00  0.00    -0.270 OA
ATOM      6  N   UNL     1      -0.474   3.509  24.204  0.00  0.00    -0.309 N 
ATOM     14  C   UNL     1       0.237   2.482  24.817  0.00  0.00    +0.244 C 
ATOM     28  H   UNL     1      -0.494   3.588  23.193  0.00  0.00    +0.149 HD
BRANCH  14  17
ATOM     17  C   UNL     1       0.873   1.492  23.910  0.00  0.00    +0.037 A 
ATOM     21  C   UNL     1       2.224   1.612  23.585  0.00  0.00    +0.013 A 
ATOM     22  C   UNL     1       0.120   0.442  23.386  0.00  0.00    +0.013 A 
ATOM     23  C   UNL     1       2.823   0.681  22.734  0.00  0.00    +0.001 A 
ATOM     24  C   UNL     1       0.717  -0.488  22.535  0.00  0.00    +0.001 A 
ATOM     25  C   UNL     1       2.069  -0.368  22.210  0.00  0.00    +0.000 A 
ENDBRANCH  14  17
ENDBRANCH  11   6
ENDBRANCH   9  11
TORSDOF 7
ENDMDL
MODEL 5
REMARK VINA RESULT:      -4.9      2.961      6.923
REMARK  Name = 75536632
REMARK  7 active torsions:
REMARK  status: ('A' for Active; 'I' for Inactive)
REMARK    1  A    between atoms: O_3  and  C_8
REMARK    2  A    between atoms: N_5  and  C_7
REMARK    3  A    between atoms: N_5  and  C_12
REMARK    4  A    between atoms: N_6  and  C_11
REMARK    5  A    between atoms: C_9  and  C_11
REMARK    6  A    between atoms: C_12  and  C_13
REMARK    7  A    between atoms: C_14  and  C_17
REMARK                            x       y       z     vdW  Elec       q    Type
REMARK                         _______ _______ _______ _____ _____    ______ ____
ROOT
ATOM      2  O   UNL     1      -1.709  -2.649  23.904  0.00  0.00    -0.371 OA
ATOM      7  C   UNL     1       0.011  -1.085  24.399  0.00  0.00    +0.111 C 
ATOM      8  C   UNL     1      -1.181  -0.813  25.299  0.00  0.00    +0.164 C 
ATOM      9  C   UNL     1      -1.906  -2.150  25.238  0.00  0.00    +0.165 C 
ATOM     10  C   UNL     1      -0.629  -1.916  23.298  0.00  0.00    +0.181 C 
ENDROOT
BRANCH   8   3
ATOM      3  O   UNL     1      -0.801  -0.479  26.620  0.00  0.00    -0.388 OA
ATOM     27  H   UNL     1       0.103  -0.802  26.770  0.00  0.00    +0.210 HD
ENDBRANCH   8   3
BRANCH   7   5
ATOM      5  N   UNL     1       0.651   0.120  23.898  0.00  0.00    -0.305 NA
ATOM     26  H   UNL     1       1.225   0.524  24.638  0.00  0.00    +0.123 HD
BRANCH   5  12
ATOM     12  C   UNL     1       1.500  -0.175  22.749  0.00  0.00    +0.119 C 
BRANCH  12  13
ATOM      1  F   UNL     1       3.273   2.028  22.605  0.00  0.00    -0.205 F 
ATOM     13  C   UNL     1       2.953  -0.262  23.135  0.00  0.00    +0.002 A 
ATOM     15  C   UNL     1       3.771   0.863  23.039  0.00  0.00    +0.128 A 
ATOM     16  C   UNL     1       3.479  -1.472  23.587  0.00  0.00    +0.008 A 
ATOM     18  C   UNL     1       5.117   0.778  23.397  0.00  0.00    +0.038 A 
ATOM     19  C   UNL     1       4.824  -1.557  23.945  0.00  0.00    +0.000 A 
ATOM     20  C   UNL     1       5.644  -0.432  23.849  0.00  0.00    +0.003 A 
ENDBRANCH  12  13
ENDBRANCH   5  12
ENDBRANCH   7   5
BRANCH   9  11
ATOM     11  C   UNL     1      -3.393  -2.041  25.529  0.00  0.00    +0.138 C 
BRANCH  11   6
ATOM      4  O   UNL     1      -3.973  -0.248  23.362  0.00  0.00    -0.270 OA
ATOM      6  N   UNL     1      -3.805  -0.671  25.637  0.00  0.00    -0.309 N 
ATOM     14  C   UNL     1      -4.066   0.127  24.528  0.00  0.00    +0.244 C 
ATOM     28  H   UNL     1      -3.832  -0.278  26.572  0.00  0.00    +0.149 HD
BRANCH  14  17
ATOM     17  C   UNL     1      -4.458   1.532  24.809  0.00  0.00    +0.037 A 
ATOM     21  C   UNL     1      -5.651   1.803  25.479  0.00  0.00    +0.013 A 
ATOM     22  C   UNL     1      -3.631   2.581  24.406  0.00  0.00    +0.013 A 
ATOM     23  C   UNL     1      -6.019   3.122  25.745  0.00  0.00    +0.001 A 
ATOM     24  C   UNL     1      -3.999   3.900  24.672  0.00  0.00    +0.001 A 
ATOM     25  C   UNL     1      -5.193   4.170  25.342  0.00  0.00    +0.000 A 
ENDBRANCH  14  17
ENDBRANCH  11   6
ENDBRANCH   9  11
TORSDOF 7
ENDMDL
MODEL 6
REMARK VINA RESULT:      -4.3      1.590      5.035
REMARK  Name = 75536632
REMARK  7 active torsions:
REMARK  status: ('A' for Active; 'I' for Inactive)
REMARK    1  A    between atoms: O_3  and  C_8
REMARK    2  A    between atoms: N_5  and  C_7
REMARK    3  A    between atoms: N_5  and  C_12
REMARK    4  A    between atoms: N_6  and  C_11
REMARK    5  A    between atoms: C_9  and  C_11
REMARK    6  A    between atoms: C_12  and  C_13
REMARK    7  A    between atoms: C_14  and  C_17
REMARK                            x       y       z     vdW  Elec       q    Type
REMARK                         _______ _______ _______ _____ _____    ______ ____
ROOT
ATOM      2  O   UNL     1      -0.968  -0.536  26.281  0.00  0.00    -0.371 OA
ATOM      7  C   UNL     1      -2.548  -2.063  25.377  0.00  0.00    +0.111 C 
ATOM      8  C   UNL     1      -1.649  -1.563  24.262  0.00  0.00    +0.164 C 
ATOM      9  C   UNL     1      -0.445  -1.071  25.053  0.00  0.00    +0.165 C 
ATOM     10  C   UNL     1      -2.318  -1.006  26.446  0.00  0.00    +0.181 C 
ENDROOT
BRANCH   8   3
ATOM      3  O   UNL     1      -1.298  -2.581  23.346  0.00  0.00    -0.388 OA
ATOM     27  H   UNL     1      -2.111  -3.034  23.065  0.00  0.00    +0.210 HD
ENDBRANCH   8   3
BRANCH   7   5
ATOM      5  N   UNL     1      -3.945  -2.182  24.992  0.00  0.00    -0.305 NA
ATOM     26  H   UNL     1      -4.532  -1.881  25.770  0.00  0.00    +0.123 HD
BRANCH   5  12
ATOM     12  C   UNL     1      -4.241  -1.353  23.829  0.00  0.00    +0.119 C 
BRANCH  12  13
ATOM      1  F   UNL     1      -2.959   0.852  22.599  0.00  0.00    -0.205 F 
ATOM     13  C   UNL     1      -4.513   0.077  24.215  0.00  0.00    +0.002 A 
ATOM     15  C   UNL     1      -3.846   1.115  23.568  0.00  0.00    +0.128 A 
ATOM     16  C   UNL     1      -5.435   0.360  25.223  0.00  0.00    +0.008 A 
ATOM     18  C   UNL     1      -4.100   2.439  23.928  0.00  0.00    +0.038 A 
ATOM     19  C   UNL     1      -5.689   1.683  25.584  0.00  0.00    +0.000 A 
ATOM     20  C   UNL     1      -5.021   2.723  24.936  0.00  0.00    +0.003 A 
ENDBRANCH  12  13
ENDBRANCH   5  12
ENDBRANCH   7   5
BRANCH   9  11
ATOM     11  C   UNL     1       0.355  -0.003  24.329  0.00  0.00    +0.138 C 
BRANCH  11   6
ATOM      4  O   UNL     1       0.903   2.090  26.217  0.00  0.00    -0.270 OA
ATOM      6  N   UNL     1      -0.292   1.275  24.403  0.00  0.00    -0.309 N 
ATOM     14  C   UNL     1       0.039   2.233  25.356  0.00  0.00    +0.244 C 
ATOM     28  H   UNL     1      -1.065   1.430  23.764  0.00  0.00    +0.149 HD
BRANCH  14  17
ATOM     17  C   UNL     1      -0.743   3.496  25.315  0.00  0.00    +0.037 A 
ATOM     21  C   UNL     1      -0.324   4.549  24.502  0.00  0.00    +0.013 A 
ATOM     22  C   UNL     1      -1.897   3.627  26.087  0.00  0.00    +0.013 A 
ATOM     23  C   UNL     1      -1.059   5.735  24.462  0.00  0.00    +0.001 A 
ATOM     24  C   UNL     1      -2.632   4.811  26.047  0.00  0.00    +0.001 A 
ATOM     25  C   UNL     1      -2.213   5.865  25.234  0.00  0.00    +0.000 A 
ENDBRANCH  14  17
ENDBRANCH  11   6
ENDBRANCH   9  11
TORSDOF 7
ENDMDL
MODEL 7
REMARK VINA RESULT:      -3.9      2.859      5.380
REMARK  Name = 75536632
REMARK  7 active torsions:
REMARK  status: ('A' for Active; 'I' for Inactive)
REMARK    1  A    between atoms: O_3  and  C_8
REMARK    2  A    between atoms: N_5  and  C_7
REMARK    3  A    between atoms: N_5  and  C_12
REMARK    4  A    between atoms: N_6  and  C_11
REMARK    5  A    between atoms: C_9  and  C_11
REMARK    6  A    between atoms: C_12  and  C_13
REMARK    7  A    between atoms: C_14  and  C_17
REMARK                            x       y       z     vdW  Elec       q    Type
REMARK                         _______ _______ _______ _____ _____    ______ ____
ROOT
ATOM      2  O   UNL     1      -0.870  -0.268  25.576  0.00  0.00    -0.371 OA
ATOM      7  C   UNL     1      -3.082  -1.117  25.755  0.00  0.00    +0.111 C 
ATOM      8  C   UNL     1      -2.551  -1.407  24.363  0.00  0.00    +0.164 C 
ATOM      9  C   UNL     1      -1.050  -1.302  24.594  0.00  0.00    +0.165 C 
ATOM     10  C   UNL     1      -2.136  -0.020  26.215  0.00  0.00    +0.181 C 
ENDROOT
BRANCH   8   3
ATOM      3  O   UNL     1      -2.924  -2.688  23.893  0.00  0.00    -0.388 OA
ATOM     27  H   UNL     1      -3.838  -2.863  24.173  0.00  0.00    +0.210 HD
ENDBRANCH   8   3
BRANCH   7   5
ATOM      5  N   UNL     1      -4.476  -0.706  25.773  0.00  0.00    -0.305 NA
ATOM     26  H   UNL     1      -4.628  -0.079  26.563  0.00  0.00    +0.123 HD
BRANCH   5  12
ATOM     12  C   UNL     1      -4.835  -0.009  24.543  0.00  0.00    +0.119 C 
BRANCH  12  13
ATOM      1  F   UNL     1      -3.020   1.568  23.046  0.00  0.00    -0.205 F 
ATOM     13  C   UNL     1      -4.726   1.485  24.693  0.00  0.00    +0.002 A 
ATOM     15  C   UNL     1      -3.810   2.201  23.923  0.00  0.00    +0.128 A 
ATOM     16  C   UNL     1      -5.543   2.152  25.605  0.00  0.00    +0.008 A 
ATOM     18  C   UNL     1      -3.711   3.586  24.065  0.00  0.00    +0.038 A 
ATOM     19  C   UNL     1      -5.445   3.536  25.747  0.00  0.00    +0.000 A 
ATOM     20  C   UNL     1      -4.529   4.253  24.977  0.00  0.00    +0.003 A 
ENDBRANCH  12  13
ENDBRANCH   5  12
ENDBRANCH   7   5
BRANCH   9  11
ATOM     11  C   UNL     1      -0.272  -0.956  23.337  0.00  0.00    +0.138 C 
BRANCH  11   6
ATOM      4  O   UNL     1       1.779  -0.239  21.459  0.00  0.00    -0.270 OA
ATOM      6  N   UNL     1       1.120  -0.758  23.622  0.00  0.00    -0.309 N 
ATOM     14  C   UNL     1       2.048  -0.410  22.645  0.00  0.00    +0.244 C 
ATOM     28  H   UNL     1       1.421  -0.954  24.571  0.00  0.00    +0.149 HD
BRANCH  14  17
ATOM     17  C   UNL     1       3.456  -0.269  23.099  0.00  0.00    +0.037 A 
ATOM     21  C   UNL     1       4.132   0.936  22.907  0.00  0.00    +0.013 A 
ATOM     22  C   UNL     1       4.100  -1.339  23.719  0.00  0.00    +0.013 A 
ATOM     23  C   UNL     1       5.454   1.070  23.334  0.00  0.00    +0.001 A 
ATOM     24  C   UNL     1       5.421  -1.205  24.145  0.00  0.00    +0.001 A 
ATOM     25  C   UNL     1       6.098  -0.001  23.954  0.00  0.00    +0.000 A 
ENDBRANCH  14  17
ENDBRANCH  11   6
ENDBRANCH   9  11
TORSDOF 7
ENDMDL
MODEL 8
REMARK VINA RESULT:      -3.4      2.742      4.868
REMARK  Name = 75536632
REMARK  7 active torsions:
REMARK  status: ('A' for Active; 'I' for Inactive)
REMARK    1  A    between atoms: O_3  and  C_8
REMARK    2  A    between atoms: N_5  and  C_7
REMARK    3  A    between atoms: N_5  and  C_12
REMARK    4  A    between atoms: N_6  and  C_11
REMARK    5  A    between atoms: C_9  and  C_11
REMARK    6  A    between atoms: C_12  and  C_13
REMARK    7  A    between atoms: C_14  and  C_17
REMARK                            x       y       z     vdW  Elec       q    Type
REMARK                         _______ _______ _______ _____ _____    ______ ____
ROOT
ATOM      2  O   UNL     1      -0.745   0.194  25.757  0.00  0.00    -0.371 OA
ATOM      7  C   UNL     1      -1.405   2.334  24.962  0.00  0.00    +0.111 C 
ATOM      8  C   UNL     1      -1.115   1.433  23.776  0.00  0.00    +0.164 C 
ATOM      9  C   UNL     1      -1.241   0.057  24.414  0.00  0.00    +0.165 C 
ATOM     10  C   UNL     1      -0.691   1.594  26.083  0.00  0.00    +0.181 C 
ENDROOT
BRANCH   8   3
ATOM      3  O   UNL     1      -2.037   1.610  22.718  0.00  0.00    -0.388 OA
ATOM     27  H   UNL     1      -2.789   1.011  22.864  0.00  0.00    +0.210 HD
ENDBRANCH   8   3
BRANCH   7   5
ATOM      5  N   UNL     1      -0.929   3.697  24.790  0.00  0.00    -0.305 NA
ATOM     26  H   UNL     1      -0.461   3.774  23.887  0.00  0.00    +0.123 HD
BRANCH   5  12
ATOM     12  C   UNL     1      -2.033   4.648  24.834  0.00  0.00    +0.119 C 
BRANCH  12  13
ATOM      1  F   UNL     1      -3.297   4.252  27.337  0.00  0.00    -0.205 F 
ATOM     13  C   UNL     1      -3.362   3.958  24.983  0.00  0.00    +0.002 A 
ATOM     15  C   UNL     1      -3.928   3.796  26.247  0.00  0.00    +0.128 A 
ATOM     16  C   UNL     1      -4.027   3.480  23.854  0.00  0.00    +0.008 A 
ATOM     18  C   UNL     1      -5.161   3.155  26.382  0.00  0.00    +0.038 A 
ATOM     19  C   UNL     1      -5.259   2.839  23.989  0.00  0.00    +0.000 A 
ATOM     20  C   UNL     1      -5.825   2.676  25.253  0.00  0.00    +0.003 A 
ENDBRANCH  12  13
ENDBRANCH   5  12
ENDBRANCH   7   5
BRANCH   9  11
ATOM     11  C   UNL     1      -0.456  -1.019  23.685  0.00  0.00    +0.138 C 
BRANCH  11   6
ATOM      4  O   UNL     1       1.420  -0.244  21.654  0.00  0.00    -0.270 OA
ATOM      6  N   UNL     1       0.958  -0.835  23.849  0.00  0.00    -0.309 N 
ATOM     14  C   UNL     1       1.795  -0.457  22.803  0.00  0.00    +0.244 C 
ATOM     28  H   UNL     1       1.343  -1.065  24.759  0.00  0.00    +0.149 HD
BRANCH  14  17
ATOM     17  C   UNL     1       3.238  -0.335  23.131  0.00  0.00    +0.037 A 
ATOM     21  C   UNL     1       3.917   0.853  22.863  0.00  0.00    +0.013 A 
ATOM     22  C   UNL     1       3.915  -1.410  23.709  0.00  0.00    +0.013 A 
ATOM     23  C   UNL     1       5.273   0.969  23.172  0.00  0.00    +0.001 A 
ATOM     24  C   UNL     1       5.271  -1.295  24.017  0.00  0.00    +0.001 A 
ATOM     25  C   UNL     1       5.949  -0.106  23.749  0.00  0.00    +0.000 A 
ENDBRANCH  14  17
ENDBRANCH  11   6
ENDBRANCH   9  11
TORSDOF 7
ENDMDL
MODEL 9
REMARK VINA RESULT:      -3.3      2.618      6.239
REMARK  Name = 75536632
REMARK  7 active torsions:
REMARK  status: ('A' for Active; 'I' for Inactive)
REMARK    1  A    between atoms: O_3  and  C_8
REMARK    2  A    between atoms: N_5  and  C_7
REMARK    3  A    between atoms: N_5  and  C_12
REMARK    4  A    between atoms: N_6  and  C_11
REMARK    5  A    between atoms: C_9  and  C_11
REMARK    6  A    between atoms: C_12  and  C_13
REMARK    7  A    between atoms: C_14  and  C_17
REMARK                            x       y       z     vdW  Elec       q    Type
REMARK                         _______ _______ _______ _____ _____    ______ ____
ROOT
ATOM      2  O   UNL     1      -4.352  -2.252  23.475  0.00  0.00    -0.371 OA
ATOM      7  C   UNL     1      -2.626  -2.577  25.075  0.00  0.00    +0.111 C 
ATOM      8  C   UNL     1      -3.352  -1.282  25.386  0.00  0.00    +0.164 C 
ATOM      9  C   UNL     1      -4.671  -1.503  24.660  0.00  0.00    +0.165 C 
ATOM     10  C   UNL     1      -3.035  -2.810  23.629  0.00  0.00    +0.181 C 
ENDROOT
BRANCH   8   3
ATOM      3  O   UNL     1      -3.542  -1.083  26.774  0.00  0.00    -0.388 OA
ATOM     27  H   UNL     1      -3.215  -0.197  27.003  0.00  0.00    +0.210 HD
ENDBRANCH   8   3
BRANCH   7   5
ATOM      5  N   UNL     1      -1.185  -2.494  25.248  0.00  0.00    -0.305 NA
ATOM     26  H   UNL     1      -0.802  -3.438  25.306  0.00  0.00    +0.123 HD
BRANCH   5  12
ATOM     12  C   UNL     1      -0.560  -1.799  24.128  0.00  0.00    +0.119 C 
BRANCH  12  13
ATOM      1  F   UNL     1       1.007  -0.121  22.470  0.00  0.00    -0.205 F 
ATOM     13  C   UNL     1      -0.276  -0.357  24.453  0.00  0.00    +0.002 A 
ATOM     15  C   UNL     1       0.505   0.413  23.591  0.00  0.00    +0.128 A 
ATOM     16  C   UNL     1      -0.794   0.208  25.618  0.00  0.00    +0.008 A 
ATOM     18  C   UNL     1       0.767   1.750  23.895  0.00  0.00    +0.038 A 
ATOM     19  C   UNL     1      -0.532   1.544  25.921  0.00  0.00    +0.000 A 
ATOM     20  C   UNL     1       0.248   2.315  25.060  0.00  0.00    +0.003 A 
ENDBRANCH  12  13
ENDBRANCH   5  12
ENDBRANCH   7   5
BRANCH   9  11
ATOM     11  C   UNL     1      -5.370  -0.210  24.276  0.00  0.00    +0.138 C 
BRANCH  11   6
ATOM      4  O   UNL     1      -5.847   2.168  25.812  0.00  0.00    -0.270 OA
ATOM      6  N   UNL     1      -4.492   0.917  24.405  0.00  0.00    -0.309 N 
ATOM     14  C   UNL     1      -4.806   2.033  25.175  0.00  0.00    +0.244 C 
ATOM     28  H   UNL     1      -3.646   0.900  23.845  0.00  0.00    +0.149 HD
BRANCH  14  17
ATOM     17  C   UNL     1      -3.802   3.127  25.183  0.00  0.00    +0.037 A 
ATOM     21  C   UNL     1      -3.127   3.464  24.010  0.00  0.00    +0.013 A 
ATOM     22  C   UNL     1      -3.534   3.819  26.365  0.00  0.00    +0.013 A 
ATOM     23  C   UNL     1      -2.185   4.493  24.017  0.00  0.00    +0.001 A 
ATOM     24  C   UNL     1      -2.592   4.847  26.372  0.00  0.00    +0.001 A 
ATOM     25  C   UNL     1      -1.917   5.184  25.198  0.00  0.00    +0.000 A 
ENDBRANCH  14  17
ENDBRANCH  11   6
ENDBRANCH   9  11
TORSDOF 7
ENDMDL
MODEL 10
REMARK VINA RESULT:      -3.2      2.548      5.686
REMARK  Name = 75536632
REMARK  7 active torsions:
REMARK  status: ('A' for Active; 'I' for Inactive)
REMARK    1  A    between atoms: O_3  and  C_8
REMARK    2  A    between atoms: N_5  and  C_7
REMARK    3  A    between atoms: N_5  and  C_12
REMARK    4  A    between atoms: N_6  and  C_11
REMARK    5  A    between atoms: C_9  and  C_11
REMARK    6  A    between atoms: C_12  and  C_13
REMARK    7  A    between atoms: C_14  and  C_17
REMARK                            x       y       z     vdW  Elec       q    Type
REMARK                         _______ _______ _______ _____ _____    ______ ____
ROOT
ATOM      2  O   UNL     1      -2.652  -3.016  23.591  0.00  0.00    -0.371 OA
ATOM      7  C   UNL     1      -1.157  -2.144  25.220  0.00  0.00    +0.111 C 
ATOM      8  C   UNL     1      -2.489  -1.426  25.334  0.00  0.00    +0.164 C 
ATOM      9  C   UNL     1      -3.419  -2.419  24.651  0.00  0.00    +0.165 C 
ATOM     10  C   UNL     1      -1.259  -2.743  23.826  0.00  0.00    +0.181 C 
ENDROOT
BRANCH   8   3
ATOM      3  O   UNL     1      -2.867  -1.188  26.677  0.00  0.00    -0.388 OA
ATOM     27  H   UNL     1      -3.698  -1.663  26.849  0.00  0.00    +0.210 HD
ENDBRANCH   8   3
BRANCH   7   5
ATOM      5  N   UNL     1      -0.007  -1.269  25.376  0.00  0.00    -0.305 NA
ATOM     26  H   UNL     1       0.837  -1.837  25.446  0.00  0.00    +0.123 HD
BRANCH   5  12
ATOM     12  C   UNL     1       0.125  -0.366  24.238  0.00  0.00    +0.119 C 
BRANCH  12  13
ATOM      1  F   UNL     1      -0.501   0.434  26.882  0.00  0.00    -0.205 F 
ATOM     13  C   UNL     1      -0.187   1.058  24.614  0.00  0.00    +0.002 A 
ATOM     15  C   UNL     1      -0.487   1.383  25.936  0.00  0.00    +0.128 A 
ATOM     16  C   UNL     1      -0.174   2.053  23.636  0.00  0.00    +0.008 A 
ATOM     18  C   UNL     1      -0.775   2.705  26.281  0.00  0.00    +0.038 A 
ATOM     19  C   UNL     1      -0.462   3.373  23.981  0.00  0.00    +0.000 A 
ATOM     20  C   UNL     1      -0.763   3.699  25.303  0.00  0.00    +0.003 A 
ENDBRANCH  12  13
ENDBRANCH   5  12
ENDBRANCH   7   5
BRANCH   9  11
ATOM     11  C   UNL     1      -4.669  -1.776  24.078  0.00  0.00    +0.138 C 
BRANCH  11   6
ATOM      4  O   UNL     1      -5.200   0.222  26.072  0.00  0.00    -0.270 OA
ATOM      6  N   UNL     1      -4.509  -0.358  23.934  0.00  0.00    -0.309 N 
ATOM     14  C   UNL     1      -4.792   0.541  24.958  0.00  0.00    +0.244 C 
ATOM     28  H   UNL     1      -4.243  -0.022  23.014  0.00  0.00    +0.149 HD
BRANCH  14  17
ATOM     17  C   UNL     1      -4.599   1.979  24.640  0.00  0.00    +0.037 A 
ATOM     21  C   UNL     1      -3.966   2.352  23.455  0.00  0.00    +0.013 A 
ATOM     22  C   UNL     1      -5.054   2.957  25.525  0.00  0.00    +0.013 A 
ATOM     23  C   UNL     1      -3.785   3.703  23.154  0.00  0.00    +0.001 A 
ATOM     24  C   UNL     1      -4.873   4.307  25.225  0.00  0.00    +0.001 A 
ATOM     25  C   UNL     1      -4.240   4.680  24.040  0.00  0.00    +0.000 A 
ENDBRANCH  14  17
ENDBRANCH  11   6
ENDBRANCH   9  11
TORSDOF 7
ENDMDL
