MODEL 1
REMARK VINA RESULT:       1.4      0.000      0.000
REMARK  Name = 28960039
REMARK  7 active torsions:
REMARK  status: ('A' for Active; 'I' for Inactive)
REMARK    1  A    between atoms: O_2  and  C_25
REMARK    2  A    between atoms: N_5  and  C_16
REMARK    3  A    between atoms: C_8  and  C_12
REMARK    4  A    between atoms: C_9  and  C_15
REMARK    5  A    between atoms: C_12  and  C_16
REMARK    6  A    between atoms: C_14  and  C_17
REMARK    7  A    between atoms: C_15  and  C_25
REMARK                            x       y       z     vdW  Elec       q    Type
REMARK                         _______ _______ _______ _____ _____    ______ ____
ROOT
ATOM      1  O   UNL     1      -6.359   3.953  25.683  0.00  0.00    -0.275 OA
ATOM      4  N   UNL     1      -4.799   2.234  25.770  0.00  0.00    -0.301 N 
ATOM      8  C   UNL     1      -3.234   0.647  24.672  0.00  0.00    +0.011 C 
ATOM      9  C   UNL     1      -4.278  -0.477  24.894  0.00  0.00    +0.006 C 
ATOM     10  C   UNL     1      -3.415   1.745  25.736  0.00  0.00    +0.111 C 
ATOM     11  C   UNL     1      -5.707   0.085  24.975  0.00  0.00    +0.023 C 
ATOM     13  C   UNL     1      -5.806   1.201  26.011  0.00  0.00    +0.108 C 
ATOM     17  C   UNL     1      -5.190   3.564  25.623  0.00  0.00    +0.219 C 
ENDROOT
BRANCH  17  14
ATOM     14  C   UNL     1      -4.098   4.561  25.377  0.00  0.00    +0.075 C 
ATOM     18  C   UNL     1      -2.808   4.097  26.054  0.00  0.00    +0.013 C 
ATOM     19  C   UNL     1      -3.908   4.740  23.870  0.00  0.00    +0.013 C 
ATOM     20  C   UNL     1      -1.643   5.033  25.741  0.00  0.00    +0.001 C 
ATOM     21  C   UNL     1      -2.741   5.673  23.559  0.00  0.00    +0.001 C 
ATOM     22  C   UNL     1      -1.455   5.212  24.237  0.00  0.00    +0.000 C 
ENDBRANCH  17  14
BRANCH   8  12
ATOM     12  C   UNL     1      -3.267   1.257  23.265  0.00  0.00    +0.020 C 
BRANCH  12  16
ATOM     16  C   UNL     1      -2.034   2.116  23.018  0.00  0.00    +0.085 C 
BRANCH  16   5
ATOM      5  N   UNL     1      -0.839   1.412  23.480  0.00  0.00    -0.299 NA
ATOM      6  N   UNL     1       1.883   0.554  23.379  0.00  0.00    -0.313 N 
ATOM      7  N   UNL     1       3.376  -1.251  23.726  0.00  0.00    -0.240 NA
ATOM     23  C   UNL     1       0.250   2.363  23.738  0.00  0.00    +0.103 C 
ATOM     24  C   UNL     1      -0.410   0.419  22.488  0.00  0.00    +0.103 C 
ATOM     26  C   UNL     1       1.491   1.644  24.276  0.00  0.00    +0.122 C 
ATOM     27  C   UNL     1       0.807  -0.364  22.985  0.00  0.00    +0.122 C 
ATOM     28  C   UNL     1       3.190   0.054  23.425  0.00  0.00    +0.121 A 
ATOM     29  C   UNL     1       4.218   0.942  23.155  0.00  0.00    +0.043 A 
ATOM     30  C   UNL     1       5.523   0.461  23.198  0.00  0.00    +0.005 A 
ATOM     31  C   UNL     1       4.656  -1.684  23.757  0.00  0.00    +0.113 A 
ATOM     32  C   UNL     1       5.754  -0.876  23.503  0.00  0.00    +0.020 A 
ENDBRANCH  16   5
ENDBRANCH  12  16
ENDBRANCH   8  12
BRANCH   9  15
ATOM     15  C   UNL     1      -4.194  -1.590  23.849  0.00  0.00    +0.124 C 
BRANCH  15  25
ATOM      3  O   UNL     1      -1.973  -2.594  23.873  0.00  0.00    -0.251 OA
ATOM     25  C   UNL     1      -3.149  -2.610  24.206  0.00  0.00    +0.305 C 
BRANCH  25   2
ATOM      2  O   UNL     1      -3.701  -3.581  24.977  0.00  0.00    -0.481 OA
ATOM     33  H   UNL     1      -3.557  -3.415  25.933  0.00  0.00    +0.295 HD
ENDBRANCH  25   2
ENDBRANCH  15  25
ENDBRANCH   9  15
TORSDOF 7
ENDMDL
MODEL 2
REMARK VINA RESULT:       1.7      1.834      4.807
REMARK  Name = 28960039
REMARK  7 active torsions:
REMARK  status: ('A' for Active; 'I' for Inactive)
REMARK    1  A    between atoms: O_2  and  C_25
REMARK    2  A    between atoms: N_5  and  C_16
REMARK    3  A    between atoms: C_8  and  C_12
REMARK    4  A    between atoms: C_9  and  C_15
REMARK    5  A    between atoms: C_12  and  C_16
REMARK    6  A    between atoms: C_14  and  C_17
REMARK    7  A    between atoms: C_15  and  C_25
REMARK                            x       y       z     vdW  Elec       q    Type
REMARK                         _______ _______ _______ _____ _____    ______ ____
ROOT
ATOM      1  O   UNL     1      -4.777  -0.169  26.544  0.00  0.00    -0.275 OA
ATOM      4  N   UNL     1      -4.646   1.437  24.871  0.00  0.00    -0.301 N 
ATOM      8  C   UNL     1      -3.356   3.047  23.485  0.00  0.00    +0.011 C 
ATOM      9  C   UNL     1      -3.934   4.196  24.350  0.00  0.00    +0.006 C 
ATOM     10  C   UNL     1      -4.322   1.847  23.499  0.00  0.00    +0.111 C 
ATOM     11  C   UNL     1      -4.307   3.711  25.760  0.00  0.00    +0.023 C 
ATOM     13  C   UNL     1      -5.223   2.492  25.703  0.00  0.00    +0.108 C 
ATOM     17  C   UNL     1      -4.472   0.156  25.394  0.00  0.00    +0.219 C 
ENDROOT
BRANCH  17  14
ATOM     14  C   UNL     1      -3.872  -0.867  24.478  0.00  0.00    +0.075 C 
ATOM     18  C   UNL     1      -2.626  -1.475  25.123  0.00  0.00    +0.013 C 
ATOM     19  C   UNL     1      -4.919  -1.936  24.161  0.00  0.00    +0.013 C 
ATOM     20  C   UNL     1      -2.044  -2.597  24.267  0.00  0.00    +0.001 C 
ATOM     21  C   UNL     1      -4.334  -3.058  23.309  0.00  0.00    +0.001 C 
ATOM     22  C   UNL     1      -3.089  -3.663  23.951  0.00  0.00    +0.000 C 
ENDBRANCH  17  14
BRANCH   8  12
ATOM     12  C   UNL     1      -1.948   2.602  23.900  0.00  0.00    +0.020 C 
BRANCH  12  16
ATOM     16  C   UNL     1      -1.639   1.211  23.365  0.00  0.00    +0.085 C 
BRANCH  16   5
ATOM      5  N   UNL     1      -0.217   1.111  23.038  0.00  0.00    -0.299 NA
ATOM      6  N   UNL     1       2.488   0.268  23.400  0.00  0.00    -0.313 N 
ATOM      7  N   UNL     1       4.765   0.903  23.271  0.00  0.00    -0.240 NA
ATOM     23  C   UNL     1       0.161  -0.291  22.814  0.00  0.00    +0.103 C 
ATOM     24  C   UNL     1       0.601   1.683  24.114  0.00  0.00    +0.103 C 
ATOM     26  C   UNL     1       1.635  -0.405  22.416  0.00  0.00    +0.122 C 
ATOM     27  C   UNL     1       2.089   1.635  23.759  0.00  0.00    +0.122 C 
ATOM     28  C   UNL     1       3.845  -0.064  23.485  0.00  0.00    +0.121 A 
ATOM     29  C   UNL     1       4.158  -1.380  23.784  0.00  0.00    +0.043 A 
ATOM     30  C   UNL     1       5.503  -1.725  23.871  0.00  0.00    +0.005 A 
ATOM     31  C   UNL     1       6.061   0.532  23.365  0.00  0.00    +0.113 A 
ATOM     32  C   UNL     1       6.478  -0.757  23.659  0.00  0.00    +0.020 A 
ENDBRANCH  16   5
ENDBRANCH  12  16
ENDBRANCH   8  12
BRANCH   9  15
ATOM     15  C   UNL     1      -3.011   5.414  24.425  0.00  0.00    +0.124 C 
BRANCH  15  25
ATOM      3  O   UNL     1      -1.696   4.429  26.226  0.00  0.00    -0.251 OA
ATOM     25  C   UNL     1      -1.770   5.122  25.222  0.00  0.00    +0.305 C 
BRANCH  25   2
ATOM      2  O   UNL     1      -0.706   5.749  24.658  0.00  0.00    -0.481 OA
ATOM     33  H   UNL     1      -0.979   6.528  24.129  0.00  0.00    +0.295 HD
ENDBRANCH  25   2
ENDBRANCH  15  25
ENDBRANCH   9  15
TORSDOF 7
ENDMDL
MODEL 3
REMARK VINA RESULT:       3.5      0.866      1.647
REMARK  Name = 28960039
REMARK  7 active torsions:
REMARK  status: ('A' for Active; 'I' for Inactive)
REMARK    1  A    between atoms: O_2  and  C_25
REMARK    2  A    between atoms: N_5  and  C_16
REMARK    3  A    between atoms: C_8  and  C_12
REMARK    4  A    between atoms: C_9  and  C_15
REMARK    5  A    between atoms: C_12  and  C_16
REMARK    6  A    between atoms: C_14  and  C_17
REMARK    7  A    between atoms: C_15  and  C_25
REMARK                            x       y       z     vdW  Elec       q    Type
REMARK                         _______ _______ _______ _____ _____    ______ ____
ROOT
ATOM      1  O   UNL     1      -5.506   3.847  24.948  0.00  0.00    -0.275 OA
ATOM      4  N   UNL     1      -4.234   1.948  25.359  0.00  0.00    -0.301 N 
ATOM      8  C   UNL     1      -2.947  -0.030  24.578  0.00  0.00    +0.011 C 
ATOM      9  C   UNL     1      -4.152  -0.922  24.972  0.00  0.00    +0.006 C 
ATOM     10  C   UNL     1      -2.944   1.250  25.434  0.00  0.00    +0.111 C 
ATOM     11  C   UNL     1      -5.474  -0.139  24.929  0.00  0.00    +0.023 C 
ATOM     13  C   UNL     1      -5.388   1.141  25.755  0.00  0.00    +0.108 C 
ATOM     17  C   UNL     1      -4.413   3.277  24.978  0.00  0.00    +0.219 C 
ENDROOT
BRANCH  17  14
ATOM     14  C   UNL     1      -3.181   4.034  24.584  0.00  0.00    +0.075 C 
ATOM     18  C   UNL     1      -3.555   5.461  24.180  0.00  0.00    +0.013 C 
ATOM     19  C   UNL     1      -2.188   4.022  25.747  0.00  0.00    +0.013 C 
ATOM     20  C   UNL     1      -2.317   6.298  23.871  0.00  0.00    +0.001 C 
ATOM     21  C   UNL     1      -0.952   4.862  25.438  0.00  0.00    +0.001 C 
ATOM     22  C   UNL     1      -1.326   6.285  25.031  0.00  0.00    +0.000 C 
ENDBRANCH  17  14
BRANCH   8  12
ATOM     12  C   UNL     1      -2.896   0.326  23.087  0.00  0.00    +0.020 C 
BRANCH  12  16
ATOM     16  C   UNL     1      -2.221   1.673  22.874  0.00  0.00    +0.085 C 
BRANCH  16   5
ATOM      5  N   UNL     1      -0.788   1.481  22.654  0.00  0.00    -0.299 NA
ATOM      6  N   UNL     1       1.825   0.480  23.225  0.00  0.00    -0.313 N 
ATOM      7  N   UNL     1       4.141   0.972  23.259  0.00  0.00    -0.240 NA
ATOM     23  C   UNL     1      -0.482   0.056  22.475  0.00  0.00    +0.103 C 
ATOM     24  C   UNL     1      -0.017   2.019  23.782  0.00  0.00    +0.103 C 
ATOM     26  C   UNL     1       1.007  -0.155  22.188  0.00  0.00    +0.122 C 
ATOM     27  C   UNL     1       1.487   1.873  23.538  0.00  0.00    +0.122 C 
ATOM     28  C   UNL     1       3.149   0.066  23.414  0.00  0.00    +0.121 A 
ATOM     29  C   UNL     1       3.357  -1.261  23.751  0.00  0.00    +0.043 A 
ATOM     30  C   UNL     1       4.667  -1.688  23.941  0.00  0.00    +0.005 A 
ATOM     31  C   UNL     1       5.401   0.523  23.453  0.00  0.00    +0.113 A 
ATOM     32  C   UNL     1       5.714  -0.785  23.791  0.00  0.00    +0.020 A 
ENDBRANCH  16   5
ENDBRANCH  12  16
ENDBRANCH   8  12
BRANCH   9  15
ATOM     15  C   UNL     1      -4.252  -2.198  24.135  0.00  0.00    +0.124 C 
BRANCH  15  25
ATOM      3  O   UNL     1      -2.178  -3.380  23.641  0.00  0.00    -0.251 OA
ATOM     25  C   UNL     1      -3.101  -3.128  24.401  0.00  0.00    +0.305 C 
BRANCH  25   2
ATOM      2  O   UNL     1      -3.225  -3.668  25.641  0.00  0.00    -0.481 OA
ATOM     33  H   UNL     1      -2.372  -3.674  26.124  0.00  0.00    +0.295 HD
ENDBRANCH  25   2
ENDBRANCH  15  25
ENDBRANCH   9  15
TORSDOF 7
ENDMDL
