MODEL 1
REMARK VINA RESULT:       3.6      0.000      0.000
REMARK  Name = 40533566
REMARK  3 active torsions:
REMARK  status: ('A' for Active; 'I' for Inactive)
REMARK    1  A    between atoms: S_1  and  N_6
REMARK    2  A    between atoms: S_1  and  C_20
REMARK    3  A    between atoms: C_18  and  C_21
REMARK                            x       y       z     vdW  Elec       q    Type
REMARK                         _______ _______ _______ _____ _____    ______ ____
ROOT
ATOM      5  O   UNL     1       0.500   2.004  25.848  0.00  0.00    -0.267 OA
ATOM      6  N   UNL     1      -4.436   2.283  25.214  0.00  0.00    -0.175 NA
ATOM      7  N   UNL     1      -1.371   2.940  24.817  0.00  0.00    -0.311 N 
ATOM      9  C   UNL     1      -3.161   4.230  26.117  0.00  0.00    +0.025 C 
ATOM     10  C   UNL     1      -3.387   3.942  23.688  0.00  0.00    +0.052 C 
ATOM     11  C   UNL     1      -3.370   4.979  24.808  0.00  0.00    +0.017 C 
ATOM     12  C   UNL     1      -4.305   3.231  26.356  0.00  0.00    +0.114 C 
ATOM     13  C   UNL     1      -4.568   2.978  23.898  0.00  0.00    +0.119 C 
ATOM     14  C   UNL     1      -1.787   3.550  26.087  0.00  0.00    +0.130 C 
ATOM     15  C   UNL     1      -2.080   3.173  23.637  0.00  0.00    +0.026 A 
ATOM     16  C   UNL     1      -1.617   2.702  22.468  0.00  0.00    +0.022 A 
ATOM     17  C   UNL     1      -0.171   2.201  24.833  0.00  0.00    +0.259 A 
ATOM     18  C   UNL     1       0.304   1.654  23.514  0.00  0.00    +0.048 A 
ATOM     19  C   UNL     1      -0.410   1.927  22.411  0.00  0.00    +0.015 A 
ENDROOT
BRANCH  18  21
ATOM      8  N   UNL     1       2.553  -1.351  23.569  0.00  0.00    -0.263 NA
ATOM     21  C   UNL     1       1.521   0.830  23.424  0.00  0.00    +0.005 A 
ATOM     24  C   UNL     1       2.754   1.401  23.124  0.00  0.00    +0.011 A 
ATOM     26  C   UNL     1       1.475  -0.539  23.636  0.00  0.00    +0.119 A 
ATOM     27  C   UNL     1       3.885   0.596  23.046  0.00  0.00    +0.020 A 
ATOM     28  C   UNL     1       3.733  -0.762  23.274  0.00  0.00    +0.111 A 
ENDBRANCH  18  21
BRANCH   6   1
ATOM      1  S   UNL     1      -5.497   0.964  25.464  0.00  0.00    +0.067 S 
ATOM      3  O   UNL     1      -6.573   1.032  24.497  0.00  0.00    -0.152 OA
ATOM      4  O   UNL     1      -5.774   0.844  26.879  0.00  0.00    -0.152 OA
BRANCH   1  20
ATOM      2  S   UNL     1      -2.876  -0.326  25.696  0.00  0.00    -0.077 S 
ATOM     20  C   UNL     1      -4.443  -0.376  25.003  0.00  0.00    +0.143 A 
ATOM     22  C   UNL     1      -4.613  -1.473  24.189  0.00  0.00    +0.036 A 
ATOM     23  C   UNL     1      -3.444  -2.285  24.132  0.00  0.00    +0.010 A 
ATOM     25  C   UNL     1      -2.424  -1.777  24.906  0.00  0.00    +0.047 A 
ENDBRANCH   1  20
ENDBRANCH   6   1
TORSDOF 3
ENDMDL
MODEL 2
REMARK VINA RESULT:       4.7      2.699      3.750
REMARK  Name = 40533566
REMARK  3 active torsions:
REMARK  status: ('A' for Active; 'I' for Inactive)
REMARK    1  A    between atoms: S_1  and  N_6
REMARK    2  A    between atoms: S_1  and  C_20
REMARK    3  A    between atoms: C_18  and  C_21
REMARK                            x       y       z     vdW  Elec       q    Type
REMARK                         _______ _______ _______ _____ _____    ______ ____
ROOT
ATOM      5  O   UNL     1      -1.864   3.342  27.681  0.00  0.00    -0.267 OA
ATOM      6  N   UNL     1      -3.787   0.662  23.946  0.00  0.00    -0.175 NA
ATOM      7  N   UNL     1      -2.141   2.931  25.403  0.00  0.00    -0.311 N 
ATOM      9  C   UNL     1      -4.422   3.058  24.245  0.00  0.00    +0.025 C 
ATOM     10  C   UNL     1      -2.422   2.482  22.941  0.00  0.00    +0.052 C 
ATOM     11  C   UNL     1      -3.616   3.430  23.009  0.00  0.00    +0.017 C 
ATOM     12  C   UNL     1      -4.921   1.607  24.147  0.00  0.00    +0.114 C 
ATOM     13  C   UNL     1      -2.924   1.034  22.784  0.00  0.00    +0.119 C 
ATOM     14  C   UNL     1      -3.561   3.297  25.491  0.00  0.00    +0.130 C 
ATOM     15  C   UNL     1      -1.553   2.608  24.178  0.00  0.00    +0.026 A 
ATOM     16  C   UNL     1      -0.230   2.391  24.101  0.00  0.00    +0.022 A 
ATOM     17  C   UNL     1      -1.388   3.026  26.590  0.00  0.00    +0.259 A 
ATOM     18  C   UNL     1       0.086   2.742  26.481  0.00  0.00    +0.048 A 
ATOM     19  C   UNL     1       0.597   2.454  25.273  0.00  0.00    +0.015 A 
ENDROOT
BRANCH  18  21
ATOM      8  N   UNL     1       3.118   3.272  28.630  0.00  0.00    -0.263 NA
ATOM     21  C   UNL     1       0.959   2.769  27.666  0.00  0.00    +0.005 A 
ATOM     24  C   UNL     1       0.498   2.338  28.906  0.00  0.00    +0.011 A 
ATOM     26  C   UNL     1       2.265   3.223  27.582  0.00  0.00    +0.119 A 
ATOM     27  C   UNL     1       1.347   2.374  30.007  0.00  0.00    +0.020 A 
ATOM     28  C   UNL     1       2.636   2.846  29.818  0.00  0.00    +0.111 A 
ENDBRANCH  18  21
BRANCH   6   1
ATOM      1  S   UNL     1      -4.174  -1.000  24.076  0.00  0.00    +0.067 S 
ATOM      3  O   UNL     1      -4.473  -1.522  22.759  0.00  0.00    -0.152 OA
ATOM      4  O   UNL     1      -5.096  -1.184  25.176  0.00  0.00    -0.152 OA
BRANCH   1  20
ATOM      2  S   UNL     1      -1.753  -0.679  25.695  0.00  0.00    -0.077 S 
ATOM     20  C   UNL     1      -2.607  -1.647  24.569  0.00  0.00    +0.143 A 
ATOM     22  C   UNL     1      -1.909  -2.786  24.233  0.00  0.00    +0.036 A 
ATOM     23  C   UNL     1      -0.657  -2.866  24.909  0.00  0.00    +0.010 A 
ATOM     25  C   UNL     1      -0.446  -1.785  25.736  0.00  0.00    +0.047 A 
ENDBRANCH   1  20
ENDBRANCH   6   1
TORSDOF 3
ENDMDL
MODEL 3
REMARK VINA RESULT:       5.0      2.044      4.092
REMARK  Name = 40533566
REMARK  3 active torsions:
REMARK  status: ('A' for Active; 'I' for Inactive)
REMARK    1  A    between atoms: S_1  and  N_6
REMARK    2  A    between atoms: S_1  and  C_20
REMARK    3  A    between atoms: C_18  and  C_21
REMARK                            x       y       z     vdW  Elec       q    Type
REMARK                         _______ _______ _______ _____ _____    ______ ____
ROOT
ATOM      5  O   UNL     1      -0.371   0.453  21.974  0.00  0.00    -0.267 OA
ATOM      6  N   UNL     1      -3.989   1.746  25.148  0.00  0.00    -0.175 NA
ATOM      7  N   UNL     1      -1.926  -0.097  23.622  0.00  0.00    -0.311 N 
ATOM      9  C   UNL     1      -4.451   0.159  23.276  0.00  0.00    +0.025 C 
ATOM     10  C   UNL     1      -3.592  -0.694  25.414  0.00  0.00    +0.052 C 
ATOM     11  C   UNL     1      -4.560  -0.989  24.271  0.00  0.00    +0.017 C 
ATOM     12  C   UNL     1      -4.830   1.490  23.945  0.00  0.00    +0.114 C 
ATOM     13  C   UNL     1      -4.008   0.610  26.118  0.00  0.00    +0.119 C 
ATOM     14  C   UNL     1      -3.031   0.179  22.695  0.00  0.00    +0.130 C 
ATOM     15  C   UNL     1      -2.165  -0.588  24.907  0.00  0.00    +0.026 A 
ATOM     16  C   UNL     1      -1.139  -0.944  25.695  0.00  0.00    +0.022 A 
ATOM     17  C   UNL     1      -0.621   0.057  23.113  0.00  0.00    +0.259 A 
ATOM     18  C   UNL     1       0.512  -0.316  24.032  0.00  0.00    +0.048 A 
ATOM     19  C   UNL     1       0.218  -0.799  25.249  0.00  0.00    +0.015 A 
ENDROOT
BRANCH  18  21
ATOM      8  N   UNL     1       4.124  -1.107  23.385  0.00  0.00    -0.263 NA
ATOM     21  C   UNL     1       1.915  -0.152  23.619  0.00  0.00    +0.005 A 
ATOM     24  C   UNL     1       2.373   1.052  23.092  0.00  0.00    +0.011 A 
ATOM     26  C   UNL     1       2.823  -1.191  23.743  0.00  0.00    +0.119 A 
ATOM     27  C   UNL     1       3.704   1.176  22.712  0.00  0.00    +0.020 A 
ATOM     28  C   UNL     1       4.532   0.077  22.877  0.00  0.00    +0.111 A 
ENDBRANCH  18  21
BRANCH   6   1
ATOM      1  S   UNL     1      -4.132   3.307  25.834  0.00  0.00    +0.067 S 
ATOM      3  O   UNL     1      -4.200   3.187  27.275  0.00  0.00    -0.152 OA
ATOM      4  O   UNL     1      -5.132   4.054  25.101  0.00  0.00    -0.152 OA
BRANCH   1  20
ATOM      2  S   UNL     1      -1.255   2.853  25.507  0.00  0.00    -0.077 S 
ATOM     20  C   UNL     1      -2.549   3.973  25.423  0.00  0.00    +0.143 A 
ATOM     22  C   UNL     1      -2.123   5.227  25.043  0.00  0.00    +0.036 A 
ATOM     23  C   UNL     1      -0.717   5.269  24.818  0.00  0.00    +0.010 A 
ATOM     25  C   UNL     1      -0.121   4.046  25.034  0.00  0.00    +0.047 A 
ENDBRANCH   1  20
ENDBRANCH   6   1
TORSDOF 3
ENDMDL
