MODEL 1
REMARK VINA RESULT:      -5.8      0.000      0.000
REMARK  Name = 75536639
REMARK  7 active torsions:
REMARK  status: ('A' for Active; 'I' for Inactive)
REMARK    1  A    between atoms: O_3  and  C_8
REMARK    2  A    between atoms: N_5  and  C_7
REMARK    3  A    between atoms: N_5  and  C_12
REMARK    4  A    between atoms: N_6  and  C_11
REMARK    5  A    between atoms: C_9  and  C_11
REMARK    6  A    between atoms: C_12  and  C_13
REMARK    7  A    between atoms: C_14  and  C_17
REMARK                            x       y       z     vdW  Elec       q    Type
REMARK                         _______ _______ _______ _____ _____    ______ ____
ROOT
ATOM      2  O   UNL     1      -1.547  -2.341  23.710  0.00  0.00    -0.371 OA
ATOM      7  C   UNL     1       0.016  -0.862  24.718  0.00  0.00    +0.111 C 
ATOM      8  C   UNL     1      -1.248  -0.894  25.558  0.00  0.00    +0.164 C 
ATOM      9  C   UNL     1      -1.866  -2.209  25.105  0.00  0.00    +0.165 C 
ATOM     10  C   UNL     1      -0.488  -1.419  23.396  0.00  0.00    +0.181 C 
ENDROOT
BRANCH   8   3
ATOM      3  O   UNL     1      -0.980  -0.887  26.946  0.00  0.00    -0.388 OA
ATOM     27  H   UNL     1      -1.612  -0.286  27.378  0.00  0.00    +0.210 HD
ENDBRANCH   8   3
BRANCH   7   5
ATOM      5  N   UNL     1       0.596   0.465  24.588  0.00  0.00    -0.305 NA
ATOM     26  H   UNL     1       1.544   0.379  24.220  0.00  0.00    +0.123 HD
BRANCH   5  12
ATOM     12  C   UNL     1      -0.189   1.296  23.683  0.00  0.00    +0.116 C 
BRANCH  12  13
ATOM     13  C   UNL     1      -0.675   2.552  24.355  0.00  0.00    -0.034 A 
ATOM     15  C   UNL     1      -1.372   2.473  25.561  0.00  0.00    +0.005 A 
ATOM     16  C   UNL     1      -0.430   3.795  23.772  0.00  0.00    +0.005 A 
ATOM     18  C   UNL     1      -1.822   3.638  26.185  0.00  0.00    +0.000 A 
ATOM     19  C   UNL     1      -0.879   4.959  24.395  0.00  0.00    +0.000 A 
ATOM     20  C   UNL     1      -1.576   4.880  25.601  0.00  0.00    +0.000 A 
ENDBRANCH  12  13
ENDBRANCH   5  12
ENDBRANCH   7   5
BRANCH   9  11
ATOM     11  C   UNL     1      -3.373  -2.260  25.293  0.00  0.00    +0.138 C 
BRANCH  11   6
ATOM      4  O   UNL     1      -3.859  -0.325  23.228  0.00  0.00    -0.270 OA
ATOM      6  N   UNL     1      -3.921  -0.945  25.463  0.00  0.00    -0.309 N 
ATOM     14  C   UNL     1      -4.123  -0.070  24.399  0.00  0.00    +0.244 C 
ATOM     28  H   UNL     1      -4.096  -0.645  26.415  0.00  0.00    +0.149 HD
BRANCH  14  17
ATOM      1  F   UNL     1      -6.212   4.977  25.702  0.00  0.00    -0.205 F 
ATOM     17  C   UNL     1      -4.676   1.265  24.745  0.00  0.00    +0.037 A 
ATOM     21  C   UNL     1      -4.283   2.391  24.020  0.00  0.00    +0.016 A 
ATOM     22  C   UNL     1      -5.587   1.394  25.793  0.00  0.00    +0.016 A 
ATOM     23  C   UNL     1      -4.801   3.645  24.343  0.00  0.00    +0.039 A 
ATOM     24  C   UNL     1      -6.105   2.648  26.116  0.00  0.00    +0.039 A 
ATOM     25  C   UNL     1      -5.713   3.773  25.392  0.00  0.00    +0.123 A 
ENDBRANCH  14  17
ENDBRANCH  11   6
ENDBRANCH   9  11
TORSDOF 7
ENDMDL
MODEL 2
REMARK VINA RESULT:      -4.9      2.292      3.695
REMARK  Name = 75536639
REMARK  7 active torsions:
REMARK  status: ('A' for Active; 'I' for Inactive)
REMARK    1  A    between atoms: O_3  and  C_8
REMARK    2  A    between atoms: N_5  and  C_7
REMARK    3  A    between atoms: N_5  and  C_12
REMARK    4  A    between atoms: N_6  and  C_11
REMARK    5  A    between atoms: C_9  and  C_11
REMARK    6  A    between atoms: C_12  and  C_13
REMARK    7  A    between atoms: C_14  and  C_17
REMARK                            x       y       z     vdW  Elec       q    Type
REMARK                         _______ _______ _______ _____ _____    ______ ____
ROOT
ATOM      2  O   UNL     1      -1.611  -2.725  23.898  0.00  0.00    -0.371 OA
ATOM      7  C   UNL     1      -0.008  -1.037  24.371  0.00  0.00    +0.111 C 
ATOM      8  C   UNL     1      -1.224  -0.826  25.254  0.00  0.00    +0.164 C 
ATOM      9  C   UNL     1      -1.856  -2.211  25.217  0.00  0.00    +0.165 C 
ATOM     10  C   UNL     1      -0.578  -1.935  23.284  0.00  0.00    +0.181 C 
ENDROOT
BRANCH   8   3
ATOM      3  O   UNL     1      -0.882  -0.438  26.570  0.00  0.00    -0.388 OA
ATOM     27  H   UNL     1      -1.149  -1.149  27.179  0.00  0.00    +0.210 HD
ENDBRANCH   8   3
BRANCH   7   5
ATOM      5  N   UNL     1       0.555   0.197  23.849  0.00  0.00    -0.305 NA
ATOM     26  H   UNL     1       1.125   0.635  24.572  0.00  0.00    +0.123 HD
BRANCH   5  12
ATOM     12  C   UNL     1       1.388  -0.059  22.679  0.00  0.00    +0.116 C 
BRANCH  12  13
ATOM     13  C   UNL     1       2.850  -0.108  23.034  0.00  0.00    -0.034 A 
ATOM     15  C   UNL     1       3.654   1.015  22.838  0.00  0.00    +0.005 A 
ATOM     16  C   UNL     1       3.402  -1.277  23.557  0.00  0.00    +0.005 A 
ATOM     18  C   UNL     1       5.009   0.969  23.167  0.00  0.00    +0.000 A 
ATOM     19  C   UNL     1       4.756  -1.323  23.886  0.00  0.00    +0.000 A 
ATOM     20  C   UNL     1       5.560  -0.200  23.690  0.00  0.00    +0.000 A 
ENDBRANCH  12  13
ENDBRANCH   5  12
ENDBRANCH   7   5
BRANCH   9  11
ATOM     11  C   UNL     1      -3.349  -2.196  25.493  0.00  0.00    +0.138 C 
BRANCH  11   6
ATOM      4  O   UNL     1      -3.979  -0.386  23.355  0.00  0.00    -0.270 OA
ATOM      6  N   UNL     1      -3.842  -0.855  25.623  0.00  0.00    -0.309 N 
ATOM     14  C   UNL     1      -4.122  -0.046  24.526  0.00  0.00    +0.244 C 
ATOM     28  H   UNL     1      -3.916  -0.487  26.565  0.00  0.00    +0.149 HD
BRANCH  14  17
ATOM      1  F   UNL     1      -5.935   5.142  25.679  0.00  0.00    -0.205 F 
ATOM     17  C   UNL     1      -4.601   1.328  24.830  0.00  0.00    +0.037 A 
ATOM     21  C   UNL     1      -5.797   1.510  25.527  0.00  0.00    +0.016 A 
ATOM     22  C   UNL     1      -3.857   2.434  24.420  0.00  0.00    +0.016 A 
ATOM     23  C   UNL     1      -6.247   2.798  25.813  0.00  0.00    +0.039 A 
ATOM     24  C   UNL     1      -4.308   3.722  24.707  0.00  0.00    +0.039 A 
ATOM     25  C   UNL     1      -5.503   3.904  25.403  0.00  0.00    +0.123 A 
ENDBRANCH  14  17
ENDBRANCH  11   6
ENDBRANCH   9  11
TORSDOF 7
ENDMDL
MODEL 3
REMARK VINA RESULT:      -4.4      3.168      6.589
REMARK  Name = 75536639
REMARK  7 active torsions:
REMARK  status: ('A' for Active; 'I' for Inactive)
REMARK    1  A    between atoms: O_3  and  C_8
REMARK    2  A    between atoms: N_5  and  C_7
REMARK    3  A    between atoms: N_5  and  C_12
REMARK    4  A    between atoms: N_6  and  C_11
REMARK    5  A    between atoms: C_9  and  C_11
REMARK    6  A    between atoms: C_12  and  C_13
REMARK    7  A    between atoms: C_14  and  C_17
REMARK                            x       y       z     vdW  Elec       q    Type
REMARK                         _______ _______ _______ _____ _____    ______ ____
ROOT
ATOM      2  O   UNL     1      -3.284   4.272  23.795  0.00  0.00    -0.371 OA
ATOM      7  C   UNL     1      -4.716   3.160  25.330  0.00  0.00    +0.111 C 
ATOM      8  C   UNL     1      -3.425   3.530  26.037  0.00  0.00    +0.164 C 
ATOM      9  C   UNL     1      -2.903   4.638  25.131  0.00  0.00    +0.165 C 
ATOM     10  C   UNL     1      -4.298   3.255  23.871  0.00  0.00    +0.181 C 
ENDROOT
BRANCH   8   3
ATOM      3  O   UNL     1      -3.637   3.986  27.358  0.00  0.00    -0.388 OA
ATOM     27  H   UNL     1      -3.787   4.947  27.331  0.00  0.00    +0.210 HD
ENDBRANCH   8   3
BRANCH   7   5
ATOM      5  N   UNL     1      -5.221   1.846  25.690  0.00  0.00    -0.305 NA
ATOM     26  H   UNL     1      -6.171   1.941  26.048  0.00  0.00    +0.123 HD
BRANCH   5  12
ATOM     12  C   UNL     1      -5.238   0.955  24.535  0.00  0.00    +0.116 C 
BRANCH  12  13
ATOM     13  C   UNL     1      -4.297  -0.207  24.709  0.00  0.00    -0.034 A 
ATOM     15  C   UNL     1      -4.460  -1.359  23.940  0.00  0.00    +0.005 A 
ATOM     16  C   UNL     1      -3.262  -0.131  25.641  0.00  0.00    +0.005 A 
ATOM     18  C   UNL     1      -3.587  -2.435  24.102  0.00  0.00    +0.000 A 
ATOM     19  C   UNL     1      -2.389  -1.207  25.803  0.00  0.00    +0.000 A 
ATOM     20  C   UNL     1      -2.553  -2.359  25.034  0.00  0.00    +0.000 A 
ENDBRANCH  12  13
ENDBRANCH   5  12
ENDBRANCH   7   5
BRANCH   9  11
ATOM     11  C   UNL     1      -1.396   4.813  25.205  0.00  0.00    +0.138 C 
BRANCH  11   6
ATOM      4  O   UNL     1      -0.380   2.353  26.281  0.00  0.00    -0.270 OA
ATOM      6  N   UNL     1      -0.714   3.779  24.482  0.00  0.00    -0.309 N 
ATOM     14  C   UNL     1      -0.254   2.614  25.088  0.00  0.00    +0.244 C 
ATOM     28  H   UNL     1      -0.515   3.963  23.505  0.00  0.00    +0.149 HD
BRANCH  14  17
ATOM      1  F   UNL     1       2.424  -1.021  21.750  0.00  0.00    -0.205 F 
ATOM     17  C   UNL     1       0.455   1.652  24.205  0.00  0.00    +0.037 A 
ATOM     21  C   UNL     1      -0.206   0.514  23.741  0.00  0.00    +0.016 A 
ATOM     22  C   UNL     1       1.781   1.886  23.841  0.00  0.00    +0.016 A 
ATOM     23  C   UNL     1       0.459  -0.389  22.912  0.00  0.00    +0.039 A 
ATOM     24  C   UNL     1       2.446   0.982  23.011  0.00  0.00    +0.039 A 
ATOM     25  C   UNL     1       1.785  -0.154  22.547  0.00  0.00    +0.123 A 
ENDBRANCH  14  17
ENDBRANCH  11   6
ENDBRANCH   9  11
TORSDOF 7
ENDMDL
MODEL 4
REMARK VINA RESULT:      -4.4      2.854      5.183
REMARK  Name = 75536639
REMARK  7 active torsions:
REMARK  status: ('A' for Active; 'I' for Inactive)
REMARK    1  A    between atoms: O_3  and  C_8
REMARK    2  A    between atoms: N_5  and  C_7
REMARK    3  A    between atoms: N_5  and  C_12
REMARK    4  A    between atoms: N_6  and  C_11
REMARK    5  A    between atoms: C_9  and  C_11
REMARK    6  A    between atoms: C_12  and  C_13
REMARK    7  A    between atoms: C_14  and  C_17
REMARK                            x       y       z     vdW  Elec       q    Type
REMARK                         _______ _______ _______ _____ _____    ______ ____
ROOT
ATOM      2  O   UNL     1      -3.866   3.894  26.900  0.00  0.00    -0.371 OA
ATOM      7  C   UNL     1      -2.150   4.521  25.381  0.00  0.00    +0.111 C 
ATOM      8  C   UNL     1      -3.346   4.018  24.595  0.00  0.00    +0.164 C 
ATOM      9  C   UNL     1      -4.459   4.178  25.622  0.00  0.00    +0.165 C 
ATOM     10  C   UNL     1      -2.435   3.951  26.761  0.00  0.00    +0.181 C 
ENDROOT
BRANCH   8   3
ATOM      3  O   UNL     1      -3.592   4.779  23.429  0.00  0.00    -0.388 OA
ATOM     27  H   UNL     1      -3.028   4.436  22.714  0.00  0.00    +0.210 HD
ENDBRANCH   8   3
BRANCH   7   5
ATOM      5  N   UNL     1      -0.872   4.085  24.841  0.00  0.00    -0.305 NA
ATOM     26  H   UNL     1      -0.251   4.890  24.768  0.00  0.00    +0.123 HD
BRANCH   5  12
ATOM     12  C   UNL     1      -0.252   3.085  25.703  0.00  0.00    +0.116 C 
BRANCH  12  13
ATOM     13  C   UNL     1      -0.105   1.759  25.006  0.00  0.00    -0.034 A 
ATOM     15  C   UNL     1      -0.701   0.618  25.544  0.00  0.00    +0.005 A 
ATOM     16  C   UNL     1       0.628   1.671  23.822  0.00  0.00    +0.005 A 
ATOM     18  C   UNL     1      -0.565  -0.611  24.897  0.00  0.00    +0.000 A 
ATOM     19  C   UNL     1       0.763   0.443  23.176  0.00  0.00    +0.000 A 
ATOM     20  C   UNL     1       0.167  -0.698  23.714  0.00  0.00    +0.000 A 
ENDBRANCH  12  13
ENDBRANCH   5  12
ENDBRANCH   7   5
BRANCH   9  11
ATOM     11  C   UNL     1      -5.634   3.246  25.383  0.00  0.00    +0.138 C 
BRANCH  11   6
ATOM      4  O   UNL     1      -4.064   1.831  23.439  0.00  0.00    -0.270 OA
ATOM      6  N   UNL     1      -5.230   1.871  25.445  0.00  0.00    -0.309 N 
ATOM     14  C   UNL     1      -4.466   1.265  24.452  0.00  0.00    +0.244 C 
ATOM     28  H   UNL     1      -5.588   1.327  26.222  0.00  0.00    +0.149 HD
BRANCH  14  17
ATOM      1  F   UNL     1      -3.283  -4.171  25.214  0.00  0.00    -0.205 F 
ATOM     17  C   UNL     1      -4.152  -0.174  24.653  0.00  0.00    +0.037 A 
ATOM     21  C   UNL     1      -3.751  -0.631  25.909  0.00  0.00    +0.016 A 
ATOM     22  C   UNL     1      -4.259  -1.067  23.587  0.00  0.00    +0.016 A 
ATOM     23  C   UNL     1      -3.457  -1.981  26.099  0.00  0.00    +0.039 A 
ATOM     24  C   UNL     1      -3.965  -2.417  23.777  0.00  0.00    +0.039 A 
ATOM     25  C   UNL     1      -3.564  -2.874  25.032  0.00  0.00    +0.123 A 
ENDBRANCH  14  17
ENDBRANCH  11   6
ENDBRANCH   9  11
TORSDOF 7
ENDMDL
MODEL 5
REMARK VINA RESULT:      -4.2      2.573      5.084
REMARK  Name = 75536639
REMARK  7 active torsions:
REMARK  status: ('A' for Active; 'I' for Inactive)
REMARK    1  A    between atoms: O_3  and  C_8
REMARK    2  A    between atoms: N_5  and  C_7
REMARK    3  A    between atoms: N_5  and  C_12
REMARK    4  A    between atoms: N_6  and  C_11
REMARK    5  A    between atoms: C_9  and  C_11
REMARK    6  A    between atoms: C_12  and  C_13
REMARK    7  A    between atoms: C_14  and  C_17
REMARK                            x       y       z     vdW  Elec       q    Type
REMARK                         _______ _______ _______ _____ _____    ______ ____
ROOT
ATOM      2  O   UNL     1       0.165   3.231  23.521  0.00  0.00    -0.371 OA
ATOM      7  C   UNL     1      -0.782   3.931  25.584  0.00  0.00    +0.111 C 
ATOM      8  C   UNL     1      -0.318   2.492  25.715  0.00  0.00    +0.164 C 
ATOM      9  C   UNL     1       0.686   2.402  24.574  0.00  0.00    +0.165 C 
ATOM     10  C   UNL     1      -0.849   4.088  24.073  0.00  0.00    +0.181 C 
ENDROOT
BRANCH   8   3
ATOM      3  O   UNL     1       0.282   2.225  26.967  0.00  0.00    -0.388 OA
ATOM     27  H   UNL     1      -0.403   2.283  27.655  0.00  0.00    +0.210 HD
ENDBRANCH   8   3
BRANCH   7   5
ATOM      5  N   UNL     1      -2.053   4.196  26.237  0.00  0.00    -0.305 NA
ATOM     26  H   UNL     1      -1.933   4.962  26.900  0.00  0.00    +0.123 HD
BRANCH   5  12
ATOM     12  C   UNL     1      -3.076   4.567  25.266  0.00  0.00    +0.116 C 
BRANCH  12  13
ATOM     13  C   UNL     1      -4.186   3.552  25.206  0.00  0.00    -0.034 A 
ATOM     15  C   UNL     1      -5.038   3.384  26.297  0.00  0.00    +0.005 A 
ATOM     16  C   UNL     1      -4.361   2.778  24.059  0.00  0.00    +0.005 A 
ATOM     18  C   UNL     1      -6.067   2.444  26.241  0.00  0.00    +0.000 A 
ATOM     19  C   UNL     1      -5.390   1.838  24.002  0.00  0.00    +0.000 A 
ATOM     20  C   UNL     1      -6.242   1.670  25.094  0.00  0.00    +0.000 A 
ENDBRANCH  12  13
ENDBRANCH   5  12
ENDBRANCH   7   5
BRANCH   9  11
ATOM     11  C   UNL     1       0.887   0.987  24.062  0.00  0.00    +0.138 C 
BRANCH  11   6
ATOM      4  O   UNL     1       0.092  -1.403  25.441  0.00  0.00    -0.270 OA
ATOM      6  N   UNL     1      -0.365   0.297  23.930  0.00  0.00    -0.309 N 
ATOM     14  C   UNL     1      -0.665  -0.861  24.641  0.00  0.00    +0.244 C 
ATOM     28  H   UNL     1      -1.009   0.653  23.232  0.00  0.00    +0.149 HD
BRANCH  14  17
ATOM      1  F   UNL     1      -5.687  -3.161  23.627  0.00  0.00    -0.205 F 
ATOM     17  C   UNL     1      -1.994  -1.469  24.372  0.00  0.00    +0.037 A 
ATOM     21  C   UNL     1      -2.155  -2.853  24.447  0.00  0.00    +0.016 A 
ATOM     22  C   UNL     1      -3.080  -0.657  24.046  0.00  0.00    +0.016 A 
ATOM     23  C   UNL     1      -3.402  -3.425  24.195  0.00  0.00    +0.039 A 
ATOM     24  C   UNL     1      -4.327  -1.229  23.794  0.00  0.00    +0.039 A 
ATOM     25  C   UNL     1      -4.488  -2.612  23.869  0.00  0.00    +0.123 A 
ENDBRANCH  14  17
ENDBRANCH  11   6
ENDBRANCH   9  11
TORSDOF 7
ENDMDL
MODEL 6
REMARK VINA RESULT:      -3.5      1.566      4.113
REMARK  Name = 75536639
REMARK  7 active torsions:
REMARK  status: ('A' for Active; 'I' for Inactive)
REMARK    1  A    between atoms: O_3  and  C_8
REMARK    2  A    between atoms: N_5  and  C_7
REMARK    3  A    between atoms: N_5  and  C_12
REMARK    4  A    between atoms: N_6  and  C_11
REMARK    5  A    between atoms: C_9  and  C_11
REMARK    6  A    between atoms: C_12  and  C_13
REMARK    7  A    between atoms: C_14  and  C_17
REMARK                            x       y       z     vdW  Elec       q    Type
REMARK                         _______ _______ _______ _____ _____    ______ ____
ROOT
ATOM      2  O   UNL     1      -2.225  -1.516  26.770  0.00  0.00    -0.371 OA
ATOM      7  C   UNL     1      -3.513  -2.286  24.929  0.00  0.00    +0.111 C 
ATOM      8  C   UNL     1      -2.107  -1.971  24.452  0.00  0.00    +0.164 C 
ATOM      9  C   UNL     1      -1.334  -2.024  25.763  0.00  0.00    +0.165 C 
ATOM     10  C   UNL     1      -3.562  -1.523  26.243  0.00  0.00    +0.181 C 
ENDROOT
BRANCH   8   3
ATOM      3  O   UNL     1      -1.623  -2.915  23.517  0.00  0.00    -0.388 OA
ATOM     27  H   UNL     1      -1.059  -2.450  22.875  0.00  0.00    +0.210 HD
ENDBRANCH   8   3
BRANCH   7   5
ATOM      5  N   UNL     1      -4.550  -1.877  23.997  0.00  0.00    -0.305 NA
ATOM     26  H   UNL     1      -5.377  -1.595  24.523  0.00  0.00    +0.123 HD
BRANCH   5  12
ATOM     12  C   UNL     1      -4.106  -0.757  23.175  0.00  0.00    +0.116 C 
BRANCH  12  13
ATOM     13  C   UNL     1      -4.403   0.567  23.826  0.00  0.00    -0.034 A 
ATOM     15  C   UNL     1      -5.295   0.635  24.896  0.00  0.00    +0.005 A 
ATOM     16  C   UNL     1      -3.787   1.728  23.358  0.00  0.00    +0.005 A 
ATOM     18  C   UNL     1      -5.570   1.862  25.500  0.00  0.00    +0.000 A 
ATOM     19  C   UNL     1      -4.061   2.955  23.961  0.00  0.00    +0.000 A 
ATOM     20  C   UNL     1      -4.953   3.022  25.031  0.00  0.00    +0.000 A 
ENDBRANCH  12  13
ENDBRANCH   5  12
ENDBRANCH   7   5
BRANCH   9  11
ATOM     11  C   UNL     1      -0.059  -1.199  25.741  0.00  0.00    +0.138 C 
BRANCH  11   6
ATOM      4  O   UNL     1       0.064   0.553  23.469  0.00  0.00    -0.270 OA
ATOM      6  N   UNL     1      -0.347   0.206  25.727  0.00  0.00    -0.309 N 
ATOM     14  C   UNL     1      -0.261   0.981  24.573  0.00  0.00    +0.244 C 
ATOM     28  H   UNL     1      -0.554   0.637  26.621  0.00  0.00    +0.149 HD
BRANCH  14  17
ATOM      1  F   UNL     1      -1.417   6.444  25.163  0.00  0.00    -0.205 F 
ATOM     17  C   UNL     1      -0.567   2.426  24.731  0.00  0.00    +0.037 A 
ATOM     21  C   UNL     1      -0.125   3.340  23.773  0.00  0.00    +0.016 A 
ATOM     22  C   UNL     1      -1.295   2.870  25.834  0.00  0.00    +0.016 A 
ATOM     23  C   UNL     1      -0.412   4.697  23.919  0.00  0.00    +0.039 A 
ATOM     24  C   UNL     1      -1.582   4.227  25.980  0.00  0.00    +0.039 A 
ATOM     25  C   UNL     1      -1.141   5.140  25.023  0.00  0.00    +0.123 A 
ENDBRANCH  14  17
ENDBRANCH  11   6
ENDBRANCH   9  11
TORSDOF 7
ENDMDL
MODEL 7
REMARK VINA RESULT:      -3.3      2.994      6.230
REMARK  Name = 75536639
REMARK  7 active torsions:
REMARK  status: ('A' for Active; 'I' for Inactive)
REMARK    1  A    between atoms: O_3  and  C_8
REMARK    2  A    between atoms: N_5  and  C_7
REMARK    3  A    between atoms: N_5  and  C_12
REMARK    4  A    between atoms: N_6  and  C_11
REMARK    5  A    between atoms: C_9  and  C_11
REMARK    6  A    between atoms: C_12  and  C_13
REMARK    7  A    between atoms: C_14  and  C_17
REMARK                            x       y       z     vdW  Elec       q    Type
REMARK                         _______ _______ _______ _____ _____    ______ ____
ROOT
ATOM      2  O   UNL     1      -3.067   4.858  23.934  0.00  0.00    -0.371 OA
ATOM      7  C   UNL     1      -4.555   3.881  25.507  0.00  0.00    +0.111 C 
ATOM      8  C   UNL     1      -3.128   3.681  25.985  0.00  0.00    +0.164 C 
ATOM      9  C   UNL     1      -2.404   4.770  25.205  0.00  0.00    +0.165 C 
ATOM     10  C   UNL     1      -4.338   4.192  24.035  0.00  0.00    +0.181 C 
ENDROOT
BRANCH   8   3
ATOM      3  O   UNL     1      -2.991   3.853  27.382  0.00  0.00    -0.388 OA
ATOM     27  H   UNL     1      -2.301   4.520  27.542  0.00  0.00    +0.210 HD
ENDBRANCH   8   3
BRANCH   7   5
ATOM      5  N   UNL     1      -5.409   2.725  25.722  0.00  0.00    -0.305 NA
ATOM     26  H   UNL     1      -6.347   3.044  25.961  0.00  0.00    +0.123 HD
BRANCH   5  12
ATOM     12  C   UNL     1      -5.483   1.896  24.523  0.00  0.00    +0.116 C 
BRANCH  12  13
ATOM     13  C   UNL     1      -4.789   0.574  24.712  0.00  0.00    -0.034 A 
ATOM     15  C   UNL     1      -4.495   0.118  25.998  0.00  0.00    +0.005 A 
ATOM     16  C   UNL     1      -4.439  -0.195  23.603  0.00  0.00    +0.005 A 
ATOM     18  C   UNL     1      -3.853  -1.108  26.173  0.00  0.00    +0.000 A 
ATOM     19  C   UNL     1      -3.797  -1.420  23.778  0.00  0.00    +0.000 A 
ATOM     20  C   UNL     1      -3.503  -1.876  25.063  0.00  0.00    +0.000 A 
ENDBRANCH  12  13
ENDBRANCH   5  12
ENDBRANCH   7   5
BRANCH   9  11
ATOM     11  C   UNL     1      -0.928   4.477  24.995  0.00  0.00    +0.138 C 
BRANCH  11   6
ATOM      4  O   UNL     1      -1.546   2.339  23.181  0.00  0.00    -0.270 OA
ATOM      6  N   UNL     1      -0.642   3.084  25.183  0.00  0.00    -0.309 N 
ATOM     14  C   UNL     1      -0.979   2.112  24.246  0.00  0.00    +0.244 C 
ATOM     28  H   UNL     1      -0.238   2.819  26.075  0.00  0.00    +0.149 HD
BRANCH  14  17
ATOM      1  F   UNL     1       0.312  -3.184  25.595  0.00  0.00    -0.205 F 
ATOM     17  C   UNL     1      -0.637   0.711  24.602  0.00  0.00    +0.037 A 
ATOM     21  C   UNL     1      -0.851   0.250  25.902  0.00  0.00    +0.016 A 
ATOM     22  C   UNL     1      -0.102  -0.144  23.639  0.00  0.00    +0.016 A 
ATOM     23  C   UNL     1      -0.531  -1.065  26.238  0.00  0.00    +0.039 A 
ATOM     24  C   UNL     1       0.219  -1.460  23.975  0.00  0.00    +0.039 A 
ATOM     25  C   UNL     1       0.004  -1.920  25.273  0.00  0.00    +0.123 A 
ENDBRANCH  14  17
ENDBRANCH  11   6
ENDBRANCH   9  11
TORSDOF 7
ENDMDL
MODEL 8
REMARK VINA RESULT:      -3.2      2.869      5.505
REMARK  Name = 75536639
REMARK  7 active torsions:
REMARK  status: ('A' for Active; 'I' for Inactive)
REMARK    1  A    between atoms: O_3  and  C_8
REMARK    2  A    between atoms: N_5  and  C_7
REMARK    3  A    between atoms: N_5  and  C_12
REMARK    4  A    between atoms: N_6  and  C_11
REMARK    5  A    between atoms: C_9  and  C_11
REMARK    6  A    between atoms: C_12  and  C_13
REMARK    7  A    between atoms: C_14  and  C_17
REMARK                            x       y       z     vdW  Elec       q    Type
REMARK                         _______ _______ _______ _____ _____    ______ ____
ROOT
ATOM      2  O   UNL     1       0.319   3.988  24.574  0.00  0.00    -0.371 OA
ATOM      7  C   UNL     1      -1.970   4.625  24.615  0.00  0.00    +0.111 C 
ATOM      8  C   UNL     1      -1.727   3.580  25.689  0.00  0.00    +0.164 C 
ATOM      9  C   UNL     1      -0.220   3.695  25.874  0.00  0.00    +0.165 C 
ATOM     10  C   UNL     1      -0.755   4.425  23.722  0.00  0.00    +0.181 C 
ENDROOT
BRANCH   8   3
ATOM      3  O   UNL     1      -2.427   3.856  26.886  0.00  0.00    -0.388 OA
ATOM     27  H   UNL     1      -1.863   3.601  27.637  0.00  0.00    +0.210 HD
ENDBRANCH   8   3
BRANCH   7   5
ATOM      5  N   UNL     1      -3.227   4.452  23.906  0.00  0.00    -0.305 NA
ATOM     26  H   UNL     1      -3.192   4.978  23.033  0.00  0.00    +0.123 HD
BRANCH   5  12
ATOM     12  C   UNL     1      -3.469   3.046  23.602  0.00  0.00    +0.116 C 
BRANCH  12  13
ATOM     13  C   UNL     1      -4.536   2.457  24.487  0.00  0.00    -0.034 A 
ATOM     15  C   UNL     1      -4.829   1.095  24.416  0.00  0.00    +0.005 A 
ATOM     16  C   UNL     1      -5.232   3.275  25.377  0.00  0.00    +0.005 A 
ATOM     18  C   UNL     1      -5.817   0.550  25.236  0.00  0.00    +0.000 A 
ATOM     19  C   UNL     1      -6.220   2.730  26.197  0.00  0.00    +0.000 A 
ATOM     20  C   UNL     1      -6.513   1.368  26.126  0.00  0.00    +0.000 A 
ENDBRANCH  12  13
ENDBRANCH   5  12
ENDBRANCH   7   5
BRANCH   9  11
ATOM     11  C   UNL     1       0.415   2.427  26.418  0.00  0.00    +0.138 C 
BRANCH  11   6
ATOM      4  O   UNL     1       0.272   0.787  24.066  0.00  0.00    -0.270 OA
ATOM      6  N   UNL     1      -0.436   1.290  26.218  0.00  0.00    -0.309 N 
ATOM     14  C   UNL     1      -0.438   0.550  25.039  0.00  0.00    +0.244 C 
ATOM     28  H   UNL     1      -1.098   1.082  26.957  0.00  0.00    +0.149 HD
BRANCH  14  17
ATOM      1  F   UNL     1      -4.064  -3.733  24.815  0.00  0.00    -0.205 F 
ATOM     17  C   UNL     1      -1.397  -0.584  24.979  0.00  0.00    +0.037 A 
ATOM     21  C   UNL     1      -2.486  -0.622  25.851  0.00  0.00    +0.016 A 
ATOM     22  C   UNL     1      -1.209  -1.610  24.053  0.00  0.00    +0.016 A 
ATOM     23  C   UNL     1      -3.387  -1.686  25.796  0.00  0.00    +0.039 A 
ATOM     24  C   UNL     1      -2.110  -2.673  23.998  0.00  0.00    +0.039 A 
ATOM     25  C   UNL     1      -3.198  -2.711  24.869  0.00  0.00    +0.123 A 
ENDBRANCH  14  17
ENDBRANCH  11   6
ENDBRANCH   9  11
TORSDOF 7
ENDMDL
MODEL 9
REMARK VINA RESULT:      -2.5      4.013      6.791
REMARK  Name = 75536639
REMARK  7 active torsions:
REMARK  status: ('A' for Active; 'I' for Inactive)
REMARK    1  A    between atoms: O_3  and  C_8
REMARK    2  A    between atoms: N_5  and  C_7
REMARK    3  A    between atoms: N_5  and  C_12
REMARK    4  A    between atoms: N_6  and  C_11
REMARK    5  A    between atoms: C_9  and  C_11
REMARK    6  A    between atoms: C_12  and  C_13
REMARK    7  A    between atoms: C_14  and  C_17
REMARK                            x       y       z     vdW  Elec       q    Type
REMARK                         _______ _______ _______ _____ _____    ______ ____
ROOT
ATOM      2  O   UNL     1      -0.895   0.073  25.855  0.00  0.00    -0.371 OA
ATOM      7  C   UNL     1      -1.456   2.230  25.034  0.00  0.00    +0.111 C 
ATOM      8  C   UNL     1      -1.143   1.320  23.860  0.00  0.00    +0.164 C 
ATOM      9  C   UNL     1      -1.338  -0.051  24.494  0.00  0.00    +0.165 C 
ATOM     10  C   UNL     1      -0.812   1.471  26.183  0.00  0.00    +0.181 C 
ENDROOT
BRANCH   8   3
ATOM      3  O   UNL     1      -2.014   1.522  22.765  0.00  0.00    -0.388 OA
ATOM     27  H   UNL     1      -2.509   0.699  22.610  0.00  0.00    +0.210 HD
ENDBRANCH   8   3
BRANCH   7   5
ATOM      5  N   UNL     1      -0.932   3.577  24.882  0.00  0.00    -0.305 NA
ATOM     26  H   UNL     1      -0.495   3.663  23.964  0.00  0.00    +0.123 HD
BRANCH   5  12
ATOM     12  C   UNL     1      -1.996   4.570  24.994  0.00  0.00    +0.116 C 
BRANCH  12  13
ATOM     13  C   UNL     1      -3.353   3.927  25.100  0.00  0.00    -0.034 A 
ATOM     15  C   UNL     1      -3.955   3.378  23.967  0.00  0.00    +0.005 A 
ATOM     16  C   UNL     1      -4.008   3.880  26.330  0.00  0.00    +0.005 A 
ATOM     18  C   UNL     1      -5.213   2.782  24.066  0.00  0.00    +0.000 A 
ATOM     19  C   UNL     1      -5.265   3.284  26.428  0.00  0.00    +0.000 A 
ATOM     20  C   UNL     1      -5.868   2.736  25.296  0.00  0.00    +0.000 A 
ENDBRANCH  12  13
ENDBRANCH   5  12
ENDBRANCH   7   5
BRANCH   9  11
ATOM     11  C   UNL     1      -0.555  -1.151  23.797  0.00  0.00    +0.138 C 
BRANCH  11   6
ATOM      4  O   UNL     1       1.195  -0.230  21.715  0.00  0.00    -0.270 OA
ATOM      6  N   UNL     1       0.859  -0.930  23.901  0.00  0.00    -0.309 N 
ATOM     14  C   UNL     1       1.632  -0.480  22.834  0.00  0.00    +0.244 C 
ATOM     28  H   UNL     1       1.296  -1.185  24.780  0.00  0.00    +0.149 HD
BRANCH  14  17
ATOM      1  F   UNL     1       7.127   0.104  23.830  0.00  0.00    -0.205 F 
ATOM     17  C   UNL     1       3.086  -0.327  23.097  0.00  0.00    +0.037 A 
ATOM     21  C   UNL     1       3.730   0.870  22.777  0.00  0.00    +0.016 A 
ATOM     22  C   UNL     1       3.808  -1.376  23.665  0.00  0.00    +0.016 A 
ATOM     23  C   UNL     1       5.095   1.015  23.024  0.00  0.00    +0.039 A 
ATOM     24  C   UNL     1       5.173  -1.231  23.912  0.00  0.00    +0.039 A 
ATOM     25  C   UNL     1       5.816  -0.036  23.592  0.00  0.00    +0.123 A 
ENDBRANCH  14  17
ENDBRANCH  11   6
ENDBRANCH   9  11
TORSDOF 7
ENDMDL
MODEL 10
REMARK VINA RESULT:      -2.3      4.055      7.585
REMARK  Name = 75536639
REMARK  7 active torsions:
REMARK  status: ('A' for Active; 'I' for Inactive)
REMARK    1  A    between atoms: O_3  and  C_8
REMARK    2  A    between atoms: N_5  and  C_7
REMARK    3  A    between atoms: N_5  and  C_12
REMARK    4  A    between atoms: N_6  and  C_11
REMARK    5  A    between atoms: C_9  and  C_11
REMARK    6  A    between atoms: C_12  and  C_13
REMARK    7  A    between atoms: C_14  and  C_17
REMARK                            x       y       z     vdW  Elec       q    Type
REMARK                         _______ _______ _______ _____ _____    ______ ____
ROOT
ATOM      2  O   UNL     1      -1.210   3.686  25.283  0.00  0.00    -0.371 OA
ATOM      7  C   UNL     1      -2.992   2.127  25.088  0.00  0.00    +0.111 C 
ATOM      8  C   UNL     1      -1.978   1.859  23.991  0.00  0.00    +0.164 C 
ATOM      9  C   UNL     1      -0.739   2.533  24.566  0.00  0.00    +0.165 C 
ATOM     10  C   UNL     1      -2.626   3.545  25.497  0.00  0.00    +0.181 C 
ENDROOT
BRANCH   8   3
ATOM      3  O   UNL     1      -1.770   0.479  23.764  0.00  0.00    -0.388 OA
ATOM     27  H   UNL     1      -2.122  -0.013  24.525  0.00  0.00    +0.210 HD
ENDBRANCH   8   3
BRANCH   7   5
ATOM      5  N   UNL     1      -4.372   2.002  24.650  0.00  0.00    -0.305 NA
ATOM     26  H   UNL     1      -4.386   1.784  23.654  0.00  0.00    +0.123 HD
BRANCH   5  12
ATOM     12  C   UNL     1      -5.060   0.941  25.376  0.00  0.00    +0.116 C 
BRANCH  12  13
ATOM     13  C   UNL     1      -4.446  -0.408  25.111  0.00  0.00    -0.034 A 
ATOM     15  C   UNL     1      -4.680  -1.055  23.898  0.00  0.00    +0.005 A 
ATOM     16  C   UNL     1      -3.645  -1.012  26.080  0.00  0.00    +0.005 A 
ATOM     18  C   UNL     1      -4.110  -2.305  23.653  0.00  0.00    +0.000 A 
ATOM     19  C   UNL     1      -3.076  -2.261  25.835  0.00  0.00    +0.000 A 
ATOM     20  C   UNL     1      -3.309  -2.908  24.621  0.00  0.00    +0.000 A 
ENDBRANCH  12  13
ENDBRANCH   5  12
ENDBRANCH   7   5
BRANCH   9  11
ATOM     11  C   UNL     1       0.259   2.961  23.504  0.00  0.00    +0.138 C 
BRANCH  11   6
ATOM      4  O   UNL     1       0.774   0.326  22.485  0.00  0.00    -0.270 OA
ATOM      6  N   UNL     1       1.485   2.224  23.614  0.00  0.00    -0.309 N 
ATOM     14  C   UNL     1       1.646   0.946  23.087  0.00  0.00    +0.244 C 
ATOM     28  H   UNL     1       2.224   2.651  24.162  0.00  0.00    +0.149 HD
BRANCH  14  17
ATOM      1  F   UNL     1       6.647  -1.468  23.921  0.00  0.00    -0.205 F 
ATOM     17  C   UNL     1       2.969   0.308  23.308  0.00  0.00    +0.037 A 
ATOM     21  C   UNL     1       3.044  -1.043  23.649  0.00  0.00    +0.016 A 
ATOM     22  C   UNL     1       4.137   1.059  23.175  0.00  0.00    +0.016 A 
ATOM     23  C   UNL     1       4.285  -1.643  23.856  0.00  0.00    +0.039 A 
ATOM     24  C   UNL     1       5.379   0.458  23.382  0.00  0.00    +0.039 A 
ATOM     25  C   UNL     1       5.453  -0.892  23.723  0.00  0.00    +0.123 A 
ENDBRANCH  14  17
ENDBRANCH  11   6
ENDBRANCH   9  11
TORSDOF 7
ENDMDL
