MODEL 1
REMARK VINA RESULT:       7.5      0.000      0.000
REMARK  Name = 45783895
REMARK  11 active torsions:
REMARK  status: ('A' for Active; 'I' for Inactive)
REMARK    1  A    between atoms: O_3  and  C_35
REMARK    2  A    between atoms: O_3  and  C_38
REMARK    3  A    between atoms: N_4  and  C_17
REMARK    4  A    between atoms: N_7  and  C_29
REMARK    5  A    between atoms: C_9  and  C_13
REMARK    6  A    between atoms: C_10  and  C_17
REMARK    7  A    between atoms: C_12  and  C_16
REMARK    8  A    between atoms: C_13  and  C_18
REMARK    9  A    between atoms: C_13  and  C_19
REMARK   10  A    between atoms: C_14  and  C_20
REMARK   11  A    between atoms: C_16  and  C_21
REMARK                            x       y       z     vdW  Elec       q    Type
REMARK                         _______ _______ _______ _____ _____    ______ ____
ROOT
ATOM      9  C   UNL     1      -3.281   2.042  23.498  0.00  0.00    +0.000 C 
ATOM     10  C   UNL     1      -4.093   3.260  24.004  0.00  0.00    +0.032 C 
ATOM     11  C   UNL     1      -4.167   0.788  23.453  0.00  0.00    +0.012 C 
ATOM     12  C   UNL     1      -4.757   0.442  24.832  0.00  0.00    +0.023 C 
ATOM     14  C   UNL     1      -5.344   1.661  25.516  0.00  0.00    -0.073 C 
ATOM     15  C   UNL     1      -5.046   2.912  25.122  0.00  0.00    -0.022 C 
ATOM     20  C   UNL     1      -6.317   1.408  26.633  0.00  0.00    +0.039 C 
ENDROOT
BRANCH   9  13
ATOM     13  C   UNL     1      -2.673   2.298  22.115  0.00  0.00    -0.013 C 
ATOM     18  C   UNL     1      -2.364   0.977  21.417  0.00  0.00    +0.007 C 
ATOM     19  C   UNL     1      -3.614   3.149  21.270  0.00  0.00    +0.007 C 
ENDBRANCH   9  13
BRANCH  12  16
ATOM     16  C   UNL     1      -3.713  -0.239  25.725  0.00  0.00    +0.103 C 
BRANCH  16  21
ATOM      1  O   UNL     1      -3.559  -2.380  24.710  0.00  0.00    -0.276 OA
ATOM      5  N   UNL     1      -1.696  -1.004  24.531  0.00  0.00    -0.298 N 
ATOM      6  N   UNL     1       1.075  -0.560  23.819  0.00  0.00    -0.312 N 
ATOM      8  N   UNL     1       3.343  -1.176  24.058  0.00  0.00    -0.240 NA
ATOM     21  C   UNL     1      -2.991  -1.311  24.945  0.00  0.00    +0.216 C 
ATOM     22  C   UNL     1      -1.023   0.267  24.812  0.00  0.00    +0.126 C 
ATOM     23  C   UNL     1      -0.927  -1.992  23.778  0.00  0.00    +0.126 C 
ATOM     24  C   UNL     1       0.126   0.556  23.846  0.00  0.00    +0.125 C 
ATOM     25  C   UNL     1       0.566  -1.908  24.085  0.00  0.00    +0.125 C 
ATOM     27  C   UNL     1       2.418  -0.354  23.512  0.00  0.00    +0.121 A 
ATOM     28  C   UNL     1       2.721   0.694  22.657  0.00  0.00    +0.043 A 
ATOM     30  C   UNL     1       4.057   0.912  22.343  0.00  0.00    +0.005 A 
ATOM     31  C   UNL     1       4.631  -0.933  23.730  0.00  0.00    +0.113 A 
ATOM     32  C   UNL     1       5.037   0.088  22.884  0.00  0.00    +0.020 A 
ENDBRANCH  16  21
ENDBRANCH  12  16
BRANCH  10  17
ATOM     17  C   UNL     1      -3.166   4.394  24.457  0.00  0.00    +0.113 C 
BRANCH  17   4
ATOM      2  O   UNL     1      -2.251   4.024  27.145  0.00  0.00    -0.253 OA
ATOM      4  N   UNL     1      -1.896   3.879  24.864  0.00  0.00    -0.299 N 
ATOM      7  N   UNL     1      -0.222   3.201  26.301  0.00  0.00    -0.269 N 
ATOM     26  C   UNL     1      -1.514   3.725  26.210  0.00  0.00    +0.304 C 
ATOM     39  H   UNL     1      -1.223   3.636  24.144  0.00  0.00    +0.150 HD
ATOM     40  H   UNL     1       0.254   3.005  25.424  0.00  0.00    +0.156 HD
BRANCH   7  29
ATOM     29  C   UNL     1       0.513   2.904  27.473  0.00  0.00    +0.038 A 
ATOM     33  C   UNL     1       1.899   3.057  27.485  0.00  0.00    +0.069 A 
ATOM     34  C   UNL     1      -0.149   2.455  28.616  0.00  0.00    +0.023 A 
ATOM     35  C   UNL     1       2.624   2.765  28.640  0.00  0.00    +0.122 A 
ATOM     36  C   UNL     1       0.576   2.161  29.772  0.00  0.00    +0.005 A 
ATOM     37  C   UNL     1       1.962   2.316  29.783  0.00  0.00    +0.046 A 
BRANCH  35   3
ATOM      3  O   UNL     1       3.976   2.915  28.651  0.00  0.00    -0.495 OA
ATOM     38  C   UNL     1       4.739   1.993  27.873  0.00  0.00    +0.277 C 
ENDBRANCH  35   3
ENDBRANCH   7  29
ENDBRANCH  17   4
ENDBRANCH  10  17
TORSDOF 7
ENDMDL
MODEL 2
REMARK VINA RESULT:       7.8      0.967      1.518
REMARK  Name = 45783895
REMARK  11 active torsions:
REMARK  status: ('A' for Active; 'I' for Inactive)
REMARK    1  A    between atoms: O_3  and  C_35
REMARK    2  A    between atoms: O_3  and  C_38
REMARK    3  A    between atoms: N_4  and  C_17
REMARK    4  A    between atoms: N_7  and  C_29
REMARK    5  A    between atoms: C_9  and  C_13
REMARK    6  A    between atoms: C_10  and  C_17
REMARK    7  A    between atoms: C_12  and  C_16
REMARK    8  A    between atoms: C_13  and  C_18
REMARK    9  A    between atoms: C_13  and  C_19
REMARK   10  A    between atoms: C_14  and  C_20
REMARK   11  A    between atoms: C_16  and  C_21
REMARK                            x       y       z     vdW  Elec       q    Type
REMARK                         _______ _______ _______ _____ _____    ______ ____
ROOT
ATOM      9  C   UNL     1      -3.359   2.140  23.708  0.00  0.00    +0.000 C 
ATOM     10  C   UNL     1      -4.136   3.332  24.321  0.00  0.00    +0.032 C 
ATOM     11  C   UNL     1      -4.280   0.921  23.553  0.00  0.00    +0.012 C 
ATOM     12  C   UNL     1      -4.882   0.471  24.897  0.00  0.00    +0.023 C 
ATOM     14  C   UNL     1      -5.434   1.641  25.687  0.00  0.00    -0.073 C 
ATOM     15  C   UNL     1      -5.099   2.912  25.406  0.00  0.00    -0.022 C 
ATOM     20  C   UNL     1      -6.414   1.317  26.779  0.00  0.00    +0.039 C 
ENDROOT
BRANCH   9  13
ATOM     13  C   UNL     1      -2.743   2.501  22.352  0.00  0.00    -0.013 C 
ATOM     18  C   UNL     1      -2.367   1.236  21.585  0.00  0.00    +0.007 C 
ATOM     19  C   UNL     1      -3.707   3.359  21.541  0.00  0.00    +0.007 C 
ENDBRANCH   9  13
BRANCH  12  16
ATOM     16  C   UNL     1      -3.859  -0.316  25.724  0.00  0.00    +0.103 C 
BRANCH  16  21
ATOM      1  O   UNL     1      -3.729  -2.348  24.502  0.00  0.00    -0.276 OA
ATOM      5  N   UNL     1      -1.845  -0.988  24.468  0.00  0.00    -0.298 N 
ATOM      6  N   UNL     1       0.935  -0.515  23.815  0.00  0.00    -0.312 N 
ATOM      8  N   UNL     1       3.193  -1.185  24.000  0.00  0.00    -0.240 NA
ATOM     21  C   UNL     1      -3.147  -1.316  24.844  0.00  0.00    +0.216 C 
ATOM     22  C   UNL     1      -1.156   0.239  24.877  0.00  0.00    +0.126 C 
ATOM     23  C   UNL     1      -1.087  -1.907  23.623  0.00  0.00    +0.126 C 
ATOM     24  C   UNL     1       0.002   0.605  23.948  0.00  0.00    +0.125 C 
ATOM     25  C   UNL     1       0.406  -1.876  23.944  0.00  0.00    +0.125 C 
ATOM     27  C   UNL     1       2.283  -0.299  23.536  0.00  0.00    +0.121 A 
ATOM     28  C   UNL     1       2.605   0.824  22.790  0.00  0.00    +0.043 A 
ATOM     30  C   UNL     1       3.946   1.053  22.504  0.00  0.00    +0.005 A 
ATOM     31  C   UNL     1       4.486  -0.930  23.703  0.00  0.00    +0.113 A 
ATOM     32  C   UNL     1       4.911   0.164  22.965  0.00  0.00    +0.020 A 
ENDBRANCH  16  21
ENDBRANCH  12  16
BRANCH  10  17
ATOM     17  C   UNL     1      -3.177   4.394  24.872  0.00  0.00    +0.113 C 
BRANCH  17   4
ATOM      2  O   UNL     1      -0.425   3.799  25.395  0.00  0.00    -0.253 OA
ATOM      4  N   UNL     1      -2.616   3.974  26.117  0.00  0.00    -0.299 N 
ATOM      7  N   UNL     1      -0.994   3.309  27.620  0.00  0.00    -0.269 N 
ATOM     26  C   UNL     1      -1.248   3.698  26.301  0.00  0.00    +0.304 C 
ATOM     39  H   UNL     1      -3.241   3.841  26.906  0.00  0.00    +0.150 HD
ATOM     40  H   UNL     1      -1.792   3.278  28.248  0.00  0.00    +0.156 HD
BRANCH   7  29
ATOM     29  C   UNL     1       0.248   2.951  28.194  0.00  0.00    +0.038 A 
ATOM     33  C   UNL     1       0.311   2.557  29.531  0.00  0.00    +0.069 A 
ATOM     34  C   UNL     1       1.411   2.994  27.424  0.00  0.00    +0.023 A 
ATOM     35  C   UNL     1       1.535   2.205  30.098  0.00  0.00    +0.122 A 
ATOM     36  C   UNL     1       2.637   2.642  27.992  0.00  0.00    +0.005 A 
ATOM     37  C   UNL     1       2.698   2.248  29.328  0.00  0.00    +0.046 A 
BRANCH  35   3
ATOM      3  O   UNL     1       1.596   1.821  31.402  0.00  0.00    -0.495 OA
ATOM     38  C   UNL     1       0.520   2.222  32.249  0.00  0.00    +0.277 C 
ENDBRANCH  35   3
ENDBRANCH   7  29
ENDBRANCH  17   4
ENDBRANCH  10  17
TORSDOF 7
ENDMDL
