MODEL 1
REMARK VINA RESULT:      -6.1      0.000      0.000
REMARK  Name = 45783368
REMARK  7 active torsions:
REMARK  status: ('A' for Active; 'I' for Inactive)
REMARK    1  A    between atoms: O_2  and  C_17
REMARK    2  A    between atoms: O_2  and  C_19
REMARK    3  A    between atoms: O_3  and  C_20
REMARK    4  A    between atoms: O_3  and  C_21
REMARK    5  A    between atoms: C_8  and  C_12
REMARK    6  A    between atoms: C_13  and  C_14
REMARK    7  A    between atoms: C_19  and  C_20
REMARK                            x       y       z     vdW  Elec       q    Type
REMARK                         _______ _______ _______ _____ _____    ______ ____
ROOT
ATOM      1  O   UNL     1       1.316   1.543  23.846  0.00  0.00    -0.336 OA
ATOM      5  N   UNL     1       0.551  -0.536  23.514  0.00  0.00    -0.190 NA
ATOM      6  N   UNL     1      -0.003   1.534  24.315  0.00  0.00    -0.056 NA
ATOM     12  C   UNL     1       1.562   0.287  23.391  0.00  0.00    +0.245 A 
ATOM     13  C   UNL     1      -0.386   0.275  24.086  0.00  0.00    +0.202 A 
ENDROOT
BRANCH  12   8
ATOM      4  N   UNL     1       3.847   1.169  23.057  0.00  0.00    -0.305 NA
ATOM      8  C   UNL     1       2.940   0.033  22.825  0.00  0.00    +0.143 C 
ATOM      9  C   UNL     1       3.650  -1.185  23.436  0.00  0.00    +0.029 C 
ATOM     10  C   UNL     1       4.979  -0.650  23.947  0.00  0.00    +0.017 C 
ATOM     11  C   UNL     1       5.192   0.611  23.136  0.00  0.00    +0.081 C 
ATOM     22  H   UNL     1       3.626   1.588  23.962  0.00  0.00    +0.123 HD
ENDBRANCH  12   8
BRANCH  13  14
ATOM      7  N   UNL     1      -4.253  -1.141  25.053  0.00  0.00    -0.221 NA
ATOM     14  C   UNL     1      -1.697  -0.206  24.414  0.00  0.00    +0.029 A 
ATOM     15  C   UNL     1      -2.758   0.686  24.534  0.00  0.00    +0.079 A 
ATOM     16  C   UNL     1      -1.913  -1.564  24.613  0.00  0.00    +0.031 A 
ATOM     17  C   UNL     1      -4.005   0.172  24.852  0.00  0.00    +0.215 A 
ATOM     18  C   UNL     1      -3.198  -1.978  24.929  0.00  0.00    +0.115 A 
BRANCH  17   2
ATOM      2  O   UNL     1      -5.065   1.031  24.976  0.00  0.00    -0.474 OA
BRANCH   2  19
ATOM     19  C   UNL     1      -4.879   2.352  24.481  0.00  0.00    +0.258 C 
BRANCH  19  20
ATOM     20  C   UNL     1      -5.087   3.339  25.613  0.00  0.00    +0.200 C 
BRANCH  20   3
ATOM      3  O   UNL     1      -3.819   3.801  26.064  0.00  0.00    -0.380 OA
ATOM     21  C   UNL     1      -2.944   4.063  24.976  0.00  0.00    +0.194 C 
ENDBRANCH  20   3
ENDBRANCH  19  20
ENDBRANCH   2  19
ENDBRANCH  17   2
ENDBRANCH  13  14
TORSDOF 6
ENDMDL
MODEL 2
REMARK VINA RESULT:      -5.5      1.633      3.028
REMARK  Name = 45783368
REMARK  7 active torsions:
REMARK  status: ('A' for Active; 'I' for Inactive)
REMARK    1  A    between atoms: O_2  and  C_17
REMARK    2  A    between atoms: O_2  and  C_19
REMARK    3  A    between atoms: O_3  and  C_20
REMARK    4  A    between atoms: O_3  and  C_21
REMARK    5  A    between atoms: C_8  and  C_12
REMARK    6  A    between atoms: C_13  and  C_14
REMARK    7  A    between atoms: C_19  and  C_20
REMARK                            x       y       z     vdW  Elec       q    Type
REMARK                         _______ _______ _______ _____ _____    ______ ____
ROOT
ATOM      1  O   UNL     1       0.877  -0.537  23.292  0.00  0.00    -0.336 OA
ATOM      5  N   UNL     1       1.400   1.616  23.621  0.00  0.00    -0.190 NA
ATOM      6  N   UNL     1      -0.303   0.091  23.709  0.00  0.00    -0.056 NA
ATOM     12  C   UNL     1       1.830   0.431  23.267  0.00  0.00    +0.245 A 
ATOM     13  C   UNL     1       0.086   1.357  23.883  0.00  0.00    +0.202 A 
ENDROOT
BRANCH  12   8
ATOM      4  N   UNL     1       4.224   1.030  23.140  0.00  0.00    -0.305 NA
ATOM      8  C   UNL     1       3.215   0.002  22.841  0.00  0.00    +0.143 C 
ATOM      9  C   UNL     1       3.714  -1.273  23.539  0.00  0.00    +0.029 C 
ATOM     10  C   UNL     1       5.043  -0.883  24.168  0.00  0.00    +0.017 C 
ATOM     11  C   UNL     1       5.481   0.321  23.360  0.00  0.00    +0.081 C 
ATOM     22  H   UNL     1       3.971   1.498  24.013  0.00  0.00    +0.123 HD
ENDBRANCH  12   8
BRANCH  13  14
ATOM      7  N   UNL     1      -2.562   4.396  25.167  0.00  0.00    -0.221 NA
ATOM     14  C   UNL     1      -0.811   2.388  24.318  0.00  0.00    +0.029 A 
ATOM     15  C   UNL     1      -2.179   2.262  24.097  0.00  0.00    +0.079 A 
ATOM     16  C   UNL     1      -0.319   3.516  24.963  0.00  0.00    +0.031 A 
ATOM     17  C   UNL     1      -3.004   3.285  24.537  0.00  0.00    +0.215 A 
ATOM     18  C   UNL     1      -1.227   4.483  25.364  0.00  0.00    +0.115 A 
BRANCH  17   2
ATOM      2  O   UNL     1      -4.355   3.184  24.331  0.00  0.00    -0.474 OA
BRANCH   2  19
ATOM     19  C   UNL     1      -5.127   2.650  25.401  0.00  0.00    +0.258 C 
BRANCH  19  20
ATOM     20  C   UNL     1      -5.577   1.249  25.035  0.00  0.00    +0.200 C 
BRANCH  20   3
ATOM      3  O   UNL     1      -4.588   0.318  25.458  0.00  0.00    -0.380 OA
ATOM     21  C   UNL     1      -4.272  -0.610  24.429  0.00  0.00    +0.194 C 
ENDBRANCH  20   3
ENDBRANCH  19  20
ENDBRANCH   2  19
ENDBRANCH  17   2
ENDBRANCH  13  14
TORSDOF 6
ENDMDL
MODEL 3
REMARK VINA RESULT:      -5.0     14.031     16.481
REMARK  Name = 45783368
REMARK  7 active torsions:
REMARK  status: ('A' for Active; 'I' for Inactive)
REMARK    1  A    between atoms: O_2  and  C_17
REMARK    2  A    between atoms: O_2  and  C_19
REMARK    3  A    between atoms: O_3  and  C_20
REMARK    4  A    between atoms: O_3  and  C_21
REMARK    5  A    between atoms: C_8  and  C_12
REMARK    6  A    between atoms: C_13  and  C_14
REMARK    7  A    between atoms: C_19  and  C_20
REMARK                            x       y       z     vdW  Elec       q    Type
REMARK                         _______ _______ _______ _____ _____    ______ ____
ROOT
ATOM      1  O   UNL     1      -6.362 -10.278  17.985  0.00  0.00    -0.336 OA
ATOM      5  N   UNL     1      -6.294 -10.055  15.757  0.00  0.00    -0.190 NA
ATOM      6  N   UNL     1      -5.030 -10.496  17.613  0.00  0.00    -0.056 NA
ATOM     12  C   UNL     1      -7.038 -10.025  16.834  0.00  0.00    +0.245 A 
ATOM     13  C   UNL     1      -5.069 -10.348  16.286  0.00  0.00    +0.202 A 
ENDROOT
BRANCH  12   8
ATOM      4  N   UNL     1      -8.784  -8.545  17.766  0.00  0.00    -0.305 NA
ATOM      8  C   UNL     1      -8.518  -9.752  16.968  0.00  0.00    +0.143 C 
ATOM      9  C   UNL     1      -9.232  -9.519  15.626  0.00  0.00    +0.029 C 
ATOM     10  C   UNL     1      -9.919  -8.170  15.777  0.00  0.00    +0.017 C 
ATOM     11  C   UNL     1     -10.045  -7.998  17.276  0.00  0.00    +0.081 C 
ATOM     22  H   UNL     1      -8.051  -7.858  17.580  0.00  0.00    +0.123 HD
ENDBRANCH  12   8
BRANCH  13  14
ATOM      7  N   UNL     1      -1.640 -10.756  13.844  0.00  0.00    -0.221 NA
ATOM     14  C   UNL     1      -3.907 -10.487  15.458  0.00  0.00    +0.029 A 
ATOM     15  C   UNL     1      -4.028 -10.457  14.073  0.00  0.00    +0.079 A 
ATOM     16  C   UNL     1      -2.653 -10.652  16.036  0.00  0.00    +0.031 A 
ATOM     17  C   UNL     1      -2.875 -10.594  13.317  0.00  0.00    +0.215 A 
ATOM     18  C   UNL     1      -1.561 -10.781  15.193  0.00  0.00    +0.115 A 
BRANCH  17   2
ATOM      2  O   UNL     1      -2.969 -10.568  11.951  0.00  0.00    -0.474 OA
BRANCH   2  19
ATOM     19  C   UNL     1      -3.930  -9.678  11.393  0.00  0.00    +0.258 C 
BRANCH  19  20
ATOM     20  C   UNL     1      -3.436  -9.199  10.042  0.00  0.00    +0.200 C 
BRANCH  20   3
ATOM      3  O   UNL     1      -4.540  -9.101   9.151  0.00  0.00    -0.380 OA
ATOM     21  C   UNL     1      -5.726  -8.715   9.832  0.00  0.00    +0.194 C 
ENDBRANCH  20   3
ENDBRANCH  19  20
ENDBRANCH   2  19
ENDBRANCH  17   2
ENDBRANCH  13  14
TORSDOF 6
ENDMDL
MODEL 4
REMARK VINA RESULT:      -4.1     15.223     17.349
REMARK  Name = 45783368
REMARK  7 active torsions:
REMARK  status: ('A' for Active; 'I' for Inactive)
REMARK    1  A    between atoms: O_2  and  C_17
REMARK    2  A    between atoms: O_2  and  C_19
REMARK    3  A    between atoms: O_3  and  C_20
REMARK    4  A    between atoms: O_3  and  C_21
REMARK    5  A    between atoms: C_8  and  C_12
REMARK    6  A    between atoms: C_13  and  C_14
REMARK    7  A    between atoms: C_19  and  C_20
REMARK                            x       y       z     vdW  Elec       q    Type
REMARK                         _______ _______ _______ _____ _____    ______ ____
ROOT
ATOM      1  O   UNL     1      -5.255 -10.348  16.421  0.00  0.00    -0.336 OA
ATOM      5  N   UNL     1      -6.396  -9.747  14.589  0.00  0.00    -0.190 NA
ATOM      6  N   UNL     1      -4.425 -10.639  15.332  0.00  0.00    -0.056 NA
ATOM     12  C   UNL     1      -6.395  -9.827  15.896  0.00  0.00    +0.245 A 
ATOM     13  C   UNL     1      -5.166 -10.257  14.288  0.00  0.00    +0.202 A 
ENDROOT
BRANCH  12   8
ATOM      4  N   UNL     1      -8.625  -8.810  16.213  0.00  0.00    -0.305 NA
ATOM      8  C   UNL     1      -7.468  -9.425  16.882  0.00  0.00    +0.143 C 
ATOM      9  C   UNL     1      -8.042 -10.599  17.690  0.00  0.00    +0.029 C 
ATOM     10  C   UNL     1      -9.544 -10.540  17.458  0.00  0.00    +0.017 C 
ATOM     11  C   UNL     1      -9.785  -9.102  17.048  0.00  0.00    +0.081 C 
ATOM     22  H   UNL     1      -8.766  -9.267  15.309  0.00  0.00    +0.123 HD
ENDBRANCH  12   8
BRANCH  13  14
ATOM      7  N   UNL     1      -3.824 -10.595  10.291  0.00  0.00    -0.221 NA
ATOM     14  C   UNL     1      -4.711 -10.372  12.933  0.00  0.00    +0.029 A 
ATOM     15  C   UNL     1      -5.597 -10.175  11.880  0.00  0.00    +0.079 A 
ATOM     16  C   UNL     1      -3.382 -10.681  12.667  0.00  0.00    +0.031 A 
ATOM     17  C   UNL     1      -5.109 -10.296  10.589  0.00  0.00    +0.215 A 
ATOM     18  C   UNL     1      -2.992 -10.781  11.341  0.00  0.00    +0.115 A 
BRANCH  17   2
ATOM      2  O   UNL     1      -5.963 -10.106   9.535  0.00  0.00    -0.474 OA
BRANCH   2  19
ATOM     19  C   UNL     1      -6.425  -8.777   9.318  0.00  0.00    +0.258 C 
BRANCH  19  20
ATOM     20  C   UNL     1      -7.778  -8.830   8.634  0.00  0.00    +0.200 C 
BRANCH  20   3
ATOM      3  O   UNL     1      -8.640  -7.874   9.237  0.00  0.00    -0.380 OA
ATOM     21  C   UNL     1      -8.697  -6.673   8.481  0.00  0.00    +0.194 C 
ENDBRANCH  20   3
ENDBRANCH  19  20
ENDBRANCH   2  19
ENDBRANCH  17   2
ENDBRANCH  13  14
TORSDOF 6
ENDMDL
MODEL 5
REMARK VINA RESULT:      -4.0      1.565      3.194
REMARK  Name = 45783368
REMARK  7 active torsions:
REMARK  status: ('A' for Active; 'I' for Inactive)
REMARK    1  A    between atoms: O_2  and  C_17
REMARK    2  A    between atoms: O_2  and  C_19
REMARK    3  A    between atoms: O_3  and  C_20
REMARK    4  A    between atoms: O_3  and  C_21
REMARK    5  A    between atoms: C_8  and  C_12
REMARK    6  A    between atoms: C_13  and  C_14
REMARK    7  A    between atoms: C_19  and  C_20
REMARK                            x       y       z     vdW  Elec       q    Type
REMARK                         _______ _______ _______ _____ _____    ______ ____
ROOT
ATOM      1  O   UNL     1       1.551   2.063  24.069  0.00  0.00    -0.336 OA
ATOM      5  N   UNL     1       0.079   0.547  23.327  0.00  0.00    -0.190 NA
ATOM      6  N   UNL     1       0.300   2.470  24.547  0.00  0.00    -0.056 NA
ATOM     12  C   UNL     1       1.333   0.924  23.362  0.00  0.00    +0.245 A 
ATOM     13  C   UNL     1      -0.516   1.526  24.069  0.00  0.00    +0.202 A 
ENDROOT
BRANCH  12   8
ATOM      4  N   UNL     1       3.701   1.188  22.705  0.00  0.00    -0.305 NA
ATOM      8  C   UNL     1       2.545   0.277  22.734  0.00  0.00    +0.143 C 
ATOM      9  C   UNL     1       3.035  -0.977  23.475  0.00  0.00    +0.029 C 
ATOM     10  C   UNL     1       4.499  -0.705  23.783  0.00  0.00    +0.017 C 
ATOM     11  C   UNL     1       4.890   0.345  22.764  0.00  0.00    +0.081 C 
ATOM     22  H   UNL     1       3.685   1.768  23.546  0.00  0.00    +0.123 HD
ENDBRANCH  12   8
BRANCH  13  14
ATOM      7  N   UNL     1      -4.685   1.541  24.782  0.00  0.00    -0.221 NA
ATOM     14  C   UNL     1      -1.930   1.532  24.311  0.00  0.00    +0.029 A 
ATOM     15  C   UNL     1      -2.648   0.341  24.281  0.00  0.00    +0.079 A 
ATOM     16  C   UNL     1      -2.588   2.727  24.575  0.00  0.00    +0.031 A 
ATOM     17  C   UNL     1      -4.011   0.399  24.521  0.00  0.00    +0.215 A 
ATOM     18  C   UNL     1      -3.954   2.679  24.802  0.00  0.00    +0.115 A 
BRANCH  17   2
ATOM      2  O   UNL     1      -4.740  -0.761  24.498  0.00  0.00    -0.474 OA
BRANCH   2  19
ATOM     19  C   UNL     1      -4.261  -1.800  23.652  0.00  0.00    +0.258 C 
BRANCH  19  20
ATOM     20  C   UNL     1      -3.888  -2.999  24.503  0.00  0.00    +0.200 C 
BRANCH  20   3
ATOM      3  O   UNL     1      -2.704  -2.701  25.231  0.00  0.00    -0.380 OA
ATOM     21  C   UNL     1      -1.571  -2.629  24.377  0.00  0.00    +0.194 C 
ENDBRANCH  20   3
ENDBRANCH  19  20
ENDBRANCH   2  19
ENDBRANCH  17   2
ENDBRANCH  13  14
TORSDOF 6
ENDMDL
MODEL 6
REMARK VINA RESULT:      -2.6      2.855      5.146
REMARK  Name = 45783368
REMARK  7 active torsions:
REMARK  status: ('A' for Active; 'I' for Inactive)
REMARK    1  A    between atoms: O_2  and  C_17
REMARK    2  A    between atoms: O_2  and  C_19
REMARK    3  A    between atoms: O_3  and  C_20
REMARK    4  A    between atoms: O_3  and  C_21
REMARK    5  A    between atoms: C_8  and  C_12
REMARK    6  A    between atoms: C_13  and  C_14
REMARK    7  A    between atoms: C_19  and  C_20
REMARK                            x       y       z     vdW  Elec       q    Type
REMARK                         _______ _______ _______ _____ _____    ______ ____
ROOT
ATOM      1  O   UNL     1       0.065  -0.626  24.011  0.00  0.00    -0.336 OA
ATOM      5  N   UNL     1      -1.691   0.358  24.992  0.00  0.00    -0.190 NA
ATOM      6  N   UNL     1       0.311   0.751  23.957  0.00  0.00    -0.056 NA
ATOM     12  C   UNL     1      -1.132  -0.771  24.635  0.00  0.00    +0.245 A 
ATOM     13  C   UNL     1      -0.768   1.264  24.556  0.00  0.00    +0.202 A 
ENDROOT
BRANCH  12   8
ATOM      4  N   UNL     1      -2.750  -2.255  25.771  0.00  0.00    -0.305 NA
ATOM      8  C   UNL     1      -1.629  -2.186  24.820  0.00  0.00    +0.143 C 
ATOM      9  C   UNL     1      -2.152  -2.836  23.528  0.00  0.00    +0.029 C 
ATOM     10  C   UNL     1      -3.565  -3.290  23.861  0.00  0.00    +0.017 C 
ATOM     11  C   UNL     1      -3.559  -3.401  25.371  0.00  0.00    +0.081 C 
ATOM     22  H   UNL     1      -3.323  -1.415  25.668  0.00  0.00    +0.123 HD
ENDBRANCH  12   8
BRANCH  13  14
ATOM      7  N   UNL     1      -1.325   5.424  25.077  0.00  0.00    -0.221 NA
ATOM     14  C   UNL     1      -0.956   2.675  24.732  0.00  0.00    +0.029 A 
ATOM     15  C   UNL     1      -2.084   3.151  25.392  0.00  0.00    +0.079 A 
ATOM     16  C   UNL     1      -0.013   3.572  24.244  0.00  0.00    +0.031 A 
ATOM     17  C   UNL     1      -2.221   4.522  25.537  0.00  0.00    +0.215 A 
ATOM     18  C   UNL     1      -0.242   4.924  24.440  0.00  0.00    +0.115 A 
BRANCH  17   2
ATOM      2  O   UNL     1      -3.323   5.015  26.184  0.00  0.00    -0.474 OA
BRANCH   2  19
ATOM     19  C   UNL     1      -4.310   4.069  26.578  0.00  0.00    +0.258 C 
BRANCH  19  20
ATOM     20  C   UNL     1      -5.246   3.815  25.412  0.00  0.00    +0.200 C 
BRANCH  20   3
ATOM      3  O   UNL     1      -5.905   2.570  25.608  0.00  0.00    -0.380 OA
ATOM     21  C   UNL     1      -5.211   1.507  24.970  0.00  0.00    +0.194 C 
ENDBRANCH  20   3
ENDBRANCH  19  20
ENDBRANCH   2  19
ENDBRANCH  17   2
ENDBRANCH  13  14
TORSDOF 6
ENDMDL
MODEL 7
REMARK VINA RESULT:      -2.3      1.783      7.405
REMARK  Name = 45783368
REMARK  7 active torsions:
REMARK  status: ('A' for Active; 'I' for Inactive)
REMARK    1  A    between atoms: O_2  and  C_17
REMARK    2  A    between atoms: O_2  and  C_19
REMARK    3  A    between atoms: O_3  and  C_20
REMARK    4  A    between atoms: O_3  and  C_21
REMARK    5  A    between atoms: C_8  and  C_12
REMARK    6  A    between atoms: C_13  and  C_14
REMARK    7  A    between atoms: C_19  and  C_20
REMARK                            x       y       z     vdW  Elec       q    Type
REMARK                         _______ _______ _______ _____ _____    ______ ____
ROOT
ATOM      1  O   UNL     1      -4.663   0.091  25.307  0.00  0.00    -0.336 OA
ATOM      5  N   UNL     1      -2.930   1.203  24.424  0.00  0.00    -0.190 NA
ATOM      6  N   UNL     1      -3.581  -0.797  25.325  0.00  0.00    -0.056 NA
ATOM     12  C   UNL     1      -4.195   1.244  24.761  0.00  0.00    +0.245 A 
ATOM     13  C   UNL     1      -2.597  -0.070  24.789  0.00  0.00    +0.202 A 
ENDROOT
BRANCH  12   8
ATOM      4  N   UNL     1      -5.886   2.644  25.896  0.00  0.00    -0.305 NA
ATOM      8  C   UNL     1      -5.185   2.378  24.630  0.00  0.00    +0.143 C 
ATOM      9  C   UNL     1      -4.547   3.718  24.229  0.00  0.00    +0.029 C 
ATOM     10  C   UNL     1      -4.985   4.699  25.305  0.00  0.00    +0.017 C 
ATOM     11  C   UNL     1      -6.231   4.062  25.884  0.00  0.00    +0.081 C 
ATOM     22  H   UNL     1      -5.240   2.484  26.671  0.00  0.00    +0.123 HD
ENDBRANCH  12   8
BRANCH  13  14
ATOM      7  N   UNL     1       1.315  -1.581  24.238  0.00  0.00    -0.221 NA
ATOM     14  C   UNL     1      -1.271  -0.583  24.602  0.00  0.00    +0.029 A 
ATOM     15  C   UNL     1      -0.409   0.023  23.693  0.00  0.00    +0.079 A 
ATOM     16  C   UNL     1      -0.840  -1.687  25.329  0.00  0.00    +0.031 A 
ATOM     17  C   UNL     1       0.861  -0.510  23.549  0.00  0.00    +0.215 A 
ATOM     18  C   UNL     1       0.450  -2.144  25.112  0.00  0.00    +0.115 A 
BRANCH  17   2
ATOM      2  O   UNL     1       1.728   0.070  22.661  0.00  0.00    -0.474 OA
BRANCH   2  19
ATOM     19  C   UNL     1       3.100  -0.289  22.779  0.00  0.00    +0.258 C 
BRANCH  19  20
ATOM     20  C   UNL     1       3.947   0.968  22.723  0.00  0.00    +0.200 C 
BRANCH  20   3
ATOM      3  O   UNL     1       5.001   0.860  23.671  0.00  0.00    -0.380 OA
ATOM     21  C   UNL     1       5.318  -0.498  23.945  0.00  0.00    +0.194 C 
ENDBRANCH  20   3
ENDBRANCH  19  20
ENDBRANCH   2  19
ENDBRANCH  17   2
ENDBRANCH  13  14
TORSDOF 6
ENDMDL
