MODEL 1
REMARK VINA RESULT:      -5.2      0.000      0.000
REMARK  Name = 56774417
REMARK  4 active torsions:
REMARK  status: ('A' for Active; 'I' for Inactive)
REMARK    1  A    between atoms: N_1  and  C_10
REMARK    2  A    between atoms: N_2  and  C_14
REMARK    3  A    between atoms: C_5  and  C_9
REMARK    4  A    between atoms: C_10  and  C_13
REMARK                            x       y       z     vdW  Elec       q    Type
REMARK                         _______ _______ _______ _____ _____    ______ ____
ROOT
ATOM      1  N   UNL     1       0.688  -0.537  23.778  0.00  0.00    -0.296 NA
ATOM      5  C   UNL     1      -1.111   0.062  25.159  0.00  0.00    +0.070 C 
ATOM      6  C   UNL     1      -1.298  -1.383  24.667  0.00  0.00    +0.028 C 
ATOM      7  C   UNL     1      -0.038   0.651  24.233  0.00  0.00    +0.096 C 
ATOM      8  C   UNL     1      -0.352  -1.524  23.483  0.00  0.00    +0.085 C 
ENDROOT
BRANCH   5   9
ATOM      2  N   UNL     1      -2.359   2.232  25.455  0.00  0.00    -0.330 N 
ATOM      3  N   UNL     1      -3.594   0.442  24.996  0.00  0.00    -0.232 NA
ATOM      9  C   UNL     1      -2.375   0.890  25.197  0.00  0.00    +0.115 A 
ATOM     11  C   UNL     1      -3.654   2.681  25.418  0.00  0.00    +0.069 A 
ATOM     12  C   UNL     1      -4.406   1.545  25.131  0.00  0.00    +0.089 A 
ATOM     14  C   UNL     1      -1.188   3.038  25.720  0.00  0.00    +0.150 C 
ATOM     15  C   UNL     1      -4.215   3.944  25.607  0.00  0.00    +0.028 A 
ATOM     16  C   UNL     1      -5.803   1.658  25.020  0.00  0.00    +0.030 A 
ATOM     18  C   UNL     1      -5.606   4.039  25.494  0.00  0.00    +0.002 A 
ATOM     19  C   UNL     1      -6.387   2.918  25.205  0.00  0.00    +0.002 A 
ENDBRANCH   5   9
BRANCH   1  10
ATOM     10  C   UNL     1       1.535  -0.263  22.627  0.00  0.00    +0.139 C 
BRANCH  10  13
ATOM      4  N   UNL     1       3.512  -1.339  23.553  0.00  0.00    -0.259 NA
ATOM     13  C   UNL     1       2.992  -0.219  23.002  0.00  0.00    +0.055 A 
ATOM     17  C   UNL     1       3.717   0.939  22.769  0.00  0.00    +0.024 A 
ATOM     20  C   UNL     1       5.062   0.946  23.126  0.00  0.00    +0.003 A 
ATOM     21  C   UNL     1       4.820  -1.294  23.887  0.00  0.00    +0.111 A 
ATOM     22  C   UNL     1       5.631  -0.187  23.695  0.00  0.00    +0.020 A 
ENDBRANCH  10  13
ENDBRANCH   1  10
TORSDOF 3
ENDMDL
MODEL 2
REMARK VINA RESULT:      -3.2      1.352      1.656
REMARK  Name = 56774417
REMARK  4 active torsions:
REMARK  status: ('A' for Active; 'I' for Inactive)
REMARK    1  A    between atoms: N_1  and  C_10
REMARK    2  A    between atoms: N_2  and  C_14
REMARK    3  A    between atoms: C_5  and  C_9
REMARK    4  A    between atoms: C_10  and  C_13
REMARK                            x       y       z     vdW  Elec       q    Type
REMARK                         _______ _______ _______ _____ _____    ______ ____
ROOT
ATOM      1  N   UNL     1       0.946   1.024  23.137  0.00  0.00    -0.296 NA
ATOM      5  C   UNL     1      -0.937   2.346  23.597  0.00  0.00    +0.070 C 
ATOM      6  C   UNL     1       0.142   2.597  24.664  0.00  0.00    +0.028 C 
ATOM      7  C   UNL     1      -0.500   1.050  22.901  0.00  0.00    +0.096 C 
ATOM      8  C   UNL     1       1.107   1.425  24.535  0.00  0.00    +0.085 C 
ENDROOT
BRANCH   5   9
ATOM      2  N   UNL     1      -2.933   3.333  24.779  0.00  0.00    -0.330 N 
ATOM      3  N   UNL     1      -3.164   1.254  24.029  0.00  0.00    -0.232 NA
ATOM      9  C   UNL     1      -2.351   2.282  24.126  0.00  0.00    +0.115 A 
ATOM     11  C   UNL     1      -4.205   2.958  25.126  0.00  0.00    +0.069 A 
ATOM     12  C   UNL     1      -4.325   1.656  24.648  0.00  0.00    +0.089 A 
ATOM     14  C   UNL     1      -2.319   4.612  25.055  0.00  0.00    +0.150 C 
ATOM     15  C   UNL     1      -5.229   3.625  25.798  0.00  0.00    +0.028 A 
ATOM     16  C   UNL     1      -5.533   0.964  24.842  0.00  0.00    +0.030 A 
ATOM     18  C   UNL     1      -6.424   2.922  25.983  0.00  0.00    +0.002 A 
ATOM     19  C   UNL     1      -6.575   1.616  25.514  0.00  0.00    +0.002 A 
ENDBRANCH   5   9
BRANCH   1  10
ATOM     10  C   UNL     1       1.530  -0.280  22.863  0.00  0.00    +0.139 C 
BRANCH  10  13
ATOM      4  N   UNL     1       3.507  -1.442  23.677  0.00  0.00    -0.259 NA
ATOM     13  C   UNL     1       3.008  -0.302  23.147  0.00  0.00    +0.055 A 
ATOM     17  C   UNL     1       3.772   0.817  22.858  0.00  0.00    +0.024 A 
ATOM     20  C   UNL     1       5.135   0.763  23.131  0.00  0.00    +0.003 A 
ATOM     21  C   UNL     1       4.835  -1.457  23.929  0.00  0.00    +0.111 A 
ATOM     22  C   UNL     1       5.683  -0.391  23.676  0.00  0.00    +0.020 A 
ENDBRANCH  10  13
ENDBRANCH   1  10
TORSDOF 3
ENDMDL
MODEL 3
REMARK VINA RESULT:      -2.3      2.792      6.507
REMARK  Name = 56774417
REMARK  4 active torsions:
REMARK  status: ('A' for Active; 'I' for Inactive)
REMARK    1  A    between atoms: N_1  and  C_10
REMARK    2  A    between atoms: N_2  and  C_14
REMARK    3  A    between atoms: C_5  and  C_9
REMARK    4  A    between atoms: C_10  and  C_13
REMARK                            x       y       z     vdW  Elec       q    Type
REMARK                         _______ _______ _______ _____ _____    ______ ____
ROOT
ATOM      1  N   UNL     1      -0.269   3.568  25.194  0.00  0.00    -0.296 NA
ATOM      5  C   UNL     1      -0.261   1.223  25.139  0.00  0.00    +0.070 C 
ATOM      6  C   UNL     1       0.468   1.770  23.900  0.00  0.00    +0.028 C 
ATOM      7  C   UNL     1      -1.036   2.425  25.695  0.00  0.00    +0.096 C 
ATOM      8  C   UNL     1       0.047   3.230  23.806  0.00  0.00    +0.085 C 
ENDROOT
BRANCH   5   9
ATOM      2  N   UNL     1      -2.403   0.142  24.366  0.00  0.00    -0.330 N 
ATOM      3  N   UNL     1      -0.821  -1.231  25.108  0.00  0.00    -0.232 NA
ATOM      9  C   UNL     1      -1.142   0.023  24.880  0.00  0.00    +0.115 A 
ATOM     11  C   UNL     1      -2.931  -1.118  24.254  0.00  0.00    +0.069 A 
ATOM     12  C   UNL     1      -1.924  -1.958  24.724  0.00  0.00    +0.089 A 
ATOM     14  C   UNL     1      -3.066   1.375  24.004  0.00  0.00    +0.150 C 
ATOM     15  C   UNL     1      -4.165  -1.582  23.797  0.00  0.00    +0.028 A 
ATOM     16  C   UNL     1      -2.145  -3.346  24.745  0.00  0.00    +0.030 A 
ATOM     18  C   UNL     1      -4.368  -2.965  23.825  0.00  0.00    +0.002 A 
ATOM     19  C   UNL     1      -3.377  -3.833  24.289  0.00  0.00    +0.002 A 
ENDBRANCH   5   9
BRANCH   1  10
ATOM     10  C   UNL     1      -1.000   4.821  25.308  0.00  0.00    +0.139 C 
BRANCH  10  13
ATOM      4  N   UNL     1      -3.126   4.792  24.125  0.00  0.00    -0.259 NA
ATOM     13  C   UNL     1      -2.489   4.603  25.303  0.00  0.00    +0.055 A 
ATOM     17  C   UNL     1      -3.123   4.228  26.476  0.00  0.00    +0.024 A 
ATOM     20  C   UNL     1      -4.500   4.033  26.438  0.00  0.00    +0.003 A 
ATOM     21  C   UNL     1      -4.463   4.594  24.127  0.00  0.00    +0.111 A 
ATOM     22  C   UNL     1      -5.190   4.218  25.245  0.00  0.00    +0.020 A 
ENDBRANCH  10  13
ENDBRANCH   1  10
TORSDOF 3
ENDMDL
MODEL 4
REMARK VINA RESULT:      -1.7      1.845      7.093
REMARK  Name = 56774417
REMARK  4 active torsions:
REMARK  status: ('A' for Active; 'I' for Inactive)
REMARK    1  A    between atoms: N_1  and  C_10
REMARK    2  A    between atoms: N_2  and  C_14
REMARK    3  A    between atoms: C_5  and  C_9
REMARK    4  A    between atoms: C_10  and  C_13
REMARK                            x       y       z     vdW  Elec       q    Type
REMARK                         _______ _______ _______ _____ _____    ______ ____
ROOT
ATOM      1  N   UNL     1      -3.657   1.981  25.298  0.00  0.00    -0.296 NA
ATOM      5  C   UNL     1      -1.375   2.390  24.944  0.00  0.00    +0.070 C 
ATOM      6  C   UNL     1      -2.210   3.368  24.100  0.00  0.00    +0.028 C 
ATOM      7  C   UNL     1      -2.364   1.295  25.362  0.00  0.00    +0.096 C 
ATOM      8  C   UNL     1      -3.608   2.763  24.063  0.00  0.00    +0.085 C 
ENDROOT
BRANCH   5   9
ATOM      2  N   UNL     1      -0.176   0.684  23.526  0.00  0.00    -0.330 N 
ATOM      3  N   UNL     1       1.049   2.385  24.264  0.00  0.00    -0.232 NA
ATOM      9  C   UNL     1      -0.148   1.842  24.253  0.00  0.00    +0.115 A 
ATOM     11  C   UNL     1       1.085   0.466  23.035  0.00  0.00    +0.069 A 
ATOM     12  C   UNL     1       1.832   1.541  23.511  0.00  0.00    +0.089 A 
ATOM     14  C   UNL     1      -1.329  -0.161  23.311  0.00  0.00    +0.150 C 
ATOM     15  C   UNL     1       1.621  -0.548  22.242  0.00  0.00    +0.028 A 
ATOM     16  C   UNL     1       3.196   1.625  23.183  0.00  0.00    +0.030 A 
ATOM     18  C   UNL     1       2.980  -0.450  21.926  0.00  0.00    +0.002 A 
ATOM     19  C   UNL     1       3.755   0.617  22.386  0.00  0.00    +0.002 A 
ENDBRANCH   5   9
BRANCH   1  10
ATOM     10  C   UNL     1      -4.779   1.056  25.324  0.00  0.00    +0.139 C 
BRANCH  10  13
ATOM      4  N   UNL     1      -4.677  -0.885  23.860  0.00  0.00    -0.259 NA
ATOM     13  C   UNL     1      -4.345  -0.361  25.062  0.00  0.00    +0.055 A 
ATOM     17  C   UNL     1      -3.640  -1.046  26.038  0.00  0.00    +0.024 A 
ATOM     20  C   UNL     1      -3.252  -2.354  25.764  0.00  0.00    +0.003 A 
ATOM     21  C   UNL     1      -4.283  -2.157  23.630  0.00  0.00    +0.111 A 
ATOM     22  C   UNL     1      -3.575  -2.926  24.539  0.00  0.00    +0.020 A 
ENDBRANCH  10  13
ENDBRANCH   1  10
TORSDOF 3
ENDMDL
