MODEL 1
REMARK VINA RESULT:      -5.2      0.000      0.000
REMARK  Name = 75536074
REMARK  5 active torsions:
REMARK  status: ('A' for Active; 'I' for Inactive)
REMARK    1  A    between atoms: O_1  and  C_8
REMARK    2  A    between atoms: O_2  and  C_10
REMARK    3  A    between atoms: N_4  and  C_6
REMARK    4  A    between atoms: C_7  and  C_15
REMARK    5  A    between atoms: C_11  and  C_16
REMARK                            x       y       z     vdW  Elec       q    Type
REMARK                         _______ _______ _______ _____ _____    ______ ____
ROOT
ATOM      6  C   UNL     1      -2.142   2.142  24.475  0.00  0.00    +0.111 C 
ATOM      7  C   UNL     1      -3.355   1.414  23.852  0.00  0.00    +0.046 C 
ATOM      8  C   UNL     1      -2.595   3.600  24.534  0.00  0.00    +0.164 C 
ATOM      9  C   UNL     1      -4.583   2.318  24.138  0.00  0.00    +0.044 C 
ATOM     10  C   UNL     1      -4.054   3.492  24.958  0.00  0.00    +0.145 C 
ENDROOT
BRANCH   7  15
ATOM      5  N   UNL     1      -3.339  -1.603  26.151  0.00  0.00    -0.263 NA
ATOM     15  C   UNL     1      -3.502  -0.012  24.338  0.00  0.00    -0.024 A 
ATOM     17  C   UNL     1      -3.915  -1.023  23.478  0.00  0.00    +0.007 A 
ATOM     18  C   UNL     1      -3.229  -0.351  25.654  0.00  0.00    +0.114 A 
ATOM     19  C   UNL     1      -4.040  -2.324  23.952  0.00  0.00    +0.020 A 
ATOM     20  C   UNL     1      -3.743  -2.560  25.285  0.00  0.00    +0.111 A 
ENDBRANCH   7  15
BRANCH   6   4
ATOM      3  O   UNL     1      -0.190   0.048  24.705  0.00  0.00    -0.276 OA
ATOM      4  N   UNL     1      -0.950   1.981  23.682  0.00  0.00    -0.309 N 
ATOM     16  C   UNL     1      -0.051   0.935  23.856  0.00  0.00    +0.216 C 
ATOM     21  H   UNL     1      -0.778   2.646  22.932  0.00  0.00    +0.149 HD
BRANCH  16  11
ATOM     11  C   UNL     1       1.142   0.989  22.899  0.00  0.00    +0.075 C 
ATOM     12  C   UNL     1       2.563   1.096  23.513  0.00  0.00    +0.013 C 
ATOM     13  C   UNL     1       1.616  -0.347  22.268  0.00  0.00    +0.013 C 
ATOM     14  C   UNL     1       3.056   0.189  22.369  0.00  0.00    +0.001 C 
ENDBRANCH  16  11
ENDBRANCH   6   4
BRANCH   8   1
ATOM      1  O   UNL     1      -1.846   4.357  25.466  0.00  0.00    -0.387 OA
ATOM     22  H   UNL     1      -1.781   3.834  26.282  0.00  0.00    +0.210 HD
ENDBRANCH   8   1
BRANCH  10   2
ATOM      2  O   UNL     1      -4.161   3.168  26.342  0.00  0.00    -0.389 OA
ATOM     23  H   UNL     1      -4.829   3.759  26.729  0.00  0.00    +0.210 HD
ENDBRANCH  10   2
TORSDOF 5
ENDMDL
MODEL 2
REMARK VINA RESULT:      -5.1      2.510      4.124
REMARK  Name = 75536074
REMARK  5 active torsions:
REMARK  status: ('A' for Active; 'I' for Inactive)
REMARK    1  A    between atoms: O_1  and  C_8
REMARK    2  A    between atoms: O_2  and  C_10
REMARK    3  A    between atoms: N_4  and  C_6
REMARK    4  A    between atoms: C_7  and  C_15
REMARK    5  A    between atoms: C_11  and  C_16
REMARK                            x       y       z     vdW  Elec       q    Type
REMARK                         _______ _______ _______ _____ _____    ______ ____
ROOT
ATOM      6  C   UNL     1      -1.204  -0.564  24.340  0.00  0.00    +0.111 C 
ATOM      7  C   UNL     1      -2.011   0.130  25.460  0.00  0.00    +0.046 C 
ATOM      8  C   UNL     1      -1.423  -2.052  24.615  0.00  0.00    +0.164 C 
ATOM      9  C   UNL     1      -3.078  -0.901  25.914  0.00  0.00    +0.044 C 
ATOM     10  C   UNL     1      -2.893  -2.118  25.011  0.00  0.00    +0.145 C 
ENDROOT
BRANCH   7  15
ATOM      5  N   UNL     1      -2.331   3.871  24.922  0.00  0.00    -0.263 NA
ATOM     15  C   UNL     1      -2.578   1.470  25.038  0.00  0.00    -0.024 A 
ATOM     17  C   UNL     1      -3.812   1.558  24.406  0.00  0.00    +0.007 A 
ATOM     18  C   UNL     1      -1.883   2.645  25.272  0.00  0.00    +0.114 A 
ATOM     19  C   UNL     1      -4.308   2.802  24.031  0.00  0.00    +0.020 A 
ATOM     20  C   UNL     1      -3.536   3.918  24.309  0.00  0.00    +0.111 A 
ENDBRANCH   7  15
BRANCH   6   4
ATOM      3  O   UNL     1       0.597  -0.401  22.109  0.00  0.00    -0.276 OA
ATOM      4  N   UNL     1       0.192  -0.209  24.381  0.00  0.00    -0.309 N 
ATOM     16  C   UNL     1       1.000  -0.153  23.251  0.00  0.00    +0.216 C 
ATOM     21  H   UNL     1       0.595   0.050  25.277  0.00  0.00    +0.149 HD
BRANCH  16  11
ATOM     11  C   UNL     1       2.448   0.238  23.555  0.00  0.00    +0.075 C 
ATOM     12  C   UNL     1       3.539  -0.858  23.428  0.00  0.00    +0.013 C 
ATOM     13  C   UNL     1       3.227   1.010  22.457  0.00  0.00    +0.013 C 
ATOM     14  C   UNL     1       4.484   0.235  22.894  0.00  0.00    +0.001 C 
ENDBRANCH  16  11
ENDBRANCH   6   4
BRANCH   8   1
ATOM      1  O   UNL     1      -1.164  -2.851  23.476  0.00  0.00    -0.387 OA
ATOM     22  H   UNL     1      -1.313  -2.299  22.691  0.00  0.00    +0.210 HD
ENDBRANCH   8   1
BRANCH  10   2
ATOM      2  O   UNL     1      -3.736  -1.974  23.871  0.00  0.00    -0.389 OA
ATOM     23  H   UNL     1      -3.172  -2.040  23.082  0.00  0.00    +0.210 HD
ENDBRANCH  10   2
TORSDOF 5
ENDMDL
MODEL 3
REMARK VINA RESULT:      -5.0      2.253      4.286
REMARK  Name = 75536074
REMARK  5 active torsions:
REMARK  status: ('A' for Active; 'I' for Inactive)
REMARK    1  A    between atoms: O_1  and  C_8
REMARK    2  A    between atoms: O_2  and  C_10
REMARK    3  A    between atoms: N_4  and  C_6
REMARK    4  A    between atoms: C_7  and  C_15
REMARK    5  A    between atoms: C_11  and  C_16
REMARK                            x       y       z     vdW  Elec       q    Type
REMARK                         _______ _______ _______ _____ _____    ______ ____
ROOT
ATOM      6  C   UNL     1      -1.697   1.486  24.840  0.00  0.00    +0.111 C 
ATOM      7  C   UNL     1      -2.644   2.307  23.936  0.00  0.00    +0.046 C 
ATOM      8  C   UNL     1      -0.305   1.938  24.400  0.00  0.00    +0.164 C 
ATOM      9  C   UNL     1      -1.831   3.550  23.490  0.00  0.00    +0.044 C 
ATOM     10  C   UNL     1      -0.479   3.438  24.192  0.00  0.00    +0.145 C 
ENDROOT
BRANCH   7  15
ATOM      5  N   UNL     1      -5.367   4.244  25.731  0.00  0.00    -0.263 NA
ATOM     15  C   UNL     1      -3.965   2.631  24.602  0.00  0.00    -0.024 A 
ATOM     17  C   UNL     1      -4.967   1.673  24.711  0.00  0.00    +0.007 A 
ATOM     18  C   UNL     1      -4.212   3.890  25.124  0.00  0.00    +0.114 A 
ATOM     19  C   UNL     1      -6.168   1.998  25.329  0.00  0.00    +0.020 A 
ATOM     20  C   UNL     1      -6.318   3.286  25.819  0.00  0.00    +0.111 A 
ENDBRANCH   7  15
BRANCH   6   4
ATOM      3  O   UNL     1      -1.076  -0.575  26.742  0.00  0.00    -0.276 OA
ATOM      4  N   UNL     1      -1.881   0.067  24.668  0.00  0.00    -0.309 N 
ATOM     16  C   UNL     1      -1.554  -0.871  25.641  0.00  0.00    +0.216 C 
ATOM     21  H   UNL     1      -2.307  -0.260  23.805  0.00  0.00    +0.149 HD
BRANCH  16  11
ATOM     11  C   UNL     1      -1.832  -2.314  25.216  0.00  0.00    +0.075 C 
ATOM     12  C   UNL     1      -3.309  -2.732  24.989  0.00  0.00    +0.013 C 
ATOM     13  C   UNL     1      -1.596  -2.681  23.727  0.00  0.00    +0.013 C 
ATOM     14  C   UNL     1      -2.813  -3.620  23.831  0.00  0.00    +0.001 C 
ENDBRANCH  16  11
ENDBRANCH   6   4
BRANCH   8   1
ATOM      1  O   UNL     1       0.681   1.669  25.380  0.00  0.00    -0.387 OA
ATOM     22  H   UNL     1       1.161   0.872  25.099  0.00  0.00    +0.210 HD
ENDBRANCH   8   1
BRANCH  10   2
ATOM      2  O   UNL     1      -0.553   4.122  25.439  0.00  0.00    -0.389 OA
ATOM     23  H   UNL     1      -1.287   3.730  25.943  0.00  0.00    +0.210 HD
ENDBRANCH  10   2
TORSDOF 5
ENDMDL
MODEL 4
REMARK VINA RESULT:      -4.9      1.606      4.954
REMARK  Name = 75536074
REMARK  5 active torsions:
REMARK  status: ('A' for Active; 'I' for Inactive)
REMARK    1  A    between atoms: O_1  and  C_8
REMARK    2  A    between atoms: O_2  and  C_10
REMARK    3  A    between atoms: N_4  and  C_6
REMARK    4  A    between atoms: C_7  and  C_15
REMARK    5  A    between atoms: C_11  and  C_16
REMARK                            x       y       z     vdW  Elec       q    Type
REMARK                         _______ _______ _______ _____ _____    ______ ____
ROOT
ATOM      6  C   UNL     1      -1.771   1.808  24.431  0.00  0.00    +0.111 C 
ATOM      7  C   UNL     1      -0.401   1.475  25.064  0.00  0.00    +0.046 C 
ATOM      8  C   UNL     1      -2.304   2.939  25.310  0.00  0.00    +0.164 C 
ATOM      9  C   UNL     1       0.029   2.751  25.834  0.00  0.00    +0.044 C 
ATOM     10  C   UNL     1      -1.064   3.785  25.574  0.00  0.00    +0.145 C 
ENDROOT
BRANCH   7  15
ATOM      5  N   UNL     1       2.795   1.217  23.036  0.00  0.00    -0.263 NA
ATOM     15  C   UNL     1       0.614   0.984  24.053  0.00  0.00    -0.024 A 
ATOM     17  C   UNL     1       0.339  -0.103  23.232  0.00  0.00    +0.007 A 
ATOM     18  C   UNL     1       1.846   1.604  23.918  0.00  0.00    +0.114 A 
ATOM     19  C   UNL     1       1.290  -0.531  22.312  0.00  0.00    +0.020 A 
ATOM     20  C   UNL     1       2.491   0.157  22.254  0.00  0.00    +0.111 A 
ENDBRANCH   7  15
BRANCH   6   4
ATOM      3  O   UNL     1      -1.704  -0.433  26.226  0.00  0.00    -0.276 OA
ATOM      4  N   UNL     1      -2.654   0.669  24.425  0.00  0.00    -0.309 N 
ATOM     16  C   UNL     1      -2.555  -0.380  25.333  0.00  0.00    +0.216 C 
ATOM     21  H   UNL     1      -3.411   0.651  23.747  0.00  0.00    +0.149 HD
BRANCH  16  11
ATOM     11  C   UNL     1      -3.601  -1.476  25.115  0.00  0.00    +0.075 C 
ATOM     12  C   UNL     1      -4.356  -1.501  23.760  0.00  0.00    +0.013 C 
ATOM     13  C   UNL     1      -3.087  -2.894  24.750  0.00  0.00    +0.013 C 
ATOM     14  C   UNL     1      -4.324  -3.039  23.843  0.00  0.00    +0.001 C 
ENDBRANCH  16  11
ENDBRANCH   6   4
BRANCH   8   1
ATOM      1  O   UNL     1      -3.310   3.694  24.661  0.00  0.00    -0.387 OA
ATOM     22  H   UNL     1      -2.895   4.507  24.327  0.00  0.00    +0.210 HD
ENDBRANCH   8   1
BRANCH  10   2
ATOM      2  O   UNL     1      -0.709   4.544  24.421  0.00  0.00    -0.389 OA
ATOM     23  H   UNL     1      -0.953   4.019  23.640  0.00  0.00    +0.210 HD
ENDBRANCH  10   2
TORSDOF 5
ENDMDL
MODEL 5
REMARK VINA RESULT:      -4.3      2.594      3.414
REMARK  Name = 75536074
REMARK  5 active torsions:
REMARK  status: ('A' for Active; 'I' for Inactive)
REMARK    1  A    between atoms: O_1  and  C_8
REMARK    2  A    between atoms: O_2  and  C_10
REMARK    3  A    between atoms: N_4  and  C_6
REMARK    4  A    between atoms: C_7  and  C_15
REMARK    5  A    between atoms: C_11  and  C_16
REMARK                            x       y       z     vdW  Elec       q    Type
REMARK                         _______ _______ _______ _____ _____    ______ ____
ROOT
ATOM      6  C   UNL     1      -4.162   2.026  25.412  0.00  0.00    +0.111 C 
ATOM      7  C   UNL     1      -4.615   0.992  24.357  0.00  0.00    +0.046 C 
ATOM      8  C   UNL     1      -5.294   3.053  25.411  0.00  0.00    +0.164 C 
ATOM      9  C   UNL     1      -6.156   1.133  24.260  0.00  0.00    +0.044 C 
ATOM     10  C   UNL     1      -6.544   2.189  25.292  0.00  0.00    +0.145 C 
ENDROOT
BRANCH   7  15
ATOM      5  N   UNL     1      -3.911  -2.715  23.961  0.00  0.00    -0.263 NA
ATOM     15  C   UNL     1      -4.135  -0.413  24.661  0.00  0.00    -0.024 A 
ATOM     17  C   UNL     1      -3.503  -0.709  25.863  0.00  0.00    +0.007 A 
ATOM     18  C   UNL     1      -4.314  -1.442  23.751  0.00  0.00    +0.114 A 
ATOM     19  C   UNL     1      -3.074  -2.007  26.116  0.00  0.00    +0.020 A 
ATOM     20  C   UNL     1      -3.300  -2.965  25.142  0.00  0.00    +0.111 A 
ENDBRANCH   7  15
BRANCH   6   4
ATOM      3  O   UNL     1      -2.614   3.818  27.036  0.00  0.00    -0.276 OA
ATOM      4  N   UNL     1      -2.895   2.623  25.073  0.00  0.00    -0.309 N 
ATOM     16  C   UNL     1      -2.205   3.485  25.919  0.00  0.00    +0.216 C 
ATOM     21  H   UNL     1      -2.466   2.369  24.187  0.00  0.00    +0.149 HD
BRANCH  16  11
ATOM     11  C   UNL     1      -0.888   3.994  25.329  0.00  0.00    +0.075 C 
ATOM     12  C   UNL     1      -0.437   3.424  23.958  0.00  0.00    +0.013 C 
ATOM     13  C   UNL     1      -0.900   5.385  24.643  0.00  0.00    +0.013 C 
ATOM     14  C   UNL     1       0.116   4.824  23.630  0.00  0.00    +0.001 C 
ENDBRANCH  16  11
ENDBRANCH   6   4
BRANCH   8   1
ATOM      1  O   UNL     1      -5.317   3.827  26.595  0.00  0.00    -0.387 OA
ATOM     22  H   UNL     1      -5.705   4.689  26.373  0.00  0.00    +0.210 HD
ENDBRANCH   8   1
BRANCH  10   2
ATOM      2  O   UNL     1      -6.833   1.538  26.526  0.00  0.00    -0.389 OA
ATOM     23  H   UNL     1      -7.659   1.919  26.871  0.00  0.00    +0.210 HD
ENDBRANCH  10   2
TORSDOF 5
ENDMDL
MODEL 6
REMARK VINA RESULT:      -4.0     16.192     17.641
REMARK  Name = 75536074
REMARK  5 active torsions:
REMARK  status: ('A' for Active; 'I' for Inactive)
REMARK    1  A    between atoms: O_1  and  C_8
REMARK    2  A    between atoms: O_2  and  C_10
REMARK    3  A    between atoms: N_4  and  C_6
REMARK    4  A    between atoms: C_7  and  C_15
REMARK    5  A    between atoms: C_11  and  C_16
REMARK                            x       y       z     vdW  Elec       q    Type
REMARK                         _______ _______ _______ _____ _____    ______ ____
ROOT
ATOM      6  C   UNL     1      -7.293  -9.130  10.219  0.00  0.00    +0.111 C 
ATOM      7  C   UNL     1      -8.484 -10.029  10.622  0.00  0.00    +0.046 C 
ATOM      8  C   UNL     1      -7.538  -8.861   8.735  0.00  0.00    +0.164 C 
ATOM      9  C   UNL     1      -9.601  -9.742   9.586  0.00  0.00    +0.044 C 
ATOM     10  C   UNL     1      -9.046  -8.656   8.665  0.00  0.00    +0.145 C 
ENDROOT
BRANCH   7  15
ATOM      5  N   UNL     1      -8.287  -9.695  14.396  0.00  0.00    -0.263 NA
ATOM     15  C   UNL     1      -8.907  -9.839  12.064  0.00  0.00    -0.024 A 
ATOM     17  C   UNL     1     -10.241  -9.642  12.399  0.00  0.00    +0.007 A 
ATOM     18  C   UNL     1      -7.976  -9.857  13.091  0.00  0.00    +0.114 A 
ATOM     19  C   UNL     1     -10.601  -9.472  13.732  0.00  0.00    +0.020 A 
ATOM     20  C   UNL     1      -9.595  -9.506  14.684  0.00  0.00    +0.111 A 
ENDBRANCH   7  15
BRANCH   6   4
ATOM      3  O   UNL     1      -4.731  -7.860  10.483  0.00  0.00    -0.276 OA
ATOM      4  N   UNL     1      -6.026  -9.779  10.446  0.00  0.00    -0.309 N 
ATOM     16  C   UNL     1      -4.824  -9.090  10.562  0.00  0.00    +0.216 C 
ATOM     21  H   UNL     1      -6.018 -10.788  10.565  0.00  0.00    +0.149 HD
BRANCH  16  11
ATOM     11  C   UNL     1      -3.617 -10.002  10.790  0.00  0.00    +0.075 C 
ATOM     12  C   UNL     1      -2.210  -9.349  10.835  0.00  0.00    +0.013 C 
ATOM     13  C   UNL     1      -3.341 -10.476  12.242  0.00  0.00    +0.013 C 
ATOM     14  C   UNL     1      -1.837 -10.376  11.922  0.00  0.00    +0.001 C 
ENDBRANCH  16  11
ENDBRANCH   6   4
BRANCH   8   1
ATOM      1  O   UNL     1      -6.845  -7.716   8.276  0.00  0.00    -0.387 OA
ATOM     22  H   UNL     1      -6.058  -8.024   7.796  0.00  0.00    +0.210 HD
ENDBRANCH   8   1
BRANCH  10   2
ATOM      2  O   UNL     1      -9.413  -7.383   9.188  0.00  0.00    -0.389 OA
ATOM     23  H   UNL     1      -9.401  -7.451  10.158  0.00  0.00    +0.210 HD
ENDBRANCH  10   2
TORSDOF 5
ENDMDL
MODEL 7
REMARK VINA RESULT:      -3.9      2.035      5.264
REMARK  Name = 75536074
REMARK  5 active torsions:
REMARK  status: ('A' for Active; 'I' for Inactive)
REMARK    1  A    between atoms: O_1  and  C_8
REMARK    2  A    between atoms: O_2  and  C_10
REMARK    3  A    between atoms: N_4  and  C_6
REMARK    4  A    between atoms: C_7  and  C_15
REMARK    5  A    between atoms: C_11  and  C_16
REMARK                            x       y       z     vdW  Elec       q    Type
REMARK                         _______ _______ _______ _____ _____    ______ ____
ROOT
ATOM      6  C   UNL     1      -1.432   0.514  24.613  0.00  0.00    +0.111 C 
ATOM      7  C   UNL     1      -1.864   1.811  23.893  0.00  0.00    +0.046 C 
ATOM      8  C   UNL     1      -0.054   0.222  24.023  0.00  0.00    +0.164 C 
ATOM      9  C   UNL     1      -0.552   2.490  23.421  0.00  0.00    +0.044 C 
ATOM     10  C   UNL     1       0.583   1.604  23.930  0.00  0.00    +0.145 C 
ENDROOT
BRANCH   7  15
ATOM      5  N   UNL     1      -4.979   3.349  25.419  0.00  0.00    -0.263 NA
ATOM     15  C   UNL     1      -2.751   2.694  24.746  0.00  0.00    -0.024 A 
ATOM     17  C   UNL     1      -2.206   3.635  25.612  0.00  0.00    +0.007 A 
ATOM     18  C   UNL     1      -4.132   2.591  24.687  0.00  0.00    +0.114 A 
ATOM     19  C   UNL     1      -3.044   4.433  26.382  0.00  0.00    +0.020 A 
ATOM     20  C   UNL     1      -4.412   4.253  26.250  0.00  0.00    +0.111 A 
ENDBRANCH   7  15
BRANCH   6   4
ATOM      3  O   UNL     1      -2.866  -0.985  26.600  0.00  0.00    -0.276 OA
ATOM      4  N   UNL     1      -2.357  -0.566  24.381  0.00  0.00    -0.309 N 
ATOM     16  C   UNL     1      -3.014  -1.245  25.401  0.00  0.00    +0.216 C 
ATOM     21  H   UNL     1      -2.568  -0.819  23.419  0.00  0.00    +0.149 HD
BRANCH  16  11
ATOM     11  C   UNL     1      -3.936  -2.358  24.900  0.00  0.00    +0.075 C 
ATOM     12  C   UNL     1      -4.668  -2.141  23.549  0.00  0.00    +0.013 C 
ATOM     13  C   UNL     1      -3.272  -3.594  24.236  0.00  0.00    +0.013 C 
ATOM     14  C   UNL     1      -4.476  -3.646  23.277  0.00  0.00    +0.001 C 
ENDBRANCH  16  11
ENDBRANCH   6   4
BRANCH   8   1
ATOM      1  O   UNL     1       0.711  -0.639  24.845  0.00  0.00    -0.387 OA
ATOM     22  H   UNL     1       1.467  -0.129  25.180  0.00  0.00    +0.210 HD
ENDBRANCH   8   1
BRANCH  10   2
ATOM      2  O   UNL     1       0.984   2.068  25.216  0.00  0.00    -0.389 OA
ATOM     23  H   UNL     1       1.858   2.482  25.117  0.00  0.00    +0.210 HD
ENDBRANCH  10   2
TORSDOF 5
ENDMDL
MODEL 8
REMARK VINA RESULT:      -3.8     15.671     17.832
REMARK  Name = 75536074
REMARK  5 active torsions:
REMARK  status: ('A' for Active; 'I' for Inactive)
REMARK    1  A    between atoms: O_1  and  C_8
REMARK    2  A    between atoms: O_2  and  C_10
REMARK    3  A    between atoms: N_4  and  C_6
REMARK    4  A    between atoms: C_7  and  C_15
REMARK    5  A    between atoms: C_11  and  C_16
REMARK                            x       y       z     vdW  Elec       q    Type
REMARK                         _______ _______ _______ _____ _____    ______ ____
ROOT
ATOM      6  C   UNL     1      -5.190  -9.976  10.981  0.00  0.00    +0.111 C 
ATOM      7  C   UNL     1      -6.233 -10.779  10.172  0.00  0.00    +0.046 C 
ATOM      8  C   UNL     1      -3.924 -10.080  10.131  0.00  0.00    +0.164 C 
ATOM      9  C   UNL     1      -5.724 -10.779   8.707  0.00  0.00    +0.044 C 
ATOM     10  C   UNL     1      -4.450  -9.936   8.708  0.00  0.00    +0.145 C 
ENDROOT
BRANCH   7  15
ATOM      5  N   UNL     1      -9.377  -8.723   9.639  0.00  0.00    -0.263 NA
ATOM     15  C   UNL     1      -7.644 -10.255  10.342  0.00  0.00    -0.024 A 
ATOM     17  C   UNL     1      -8.492 -10.781  11.310  0.00  0.00    +0.007 A 
ATOM     18  C   UNL     1      -8.130  -9.236   9.539  0.00  0.00    +0.114 A 
ATOM     19  C   UNL     1      -9.782 -10.280  11.445  0.00  0.00    +0.020 A 
ATOM     20  C   UNL     1     -10.172  -9.260  10.592  0.00  0.00    +0.111 A 
ENDBRANCH   7  15
BRANCH   6   4
ATOM      3  O   UNL     1      -6.451  -9.095  13.406  0.00  0.00    -0.276 OA
ATOM      4  N   UNL     1      -4.997 -10.518  12.302  0.00  0.00    -0.309 N 
ATOM     16  C   UNL     1      -5.648 -10.033  13.431  0.00  0.00    +0.216 C 
ATOM     21  H   UNL     1      -4.382 -11.321  12.407  0.00  0.00    +0.149 HD
BRANCH  16  11
ATOM     11  C   UNL     1      -5.268 -10.768  14.719  0.00  0.00    +0.075 C 
ATOM     12  C   UNL     1      -3.774 -10.775  15.137  0.00  0.00    +0.013 C 
ATOM     13  C   UNL     1      -5.546 -10.048  16.064  0.00  0.00    +0.013 C 
ATOM     14  C   UNL     1      -4.250 -10.683  16.600  0.00  0.00    +0.001 C 
ENDBRANCH  16  11
ENDBRANCH   6   4
BRANCH   8   1
ATOM      1  O   UNL     1      -2.988  -9.064  10.436  0.00  0.00    -0.387 OA
ATOM     22  H   UNL     1      -2.530  -8.831   9.611  0.00  0.00    +0.210 HD
ENDBRANCH   8   1
BRANCH  10   2
ATOM      2  O   UNL     1      -4.798  -8.583   8.428  0.00  0.00    -0.389 OA
ATOM     23  H   UNL     1      -5.616  -8.385   8.915  0.00  0.00    +0.210 HD
ENDBRANCH  10   2
TORSDOF 5
ENDMDL
MODEL 9
REMARK VINA RESULT:      -3.8      2.736      5.222
REMARK  Name = 75536074
REMARK  5 active torsions:
REMARK  status: ('A' for Active; 'I' for Inactive)
REMARK    1  A    between atoms: O_1  and  C_8
REMARK    2  A    between atoms: O_2  and  C_10
REMARK    3  A    between atoms: N_4  and  C_6
REMARK    4  A    between atoms: C_7  and  C_15
REMARK    5  A    between atoms: C_11  and  C_16
REMARK                            x       y       z     vdW  Elec       q    Type
REMARK                         _______ _______ _______ _____ _____    ______ ____
ROOT
ATOM      6  C   UNL     1      -4.462   1.998  24.645  0.00  0.00    +0.111 C 
ATOM      7  C   UNL     1      -3.505   2.506  25.747  0.00  0.00    +0.046 C 
ATOM      8  C   UNL     1      -5.819   1.952  25.347  0.00  0.00    +0.164 C 
ATOM      9  C   UNL     1      -4.397   3.262  26.766  0.00  0.00    +0.044 C 
ATOM     10  C   UNL     1      -5.813   3.218  26.195  0.00  0.00    +0.145 C 
ENDROOT
BRANCH   7  15
ATOM      5  N   UNL     1      -0.306   3.404  23.916  0.00  0.00    -0.263 NA
ATOM     15  C   UNL     1      -2.353   3.323  25.199  0.00  0.00    -0.024 A 
ATOM     17  C   UNL     1      -2.258   4.686  25.451  0.00  0.00    +0.007 A 
ATOM     18  C   UNL     1      -1.360   2.734  24.433  0.00  0.00    +0.114 A 
ATOM     19  C   UNL     1      -1.188   5.411  24.937  0.00  0.00    +0.020 A 
ATOM     20  C   UNL     1      -0.247   4.729  24.182  0.00  0.00    +0.111 A 
ENDBRANCH   7  15
BRANCH   6   4
ATOM      3  O   UNL     1      -3.791  -0.320  26.202  0.00  0.00    -0.276 OA
ATOM      4  N   UNL     1      -4.072   0.704  24.145  0.00  0.00    -0.309 N 
ATOM     16  C   UNL     1      -3.761  -0.372  24.968  0.00  0.00    +0.216 C 
ATOM     21  H   UNL     1      -4.060   0.562  23.138  0.00  0.00    +0.149 HD
BRANCH  16  11
ATOM     11  C   UNL     1      -3.365  -1.635  24.199  0.00  0.00    +0.075 C 
ATOM     12  C   UNL     1      -3.037  -2.911  25.017  0.00  0.00    +0.013 C 
ATOM     13  C   UNL     1      -4.503  -2.460  23.542  0.00  0.00    +0.013 C 
ATOM     14  C   UNL     1      -3.699  -3.727  23.890  0.00  0.00    +0.001 C 
ENDBRANCH  16  11
ENDBRANCH   6   4
BRANCH   8   1
ATOM      1  O   UNL     1      -6.897   1.956  24.430  0.00  0.00    -0.387 OA
ATOM     22  H   UNL     1      -7.413   1.147  24.582  0.00  0.00    +0.210 HD
ENDBRANCH   8   1
BRANCH  10   2
ATOM      2  O   UNL     1      -6.016   4.374  25.388  0.00  0.00    -0.389 OA
ATOM     23  H   UNL     1      -5.438   4.293  24.611  0.00  0.00    +0.210 HD
ENDBRANCH  10   2
TORSDOF 5
ENDMDL
MODEL 10
REMARK VINA RESULT:      -3.5      1.903      4.821
REMARK  Name = 75536074
REMARK  5 active torsions:
REMARK  status: ('A' for Active; 'I' for Inactive)
REMARK    1  A    between atoms: O_1  and  C_8
REMARK    2  A    between atoms: O_2  and  C_10
REMARK    3  A    between atoms: N_4  and  C_6
REMARK    4  A    between atoms: C_7  and  C_15
REMARK    5  A    between atoms: C_11  and  C_16
REMARK                            x       y       z     vdW  Elec       q    Type
REMARK                         _______ _______ _______ _____ _____    ______ ____
ROOT
ATOM      6  C   UNL     1      -1.097   0.915  24.099  0.00  0.00    +0.111 C 
ATOM      7  C   UNL     1      -1.225  -0.370  24.947  0.00  0.00    +0.046 C 
ATOM      8  C   UNL     1       0.409   1.174  24.071  0.00  0.00    +0.164 C 
ATOM      9  C   UNL     1       0.151  -1.080  24.849  0.00  0.00    +0.044 C 
ATOM     10  C   UNL     1       0.997  -0.223  23.911  0.00  0.00    +0.145 C 
ENDROOT
BRANCH   7  15
ATOM      5  N   UNL     1      -3.307  -3.438  24.143  0.00  0.00    -0.263 NA
ATOM     15  C   UNL     1      -2.402  -1.232  24.541  0.00  0.00    -0.024 A 
ATOM     17  C   UNL     1      -3.623  -0.662  24.198  0.00  0.00    +0.007 A 
ATOM     18  C   UNL     1      -2.297  -2.613  24.497  0.00  0.00    +0.114 A 
ATOM     19  C   UNL     1      -4.686  -1.477  23.828  0.00  0.00    +0.020 A 
ATOM     20  C   UNL     1      -4.479  -2.847  23.816  0.00  0.00    +0.111 A 
ENDBRANCH   7  15
BRANCH   6   4
ATOM      3  O   UNL     1      -3.107   2.516  22.817  0.00  0.00    -0.276 OA
ATOM      4  N   UNL     1      -1.821   2.018  24.677  0.00  0.00    -0.309 N 
ATOM     16  C   UNL     1      -2.784   2.747  23.987  0.00  0.00    +0.216 C 
ATOM     21  H   UNL     1      -1.646   2.250  25.651  0.00  0.00    +0.149 HD
BRANCH  16  11
ATOM     11  C   UNL     1      -3.404   3.876  24.814  0.00  0.00    +0.075 C 
ATOM     12  C   UNL     1      -4.594   3.524  25.745  0.00  0.00    +0.013 C 
ATOM     13  C   UNL     1      -2.652   4.321  26.096  0.00  0.00    +0.013 C 
ATOM     14  C   UNL     1      -4.029   4.548  26.748  0.00  0.00    +0.001 C 
ENDBRANCH  16  11
ENDBRANCH   6   4
BRANCH   8   1
ATOM      1  O   UNL     1       0.790   2.015  22.998  0.00  0.00    -0.387 OA
ATOM     22  H   UNL     1       0.133   1.901  22.291  0.00  0.00    +0.210 HD
ENDBRANCH   8   1
BRANCH  10   2
ATOM      2  O   UNL     1       0.827  -0.699  22.579  0.00  0.00    -0.389 OA
ATOM     23  H   UNL     1       1.372  -1.498  22.483  0.00  0.00    +0.210 HD
ENDBRANCH  10   2
TORSDOF 5
ENDMDL
