MODEL 1
REMARK VINA RESULT:      -5.5      0.000      0.000
REMARK  Name = 75536274
REMARK  11 active torsions:
REMARK  status: ('A' for Active; 'I' for Inactive)
REMARK    1  A    between atoms: O_2  and  C_11
REMARK    2  A    between atoms: O_5  and  C_20
REMARK    3  A    between atoms: O_5  and  C_22
REMARK    4  A    between atoms: O_6  and  C_21
REMARK    5  A    between atoms: O_6  and  C_23
REMARK    6  A    between atoms: N_7  and  C_15
REMARK    7  A    between atoms: C_9  and  C_15
REMARK    8  A    between atoms: C_10  and  C_14
REMARK    9  A    between atoms: C_14  and  C_16
REMARK   10  A    between atoms: C_18  and  C_20
REMARK   11  A    between atoms: C_19  and  C_21
REMARK                            x       y       z     vdW  Elec       q    Type
REMARK                         _______ _______ _______ _____ _____    ______ ____
ROOT
ATOM      1  O   UNL     1      -1.305   3.142  26.272  0.00  0.00    -0.369 OA
ATOM      9  C   UNL     1      -1.988   4.387  26.073  0.00  0.00    +0.164 C 
ATOM     10  C   UNL     1      -1.628   2.115  25.332  0.00  0.00    +0.125 C 
ATOM     11  C   UNL     1      -1.766   4.926  24.654  0.00  0.00    +0.145 C 
ATOM     12  C   UNL     1      -1.312   2.568  23.908  0.00  0.00    +0.034 C 
ATOM     13  C   UNL     1      -2.036   3.872  23.584  0.00  0.00    +0.036 C 
ENDROOT
BRANCH  11   2
ATOM      2  O   UNL     1      -0.404   5.339  24.527  0.00  0.00    -0.389 OA
ATOM     29  H   UNL     1      -0.196   5.378  23.577  0.00  0.00    +0.210 HD
ENDBRANCH  11   2
BRANCH  10  14
ATOM     14  C   UNL     1      -0.814   0.881  25.702  0.00  0.00    +0.090 C 
BRANCH  14  16
ATOM      3  O   UNL     1       0.716  -0.820  22.918  0.00  0.00    -0.357 OA
ATOM      8  N   UNL     1      -0.272  -0.687  23.886  0.00  0.00    -0.083 NA
ATOM     16  C   UNL     1       0.051   0.420  24.560  0.00  0.00    +0.086 A 
ATOM     17  C   UNL     1       1.221   1.022  24.067  0.00  0.00    +0.073 A 
ATOM     19  C   UNL     1       1.599   0.204  23.035  0.00  0.00    +0.163 A 
BRANCH  19  21
ATOM     21  C   UNL     1       2.715   0.219  22.083  0.00  0.00    +0.236 C 
BRANCH  21   6
ATOM      6  O   UNL     1       3.773   1.049  22.572  0.00  0.00    -0.375 OA
ATOM     23  C   UNL     1       4.788   0.274  23.188  0.00  0.00    +0.194 C 
ENDBRANCH  21   6
ENDBRANCH  19  21
ENDBRANCH  14  16
ENDBRANCH  10  14
BRANCH   9  15
ATOM     15  C   UNL     1      -3.465   4.269  26.444  0.00  0.00    +0.138 C 
BRANCH  15   7
ATOM      4  O   UNL     1      -6.244   3.808  25.789  0.00  0.00    -0.272 OA
ATOM      7  N   UNL     1      -4.038   3.076  25.897  0.00  0.00    -0.310 N 
ATOM     18  C   UNL     1      -5.394   2.940  25.611  0.00  0.00    +0.251 C 
ATOM     30  H   UNL     1      -3.422   2.281  25.748  0.00  0.00    +0.149 HD
BRANCH  18  20
ATOM     20  C   UNL     1      -5.723   1.576  25.042  0.00  0.00    +0.324 C 
BRANCH  20   5
ATOM      5  O   UNL     1      -4.638   1.075  24.289  0.00  0.00    -0.483 OA
BRANCH   5  22
ATOM     22  C   UNL     1      -4.232  -0.212  24.553  0.00  0.00    +0.121 A 
ATOM     24  C   UNL     1      -3.755  -0.547  25.819  0.00  0.00    +0.045 A 
ATOM     25  C   UNL     1      -4.297  -1.181  23.552  0.00  0.00    +0.045 A 
ATOM     26  C   UNL     1      -3.342  -1.852  26.087  0.00  0.00    +0.004 A 
ATOM     27  C   UNL     1      -3.884  -2.487  23.819  0.00  0.00    +0.004 A 
ATOM     28  C   UNL     1      -3.407  -2.823  25.086  0.00  0.00    +0.000 A 
ENDBRANCH   5  22
ENDBRANCH  20   5
ENDBRANCH  18  20
ENDBRANCH  15   7
ENDBRANCH   9  15
TORSDOF 10
ENDMDL
MODEL 2
REMARK VINA RESULT:      -5.2      1.836      5.992
REMARK  Name = 75536274
REMARK  11 active torsions:
REMARK  status: ('A' for Active; 'I' for Inactive)
REMARK    1  A    between atoms: O_2  and  C_11
REMARK    2  A    between atoms: O_5  and  C_20
REMARK    3  A    between atoms: O_5  and  C_22
REMARK    4  A    between atoms: O_6  and  C_21
REMARK    5  A    between atoms: O_6  and  C_23
REMARK    6  A    between atoms: N_7  and  C_15
REMARK    7  A    between atoms: C_9  and  C_15
REMARK    8  A    between atoms: C_10  and  C_14
REMARK    9  A    between atoms: C_14  and  C_16
REMARK   10  A    between atoms: C_18  and  C_20
REMARK   11  A    between atoms: C_19  and  C_21
REMARK                            x       y       z     vdW  Elec       q    Type
REMARK                         _______ _______ _______ _____ _____    ______ ____
ROOT
ATOM      1  O   UNL     1      -2.093   3.056  23.908  0.00  0.00    -0.369 OA
ATOM      9  C   UNL     1      -0.934   3.765  24.364  0.00  0.00    +0.164 C 
ATOM     10  C   UNL     1      -2.986   2.625  24.938  0.00  0.00    +0.125 C 
ATOM     11  C   UNL     1      -1.321   4.975  25.224  0.00  0.00    +0.145 C 
ATOM     12  C   UNL     1      -3.490   3.817  25.749  0.00  0.00    +0.034 C 
ATOM     13  C   UNL     1      -2.320   4.614  26.319  0.00  0.00    +0.036 C 
ENDROOT
BRANCH  11   2
ATOM      2  O   UNL     1      -1.930   5.960  24.385  0.00  0.00    -0.389 OA
ATOM     29  H   UNL     1      -1.370   6.061  23.596  0.00  0.00    +0.210 HD
ENDBRANCH  11   2
BRANCH  10  14
ATOM     14  C   UNL     1      -4.144   1.897  24.266  0.00  0.00    +0.090 C 
BRANCH  14  16
ATOM      3  O   UNL     1      -4.011  -1.452  25.593  0.00  0.00    -0.357 OA
ATOM      8  N   UNL     1      -4.078  -0.071  25.741  0.00  0.00    -0.083 NA
ATOM     16  C   UNL     1      -4.077   0.411  24.495  0.00  0.00    +0.086 A 
ATOM     17  C   UNL     1      -4.012  -0.609  23.529  0.00  0.00    +0.073 A 
ATOM     19  C   UNL     1      -3.973  -1.759  24.271  0.00  0.00    +0.163 A 
BRANCH  19  21
ATOM     21  C   UNL     1      -3.901  -3.185  23.932  0.00  0.00    +0.236 C 
BRANCH  21   6
ATOM      6  O   UNL     1      -2.544  -3.572  23.699  0.00  0.00    -0.375 OA
ATOM     23  C   UNL     1      -1.655  -2.858  24.543  0.00  0.00    +0.194 C 
ENDBRANCH  21   6
ENDBRANCH  19  21
ENDBRANCH  14  16
ENDBRANCH  10  14
BRANCH   9  15
ATOM     15  C   UNL     1       0.046   2.825  25.063  0.00  0.00    +0.138 C 
BRANCH  15   7
ATOM      4  O   UNL     1      -0.672   0.028  25.222  0.00  0.00    -0.272 OA
ATOM      7  N   UNL     1       0.464   1.774  24.186  0.00  0.00    -0.310 N 
ATOM     18  C   UNL     1       0.068   0.447  24.336  0.00  0.00    +0.251 C 
ATOM     30  H   UNL     1       1.112   2.011  23.439  0.00  0.00    +0.149 HD
BRANCH  18  20
ATOM     20  C   UNL     1       0.659  -0.449  23.269  0.00  0.00    +0.324 C 
BRANCH  20   5
ATOM      5  O   UNL     1       1.693   0.216  22.575  0.00  0.00    -0.483 OA
BRANCH   5  22
ATOM     22  C   UNL     1       2.981  -0.008  23.001  0.00  0.00    +0.121 A 
ATOM     24  C   UNL     1       3.348  -1.265  23.481  0.00  0.00    +0.045 A 
ATOM     25  C   UNL     1       3.920   1.022  22.954  0.00  0.00    +0.045 A 
ATOM     26  C   UNL     1       4.654  -1.493  23.914  0.00  0.00    +0.004 A 
ATOM     27  C   UNL     1       5.227   0.794  23.387  0.00  0.00    +0.004 A 
ATOM     28  C   UNL     1       5.593  -0.463  23.867  0.00  0.00    +0.000 A 
ENDBRANCH   5  22
ENDBRANCH  20   5
ENDBRANCH  18  20
ENDBRANCH  15   7
ENDBRANCH   9  15
TORSDOF 10
ENDMDL
MODEL 3
REMARK VINA RESULT:      -5.0      1.624      4.450
REMARK  Name = 75536274
REMARK  11 active torsions:
REMARK  status: ('A' for Active; 'I' for Inactive)
REMARK    1  A    between atoms: O_2  and  C_11
REMARK    2  A    between atoms: O_5  and  C_20
REMARK    3  A    between atoms: O_5  and  C_22
REMARK    4  A    between atoms: O_6  and  C_21
REMARK    5  A    between atoms: O_6  and  C_23
REMARK    6  A    between atoms: N_7  and  C_15
REMARK    7  A    between atoms: C_9  and  C_15
REMARK    8  A    between atoms: C_10  and  C_14
REMARK    9  A    between atoms: C_14  and  C_16
REMARK   10  A    between atoms: C_18  and  C_20
REMARK   11  A    between atoms: C_19  and  C_21
REMARK                            x       y       z     vdW  Elec       q    Type
REMARK                         _______ _______ _______ _____ _____    ______ ____
ROOT
ATOM      1  O   UNL     1      -3.026  -0.100  23.542  0.00  0.00    -0.369 OA
ATOM      9  C   UNL     1      -3.878  -0.948  24.324  0.00  0.00    +0.164 C 
ATOM     10  C   UNL     1      -1.937   0.491  24.255  0.00  0.00    +0.125 C 
ATOM     11  C   UNL     1      -3.077  -2.058  25.017  0.00  0.00    +0.145 C 
ATOM     12  C   UNL     1      -1.044  -0.587  24.866  0.00  0.00    +0.034 C 
ATOM     13  C   UNL     1      -1.858  -1.518  25.760  0.00  0.00    +0.036 C 
ENDROOT
BRANCH  11   2
ATOM      2  O   UNL     1      -2.614  -2.978  24.027  0.00  0.00    -0.389 OA
ATOM     29  H   UNL     1      -3.203  -2.903  23.256  0.00  0.00    +0.210 HD
ENDBRANCH  11   2
BRANCH  10  14
ATOM     14  C   UNL     1      -1.155   1.349  23.267  0.00  0.00    +0.090 C 
BRANCH  14  16
ATOM      3  O   UNL     1       1.813  -0.522  22.443  0.00  0.00    -0.357 OA
ATOM      8  N   UNL     1       0.434  -0.355  22.475  0.00  0.00    -0.083 NA
ATOM     16  C   UNL     1       0.243   0.830  23.063  0.00  0.00    +0.086 A 
ATOM     17  C   UNL     1       1.454   1.449  23.420  0.00  0.00    +0.073 A 
ATOM     19  C   UNL     1       2.410   0.558  23.008  0.00  0.00    +0.163 A 
BRANCH  19  21
ATOM     21  C   UNL     1       3.876   0.547  23.058  0.00  0.00    +0.236 C 
BRANCH  21   6
ATOM      6  O   UNL     1       4.347  -0.721  23.523  0.00  0.00    -0.375 OA
ATOM     23  C   UNL     1       5.575  -0.588  24.220  0.00  0.00    +0.194 C 
ENDBRANCH  21   6
ENDBRANCH  19  21
ENDBRANCH  14  16
ENDBRANCH  10  14
BRANCH   9  15
ATOM     15  C   UNL     1      -4.727  -0.129  25.294  0.00  0.00    +0.138 C 
BRANCH  15   7
ATOM      4  O   UNL     1      -6.325   2.024  26.376  0.00  0.00    -0.272 OA
ATOM      7  N   UNL     1      -4.550   1.274  25.073  0.00  0.00    -0.310 N 
ATOM     18  C   UNL     1      -5.371   2.248  25.637  0.00  0.00    +0.251 C 
ATOM     30  H   UNL     1      -3.807   1.564  24.442  0.00  0.00    +0.149 HD
BRANCH  18  20
ATOM     20  C   UNL     1      -4.955   3.647  25.236  0.00  0.00    +0.324 C 
BRANCH  20   5
ATOM      5  O   UNL     1      -4.058   4.191  26.181  0.00  0.00    -0.483 OA
BRANCH   5  22
ATOM     22  C   UNL     1      -2.718   4.141  25.876  0.00  0.00    +0.121 A 
ATOM     24  C   UNL     1      -2.161   5.089  25.019  0.00  0.00    +0.045 A 
ATOM     25  C   UNL     1      -1.917   3.140  26.425  0.00  0.00    +0.045 A 
ATOM     26  C   UNL     1      -0.802   5.037  24.710  0.00  0.00    +0.004 A 
ATOM     27  C   UNL     1      -0.557   3.088  26.116  0.00  0.00    +0.004 A 
ATOM     28  C   UNL     1       0.000   4.036  25.258  0.00  0.00    +0.000 A 
ENDBRANCH   5  22
ENDBRANCH  20   5
ENDBRANCH  18  20
ENDBRANCH  15   7
ENDBRANCH   9  15
TORSDOF 10
ENDMDL
MODEL 4
REMARK VINA RESULT:      -4.9      1.656      6.976
REMARK  Name = 75536274
REMARK  11 active torsions:
REMARK  status: ('A' for Active; 'I' for Inactive)
REMARK    1  A    between atoms: O_2  and  C_11
REMARK    2  A    between atoms: O_5  and  C_20
REMARK    3  A    between atoms: O_5  and  C_22
REMARK    4  A    between atoms: O_6  and  C_21
REMARK    5  A    between atoms: O_6  and  C_23
REMARK    6  A    between atoms: N_7  and  C_15
REMARK    7  A    between atoms: C_9  and  C_15
REMARK    8  A    between atoms: C_10  and  C_14
REMARK    9  A    between atoms: C_14  and  C_16
REMARK   10  A    between atoms: C_18  and  C_20
REMARK   11  A    between atoms: C_19  and  C_21
REMARK                            x       y       z     vdW  Elec       q    Type
REMARK                         _______ _______ _______ _____ _____    ______ ____
ROOT
ATOM      1  O   UNL     1      -3.550  -0.594  25.917  0.00  0.00    -0.369 OA
ATOM      9  C   UNL     1      -2.415  -1.463  26.031  0.00  0.00    +0.164 C 
ATOM     10  C   UNL     1      -3.770  -0.049  24.613  0.00  0.00    +0.125 C 
ATOM     11  C   UNL     1      -2.488  -2.613  25.018  0.00  0.00    +0.145 C 
ATOM     12  C   UNL     1      -3.965  -1.165  23.588  0.00  0.00    +0.034 C 
ATOM     13  C   UNL     1      -2.777  -2.122  23.602  0.00  0.00    +0.036 C 
ENDROOT
BRANCH  11   2
ATOM      2  O   UNL     1      -3.545  -3.496  25.399  0.00  0.00    -0.389 OA
ATOM     29  H   UNL     1      -3.171  -4.391  25.465  0.00  0.00    +0.210 HD
ENDBRANCH  11   2
BRANCH  10  14
ATOM     14  C   UNL     1      -5.005   0.839  24.690  0.00  0.00    +0.090 C 
BRANCH  14  16
ATOM      3  O   UNL     1      -4.962   4.295  25.715  0.00  0.00    -0.357 OA
ATOM      8  N   UNL     1      -5.620   3.107  25.420  0.00  0.00    -0.083 NA
ATOM     16  C   UNL     1      -4.654   2.251  25.077  0.00  0.00    +0.086 A 
ATOM     17  C   UNL     1      -3.377   2.837  25.137  0.00  0.00    +0.073 A 
ATOM     19  C   UNL     1      -3.626   4.121  25.543  0.00  0.00    +0.163 A 
BRANCH  19  21
ATOM     21  C   UNL     1      -2.774   5.284  25.813  0.00  0.00    +0.236 C 
BRANCH  21   6
ATOM      6  O   UNL     1      -1.778   5.417  24.795  0.00  0.00    -0.375 OA
ATOM     23  C   UNL     1      -0.691   4.535  25.024  0.00  0.00    +0.194 C 
ENDBRANCH  21   6
ENDBRANCH  19  21
ENDBRANCH  14  16
ENDBRANCH  10  14
BRANCH   9  15
ATOM     15  C   UNL     1      -1.109  -0.674  25.947  0.00  0.00    +0.138 C 
BRANCH  15   7
ATOM      4  O   UNL     1       0.018   1.221  24.078  0.00  0.00    -0.272 OA
ATOM      7  N   UNL     1      -0.408  -0.970  24.735  0.00  0.00    -0.310 N 
ATOM     18  C   UNL     1       0.105   0.011  23.889  0.00  0.00    +0.251 C 
ATOM     30  H   UNL     1      -0.315  -1.946  24.467  0.00  0.00    +0.149 HD
BRANCH  18  20
ATOM     20  C   UNL     1       0.798  -0.583  22.682  0.00  0.00    +0.324 C 
BRANCH  20   5
ATOM      5  O   UNL     1       1.872   0.237  22.269  0.00  0.00    -0.483 OA
BRANCH   5  22
ATOM     22  C   UNL     1       3.099  -0.001  22.840  0.00  0.00    +0.121 A 
ATOM     24  C   UNL     1       4.057   1.011  22.883  0.00  0.00    +0.045 A 
ATOM     25  C   UNL     1       3.387  -1.257  23.374  0.00  0.00    +0.045 A 
ATOM     26  C   UNL     1       5.303   0.770  23.461  0.00  0.00    +0.004 A 
ATOM     27  C   UNL     1       4.633  -1.499  23.953  0.00  0.00    +0.004 A 
ATOM     28  C   UNL     1       5.591  -0.487  23.997  0.00  0.00    +0.000 A 
ENDBRANCH   5  22
ENDBRANCH  20   5
ENDBRANCH  18  20
ENDBRANCH  15   7
ENDBRANCH   9  15
TORSDOF 10
ENDMDL
MODEL 5
REMARK VINA RESULT:      -3.5      2.214      5.254
REMARK  Name = 75536274
REMARK  11 active torsions:
REMARK  status: ('A' for Active; 'I' for Inactive)
REMARK    1  A    between atoms: O_2  and  C_11
REMARK    2  A    between atoms: O_5  and  C_20
REMARK    3  A    between atoms: O_5  and  C_22
REMARK    4  A    between atoms: O_6  and  C_21
REMARK    5  A    between atoms: O_6  and  C_23
REMARK    6  A    between atoms: N_7  and  C_15
REMARK    7  A    between atoms: C_9  and  C_15
REMARK    8  A    between atoms: C_10  and  C_14
REMARK    9  A    between atoms: C_14  and  C_16
REMARK   10  A    between atoms: C_18  and  C_20
REMARK   11  A    between atoms: C_19  and  C_21
REMARK                            x       y       z     vdW  Elec       q    Type
REMARK                         _______ _______ _______ _____ _____    ______ ____
ROOT
ATOM      1  O   UNL     1      -3.102  -0.506  23.613  0.00  0.00    -0.369 OA
ATOM      9  C   UNL     1      -4.402  -0.958  24.012  0.00  0.00    +0.164 C 
ATOM     10  C   UNL     1      -2.021  -0.970  24.426  0.00  0.00    +0.125 C 
ATOM     11  C   UNL     1      -4.462  -2.489  24.092  0.00  0.00    +0.145 C 
ATOM     12  C   UNL     1      -1.972  -2.496  24.439  0.00  0.00    +0.034 C 
ATOM     13  C   UNL     1      -3.307  -3.074  24.900  0.00  0.00    +0.036 C 
ENDROOT
BRANCH  11   2
ATOM      2  O   UNL     1      -4.383  -3.022  22.768  0.00  0.00    -0.389 OA
ATOM     29  H   UNL     1      -5.289  -3.237  22.483  0.00  0.00    +0.210 HD
ENDBRANCH  11   2
BRANCH  10  14
ATOM     14  C   UNL     1      -0.734  -0.390  23.853  0.00  0.00    +0.090 C 
BRANCH  14  16
ATOM      3  O   UNL     1       1.102   2.338  25.329  0.00  0.00    -0.357 OA
ATOM      8  N   UNL     1       0.828   1.462  24.286  0.00  0.00    -0.083 NA
ATOM     16  C   UNL     1      -0.168   0.691  24.734  0.00  0.00    +0.086 A 
ATOM     17  C   UNL     1      -0.559   1.032  26.040  0.00  0.00    +0.073 A 
ATOM     19  C   UNL     1       0.269   2.073  26.368  0.00  0.00    +0.163 A 
BRANCH  19  21
ATOM     21  C   UNL     1       0.424   2.912  27.562  0.00  0.00    +0.236 C 
BRANCH  21   6
ATOM      6  O   UNL     1       1.711   2.705  28.151  0.00  0.00    -0.375 OA
ATOM     23  C   UNL     1       1.604   2.461  29.544  0.00  0.00    +0.194 C 
ENDBRANCH  21   6
ENDBRANCH  19  21
ENDBRANCH  14  16
ENDBRANCH  10  14
BRANCH   9  15
ATOM     15  C   UNL     1      -4.849  -0.275  25.303  0.00  0.00    +0.138 C 
BRANCH  15   7
ATOM      4  O   UNL     1      -6.626   1.686  26.468  0.00  0.00    -0.272 OA
ATOM      7  N   UNL     1      -4.759   1.149  25.188  0.00  0.00    -0.310 N 
ATOM     18  C   UNL     1      -5.663   2.024  25.786  0.00  0.00    +0.251 C 
ATOM     30  H   UNL     1      -4.015   1.531  24.610  0.00  0.00    +0.149 HD
BRANCH  18  20
ATOM     20  C   UNL     1      -5.328   3.472  25.501  0.00  0.00    +0.324 C 
BRANCH  20   5
ATOM      5  O   UNL     1      -4.131   3.845  26.151  0.00  0.00    -0.483 OA
BRANCH   5  22
ATOM     22  C   UNL     1      -3.021   4.035  25.362  0.00  0.00    +0.121 A 
ATOM     24  C   UNL     1      -2.082   5.009  25.702  0.00  0.00    +0.045 A 
ATOM     25  C   UNL     1      -2.835   3.255  24.221  0.00  0.00    +0.045 A 
ATOM     26  C   UNL     1      -0.956   5.202  24.902  0.00  0.00    +0.004 A 
ATOM     27  C   UNL     1      -1.709   3.448  23.421  0.00  0.00    +0.004 A 
ATOM     28  C   UNL     1      -0.770   4.421  23.761  0.00  0.00    +0.000 A 
ENDBRANCH   5  22
ENDBRANCH  20   5
ENDBRANCH  18  20
ENDBRANCH  15   7
ENDBRANCH   9  15
TORSDOF 10
ENDMDL
MODEL 6
REMARK VINA RESULT:      -3.1      1.599      2.275
REMARK  Name = 75536274
REMARK  11 active torsions:
REMARK  status: ('A' for Active; 'I' for Inactive)
REMARK    1  A    between atoms: O_2  and  C_11
REMARK    2  A    between atoms: O_5  and  C_20
REMARK    3  A    between atoms: O_5  and  C_22
REMARK    4  A    between atoms: O_6  and  C_21
REMARK    5  A    between atoms: O_6  and  C_23
REMARK    6  A    between atoms: N_7  and  C_15
REMARK    7  A    between atoms: C_9  and  C_15
REMARK    8  A    between atoms: C_10  and  C_14
REMARK    9  A    between atoms: C_14  and  C_16
REMARK   10  A    between atoms: C_18  and  C_20
REMARK   11  A    between atoms: C_19  and  C_21
REMARK                            x       y       z     vdW  Elec       q    Type
REMARK                         _______ _______ _______ _____ _____    ______ ____
ROOT
ATOM      1  O   UNL     1      -2.376   2.696  25.821  0.00  0.00    -0.369 OA
ATOM      9  C   UNL     1      -3.565   3.434  25.509  0.00  0.00    +0.164 C 
ATOM     10  C   UNL     1      -1.246   2.985  24.996  0.00  0.00    +0.125 C 
ATOM     11  C   UNL     1      -3.306   4.946  25.534  0.00  0.00    +0.145 C 
ATOM     12  C   UNL     1      -0.880   4.465  25.082  0.00  0.00    +0.034 C 
ATOM     13  C   UNL     1      -2.077   5.338  24.718  0.00  0.00    +0.036 C 
ENDROOT
BRANCH  11   2
ATOM      2  O   UNL     1      -3.081   5.353  26.886  0.00  0.00    -0.389 OA
ATOM     29  H   UNL     1      -2.436   4.736  27.275  0.00  0.00    +0.210 HD
ENDBRANCH  11   2
BRANCH  10  14
ATOM     14  C   UNL     1      -0.093   2.111  25.474  0.00  0.00    +0.090 C 
BRANCH  14  16
ATOM      3  O   UNL     1       0.695   0.040  22.631  0.00  0.00    -0.357 OA
ATOM      8  N   UNL     1      -0.192   0.563  23.564  0.00  0.00    -0.083 NA
ATOM     16  C   UNL     1       0.549   1.362  24.337  0.00  0.00    +0.086 A 
ATOM     17  C   UNL     1       1.898   1.384  23.942  0.00  0.00    +0.073 A 
ATOM     19  C   UNL     1       1.936   0.537  22.866  0.00  0.00    +0.163 A 
BRANCH  19  21
ATOM     21  C   UNL     1       3.004   0.086  21.966  0.00  0.00    +0.236 C 
BRANCH  21   6
ATOM      6  O   UNL     1       4.214   0.800  22.235  0.00  0.00    -0.375 OA
ATOM     23  C   UNL     1       5.001   0.127  23.205  0.00  0.00    +0.194 C 
ENDBRANCH  21   6
ENDBRANCH  19  21
ENDBRANCH  14  16
ENDBRANCH  10  14
BRANCH   9  15
ATOM     15  C   UNL     1      -4.181   2.955  24.196  0.00  0.00    +0.138 C 
BRANCH  15   7
ATOM      4  O   UNL     1      -3.096   0.633  22.856  0.00  0.00    -0.272 OA
ATOM      7  N   UNL     1      -4.636   1.602  24.306  0.00  0.00    -0.310 N 
ATOM     18  C   UNL     1      -4.052   0.539  23.621  0.00  0.00    +0.251 C 
ATOM     30  H   UNL     1      -5.450   1.423  24.888  0.00  0.00    +0.149 HD
BRANCH  18  20
ATOM     20  C   UNL     1      -4.733  -0.778  23.924  0.00  0.00    +0.324 C 
BRANCH  20   5
ATOM      5  O   UNL     1      -4.275  -1.307  25.151  0.00  0.00    -0.483 OA
BRANCH   5  22
ATOM     22  C   UNL     1      -2.929  -1.563  25.260  0.00  0.00    +0.121 A 
ATOM     24  C   UNL     1      -2.171  -0.913  26.233  0.00  0.00    +0.045 A 
ATOM     25  C   UNL     1      -2.321  -2.475  24.396  0.00  0.00    +0.045 A 
ATOM     26  C   UNL     1      -0.806  -1.173  26.344  0.00  0.00    +0.004 A 
ATOM     27  C   UNL     1      -0.955  -2.735  24.507  0.00  0.00    +0.004 A 
ATOM     28  C   UNL     1      -0.197  -2.085  25.480  0.00  0.00    +0.000 A 
ENDBRANCH   5  22
ENDBRANCH  20   5
ENDBRANCH  18  20
ENDBRANCH  15   7
ENDBRANCH   9  15
TORSDOF 10
ENDMDL
MODEL 7
REMARK VINA RESULT:      -2.7      1.761      7.043
REMARK  Name = 75536274
REMARK  11 active torsions:
REMARK  status: ('A' for Active; 'I' for Inactive)
REMARK    1  A    between atoms: O_2  and  C_11
REMARK    2  A    between atoms: O_5  and  C_20
REMARK    3  A    between atoms: O_5  and  C_22
REMARK    4  A    between atoms: O_6  and  C_21
REMARK    5  A    between atoms: O_6  and  C_23
REMARK    6  A    between atoms: N_7  and  C_15
REMARK    7  A    between atoms: C_9  and  C_15
REMARK    8  A    between atoms: C_10  and  C_14
REMARK    9  A    between atoms: C_14  and  C_16
REMARK   10  A    between atoms: C_18  and  C_20
REMARK   11  A    between atoms: C_19  and  C_21
REMARK                            x       y       z     vdW  Elec       q    Type
REMARK                         _______ _______ _______ _____ _____    ______ ____
ROOT
ATOM      1  O   UNL     1      -3.062  -0.246  25.001  0.00  0.00    -0.369 OA
ATOM      9  C   UNL     1      -1.939  -1.016  24.549  0.00  0.00    +0.164 C 
ATOM     10  C   UNL     1      -4.268  -0.436  24.258  0.00  0.00    +0.125 C 
ATOM     11  C   UNL     1      -2.268  -2.513  24.511  0.00  0.00    +0.145 C 
ATOM     12  C   UNL     1      -4.697  -1.902  24.291  0.00  0.00    +0.034 C 
ATOM     13  C   UNL     1      -3.576  -2.803  23.780  0.00  0.00    +0.036 C 
ENDROOT
BRANCH  11   2
ATOM      2  O   UNL     1      -2.402  -2.990  25.852  0.00  0.00    -0.389 OA
ATOM     29  H   UNL     1      -2.432  -2.214  26.438  0.00  0.00    +0.210 HD
ENDBRANCH  11   2
BRANCH  10  14
ATOM     14  C   UNL     1      -5.335   0.456  24.879  0.00  0.00    +0.090 C 
BRANCH  14  16
ATOM      3  O   UNL     1      -4.780   3.899  25.787  0.00  0.00    -0.357 OA
ATOM      8  N   UNL     1      -5.456   2.691  25.901  0.00  0.00    -0.083 NA
ATOM     16  C   UNL     1      -4.858   1.876  25.028  0.00  0.00    +0.086 A 
ATOM     17  C   UNL     1      -3.808   2.509  24.340  0.00  0.00    +0.073 A 
ATOM     19  C   UNL     1      -3.801   3.779  24.855  0.00  0.00    +0.163 A 
BRANCH  19  21
ATOM     21  C   UNL     1      -2.983   4.971  24.606  0.00  0.00    +0.236 C 
BRANCH  21   6
ATOM      6  O   UNL     1      -1.870   5.006  25.503  0.00  0.00    -0.375 OA
ATOM     23  C   UNL     1      -0.647   5.144  24.798  0.00  0.00    +0.194 C 
ENDBRANCH  21   6
ENDBRANCH  19  21
ENDBRANCH  14  16
ENDBRANCH  10  14
BRANCH   9  15
ATOM     15  C   UNL     1      -1.410  -0.485  23.218  0.00  0.00    +0.138 C 
BRANCH  15   7
ATOM      4  O   UNL     1      -0.652   2.181  24.044  0.00  0.00    -0.272 OA
ATOM      7  N   UNL     1      -0.082   0.030  23.362  0.00  0.00    -0.310 N 
ATOM     18  C   UNL     1       0.193   1.334  23.767  0.00  0.00    +0.251 C 
ATOM     30  H   UNL     1       0.692  -0.582  23.120  0.00  0.00    +0.149 HD
BRANCH  18  20
ATOM     20  C   UNL     1       1.680   1.608  23.834  0.00  0.00    +0.324 C 
BRANCH  20   5
ATOM      5  O   UNL     1       2.364   0.900  22.822  0.00  0.00    -0.483 OA
BRANCH   5  22
ATOM     22  C   UNL     1       3.525   0.257  23.180  0.00  0.00    +0.121 A 
ATOM     24  C   UNL     1       3.491  -1.084  23.559  0.00  0.00    +0.045 A 
ATOM     25  C   UNL     1       4.737   0.948  23.164  0.00  0.00    +0.045 A 
ATOM     26  C   UNL     1       4.669  -1.736  23.923  0.00  0.00    +0.004 A 
ATOM     27  C   UNL     1       5.916   0.295  23.528  0.00  0.00    +0.004 A 
ATOM     28  C   UNL     1       5.882  -1.046  23.907  0.00  0.00    +0.000 A 
ENDBRANCH   5  22
ENDBRANCH  20   5
ENDBRANCH  18  20
ENDBRANCH  15   7
ENDBRANCH   9  15
TORSDOF 10
ENDMDL
MODEL 8
REMARK VINA RESULT:      -2.7     14.223     16.410
REMARK  Name = 75536274
REMARK  11 active torsions:
REMARK  status: ('A' for Active; 'I' for Inactive)
REMARK    1  A    between atoms: O_2  and  C_11
REMARK    2  A    between atoms: O_5  and  C_20
REMARK    3  A    between atoms: O_5  and  C_22
REMARK    4  A    between atoms: O_6  and  C_21
REMARK    5  A    between atoms: O_6  and  C_23
REMARK    6  A    between atoms: N_7  and  C_15
REMARK    7  A    between atoms: C_9  and  C_15
REMARK    8  A    between atoms: C_10  and  C_14
REMARK    9  A    between atoms: C_14  and  C_16
REMARK   10  A    between atoms: C_18  and  C_20
REMARK   11  A    between atoms: C_19  and  C_21
REMARK                            x       y       z     vdW  Elec       q    Type
REMARK                         _______ _______ _______ _____ _____    ______ ____
ROOT
ATOM      1  O   UNL     1      -2.063 -10.780  14.091  0.00  0.00    -0.369 OA
ATOM      9  C   UNL     1      -2.014 -10.473  15.490  0.00  0.00    +0.164 C 
ATOM     10  C   UNL     1      -1.870  -9.666  13.216  0.00  0.00    +0.125 C 
ATOM     11  C   UNL     1      -0.702  -9.770  15.862  0.00  0.00    +0.145 C 
ATOM     12  C   UNL     1      -0.518  -9.005  13.474  0.00  0.00    +0.034 C 
ATOM     13  C   UNL     1      -0.389  -8.596  14.939  0.00  0.00    +0.036 C 
ENDROOT
BRANCH  11   2
ATOM      2  O   UNL     1       0.370 -10.710  15.753  0.00  0.00    -0.389 OA
ATOM     29  H   UNL     1       0.506 -11.105  16.632  0.00  0.00    +0.210 HD
ENDBRANCH  11   2
BRANCH  10  14
ATOM     14  C   UNL     1      -1.957 -10.185  11.786  0.00  0.00    +0.090 C 
BRANCH  14  16
ATOM      3  O   UNL     1      -5.445 -10.211  10.878  0.00  0.00    -0.357 OA
ATOM      8  N   UNL     1      -4.364 -10.669  11.622  0.00  0.00    -0.083 NA
ATOM     16  C   UNL     1      -3.320  -9.955  11.191  0.00  0.00    +0.086 A 
ATOM     17  C   UNL     1      -3.679  -9.040  10.185  0.00  0.00    +0.073 A 
ATOM     19  C   UNL     1      -5.025  -9.242  10.027  0.00  0.00    +0.163 A 
BRANCH  19  21
ATOM     21  C   UNL     1      -6.046  -8.643   9.159  0.00  0.00    +0.236 C 
BRANCH  21   6
ATOM      6  O   UNL     1      -7.330  -8.707   9.787  0.00  0.00    -0.375 OA
ATOM     23  C   UNL     1      -8.249  -7.823   9.167  0.00  0.00    +0.194 C 
ENDBRANCH  21   6
ENDBRANCH  19  21
ENDBRANCH  14  16
ENDBRANCH  10  14
BRANCH   9  15
ATOM     15  C   UNL     1      -3.253  -9.693  15.925  0.00  0.00    +0.138 C 
BRANCH  15   7
ATOM      4  O   UNL     1      -5.979  -8.881  16.446  0.00  0.00    -0.272 OA
ATOM      7  N   UNL     1      -4.448 -10.315  15.440  0.00  0.00    -0.310 N 
ATOM     18  C   UNL     1      -5.728  -9.856  15.742  0.00  0.00    +0.251 C 
ATOM     30  H   UNL     1      -4.349 -11.156  14.878  0.00  0.00    +0.149 HD
BRANCH  18  20
ATOM     20  C   UNL     1      -6.805 -10.701  15.098  0.00  0.00    +0.324 C 
BRANCH  20   5
ATOM      5  O   UNL     1      -7.988  -9.952  14.921  0.00  0.00    -0.483 OA
BRANCH   5  22
ATOM     22  C   UNL     1      -8.814  -9.815  16.011  0.00  0.00    +0.121 A 
ATOM     24  C   UNL     1      -9.790  -8.819  16.027  0.00  0.00    +0.045 A 
ATOM     25  C   UNL     1      -8.675 -10.673  17.102  0.00  0.00    +0.045 A 
ATOM     26  C   UNL     1     -10.628  -8.680  17.133  0.00  0.00    +0.004 A 
ATOM     27  C   UNL     1      -9.514 -10.535  18.209  0.00  0.00    +0.004 A 
ATOM     28  C   UNL     1     -10.489  -9.539  18.225  0.00  0.00    +0.000 A 
ENDBRANCH   5  22
ENDBRANCH  20   5
ENDBRANCH  18  20
ENDBRANCH  15   7
ENDBRANCH   9  15
TORSDOF 10
ENDMDL
MODEL 9
REMARK VINA RESULT:      -2.7      1.813      3.009
REMARK  Name = 75536274
REMARK  11 active torsions:
REMARK  status: ('A' for Active; 'I' for Inactive)
REMARK    1  A    between atoms: O_2  and  C_11
REMARK    2  A    between atoms: O_5  and  C_20
REMARK    3  A    between atoms: O_5  and  C_22
REMARK    4  A    between atoms: O_6  and  C_21
REMARK    5  A    between atoms: O_6  and  C_23
REMARK    6  A    between atoms: N_7  and  C_15
REMARK    7  A    between atoms: C_9  and  C_15
REMARK    8  A    between atoms: C_10  and  C_14
REMARK    9  A    between atoms: C_14  and  C_16
REMARK   10  A    between atoms: C_18  and  C_20
REMARK   11  A    between atoms: C_19  and  C_21
REMARK                            x       y       z     vdW  Elec       q    Type
REMARK                         _______ _______ _______ _____ _____    ______ ____
ROOT
ATOM      1  O   UNL     1      -1.873   3.200  23.730  0.00  0.00    -0.369 OA
ATOM      9  C   UNL     1      -2.423   4.075  24.723  0.00  0.00    +0.164 C 
ATOM     10  C   UNL     1      -2.348   1.853  23.776  0.00  0.00    +0.125 C 
ATOM     11  C   UNL     1      -3.956   4.087  24.671  0.00  0.00    +0.145 C 
ATOM     12  C   UNL     1      -3.866   1.809  23.610  0.00  0.00    +0.034 C 
ATOM     13  C   UNL     1      -4.548   2.680  24.661  0.00  0.00    +0.036 C 
ENDROOT
BRANCH  11   2
ATOM      2  O   UNL     1      -4.371   4.744  23.471  0.00  0.00    -0.389 OA
ATOM     29  H   UNL     1      -4.337   4.090  22.751  0.00  0.00    +0.210 HD
ENDBRANCH  11   2
BRANCH  10  14
ATOM     14  C   UNL     1      -1.657   1.084  22.657  0.00  0.00    +0.090 C 
BRANCH  14  16
ATOM      3  O   UNL     1       1.791   1.423  23.652  0.00  0.00    -0.357 OA
ATOM      8  N   UNL     1       0.476   1.871  23.597  0.00  0.00    -0.083 NA
ATOM     16  C   UNL     1      -0.182   0.931  22.913  0.00  0.00    +0.086 A 
ATOM     17  C   UNL     1       0.658  -0.124  22.514  0.00  0.00    +0.073 A 
ATOM     19  C   UNL     1       1.886   0.234  23.004  0.00  0.00    +0.163 A 
BRANCH  19  21
ATOM     21  C   UNL     1       3.215  -0.387  22.966  0.00  0.00    +0.236 C 
BRANCH  21   6
ATOM      6  O   UNL     1       4.233   0.616  23.022  0.00  0.00    -0.375 OA
ATOM     23  C   UNL     1       5.436   0.097  23.566  0.00  0.00    +0.194 C 
ENDBRANCH  21   6
ENDBRANCH  19  21
ENDBRANCH  14  16
ENDBRANCH  10  14
BRANCH   9  15
ATOM     15  C   UNL     1      -1.875   3.744  26.110  0.00  0.00    +0.138 C 
BRANCH  15   7
ATOM      4  O   UNL     1       0.709   2.559  26.641  0.00  0.00    -0.272 OA
ATOM      7  N   UNL     1      -1.570   2.350  26.223  0.00  0.00    -0.310 N 
ATOM     18  C   UNL     1      -0.291   1.864  26.481  0.00  0.00    +0.251 C 
ATOM     30  H   UNL     1      -2.325   1.687  26.069  0.00  0.00    +0.149 HD
BRANCH  18  20
ATOM     20  C   UNL     1      -0.257   0.353  26.549  0.00  0.00    +0.324 C 
BRANCH  20   5
ATOM      5  O   UNL     1      -1.545  -0.163  26.816  0.00  0.00    -0.483 OA
BRANCH   5  22
ATOM     22  C   UNL     1      -2.093  -1.002  25.875  0.00  0.00    +0.121 A 
ATOM     24  C   UNL     1      -1.267  -1.823  25.106  0.00  0.00    +0.045 A 
ATOM     25  C   UNL     1      -3.475  -1.031  25.688  0.00  0.00    +0.045 A 
ATOM     26  C   UNL     1      -1.823  -2.673  24.151  0.00  0.00    +0.004 A 
ATOM     27  C   UNL     1      -4.031  -1.883  24.733  0.00  0.00    +0.004 A 
ATOM     28  C   UNL     1      -3.206  -2.703  23.964  0.00  0.00    +0.000 A 
ENDBRANCH   5  22
ENDBRANCH  20   5
ENDBRANCH  18  20
ENDBRANCH  15   7
ENDBRANCH   9  15
TORSDOF 10
ENDMDL
MODEL 10
REMARK VINA RESULT:      -2.6     14.272     16.941
REMARK  Name = 75536274
REMARK  11 active torsions:
REMARK  status: ('A' for Active; 'I' for Inactive)
REMARK    1  A    between atoms: O_2  and  C_11
REMARK    2  A    between atoms: O_5  and  C_20
REMARK    3  A    between atoms: O_5  and  C_22
REMARK    4  A    between atoms: O_6  and  C_21
REMARK    5  A    between atoms: O_6  and  C_23
REMARK    6  A    between atoms: N_7  and  C_15
REMARK    7  A    between atoms: C_9  and  C_15
REMARK    8  A    between atoms: C_10  and  C_14
REMARK    9  A    between atoms: C_14  and  C_16
REMARK   10  A    between atoms: C_18  and  C_20
REMARK   11  A    between atoms: C_19  and  C_21
REMARK                            x       y       z     vdW  Elec       q    Type
REMARK                         _______ _______ _______ _____ _____    ______ ____
ROOT
ATOM      1  O   UNL     1      -1.952 -10.781  14.114  0.00  0.00    -0.369 OA
ATOM      9  C   UNL     1      -1.886 -10.493  15.517  0.00  0.00    +0.164 C 
ATOM     10  C   UNL     1      -1.807  -9.650  13.253  0.00  0.00    +0.125 C 
ATOM     11  C   UNL     1      -0.588  -9.760  15.875  0.00  0.00    +0.145 C 
ATOM     12  C   UNL     1      -0.469  -8.954  13.497  0.00  0.00    +0.034 C 
ATOM     13  C   UNL     1      -0.325  -8.564  14.965  0.00  0.00    +0.036 C 
ENDROOT
BRANCH  11   2
ATOM      2  O   UNL     1       0.508 -10.667  15.733  0.00  0.00    -0.389 OA
ATOM     29  H   UNL     1       1.060 -10.590  16.531  0.00  0.00    +0.210 HD
ENDBRANCH  11   2
BRANCH  10  14
ATOM     14  C   UNL     1      -1.906 -10.150  11.817  0.00  0.00    +0.090 C 
BRANCH  14  16
ATOM      3  O   UNL     1      -5.413  -9.714  11.110  0.00  0.00    -0.357 OA
ATOM      8  N   UNL     1      -4.361 -10.066  11.947  0.00  0.00    -0.083 NA
ATOM     16  C   UNL     1      -3.258  -9.869  11.220  0.00  0.00    +0.086 A 
ATOM     17  C   UNL     1      -3.549  -9.397   9.927  0.00  0.00    +0.073 A 
ATOM     19  C   UNL     1      -4.917  -9.317   9.910  0.00  0.00    +0.163 A 
BRANCH  19  21
ATOM     21  C   UNL     1      -5.898  -8.907   8.898  0.00  0.00    +0.236 C 
BRANCH  21   6
ATOM      6  O   UNL     1      -6.785  -7.924   9.437  0.00  0.00    -0.375 OA
ATOM     23  C   UNL     1      -7.844  -7.640   8.537  0.00  0.00    +0.194 C 
ENDBRANCH  21   6
ENDBRANCH  19  21
ENDBRANCH  14  16
ENDBRANCH  10  14
BRANCH   9  15
ATOM     15  C   UNL     1      -3.139  -9.755  15.985  0.00  0.00    +0.138 C 
BRANCH  15   7
ATOM      4  O   UNL     1      -5.869  -8.875  16.344  0.00  0.00    -0.272 OA
ATOM      7  N   UNL     1      -4.324 -10.398  15.505  0.00  0.00    -0.310 N 
ATOM     18  C   UNL     1      -5.607  -9.902  15.725  0.00  0.00    +0.251 C 
ATOM     30  H   UNL     1      -4.217 -11.280  15.011  0.00  0.00    +0.149 HD
BRANCH  18  20
ATOM     20  C   UNL     1      -6.672 -10.781  15.106  0.00  0.00    +0.324 C 
BRANCH  20   5
ATOM      5  O   UNL     1      -7.932 -10.144  15.149  0.00  0.00    -0.483 OA
BRANCH   5  22
ATOM     22  C   UNL     1      -8.643 -10.081  13.974  0.00  0.00    +0.121 A 
ATOM     24  C   UNL     1      -9.868  -9.415  13.935  0.00  0.00    +0.045 A 
ATOM     25  C   UNL     1      -8.140 -10.684  12.822  0.00  0.00    +0.045 A 
ATOM     26  C   UNL     1     -10.590  -9.351  12.744  0.00  0.00    +0.004 A 
ATOM     27  C   UNL     1      -8.863 -10.621  11.630  0.00  0.00    +0.004 A 
ATOM     28  C   UNL     1     -10.087  -9.955  11.591  0.00  0.00    +0.000 A 
ENDBRANCH   5  22
ENDBRANCH  20   5
ENDBRANCH  18  20
ENDBRANCH  15   7
ENDBRANCH   9  15
TORSDOF 10
ENDMDL
