MODEL 1
REMARK VINA RESULT:      -5.2      0.000      0.000
REMARK  Name = 11883311
REMARK  6 active torsions:
REMARK  status: ('A' for Active; 'I' for Inactive)
REMARK    1  A    between atoms: S_1  and  N_7
REMARK    2  A    between atoms: S_1  and  C_15
REMARK    3  A    between atoms: O_4  and  C_12
REMARK    4  A    between atoms: O_4  and  C_16
REMARK    5  A    between atoms: N_7  and  C_11
REMARK    6  A    between atoms: C_17  and  C_22
REMARK                            x       y       z     vdW  Elec       q    Type
REMARK                         _______ _______ _______ _____ _____    ______ ____
ROOT
ATOM      7  N   UNL     1      -0.429   1.818  24.064  0.00  0.00    -0.182 NA
ATOM     23  H   UNL     1      -0.158   1.713  23.078  0.00  0.00    +0.148 HD
ENDROOT
BRANCH   7  11
ATOM      2  O   UNL     1      -2.494  -0.183  25.298  0.00  0.00    -0.370 OA
ATOM      3  O   UNL     1       0.138  -1.707  24.902  0.00  0.00    -0.370 OA
ATOM      9  C   UNL     1      -0.457  -0.618  24.164  0.00  0.00    +0.170 C 
ATOM     10  C   UNL     1      -1.952  -0.862  24.152  0.00  0.00    +0.179 C 
ATOM     11  C   UNL     1      -0.305   0.674  24.934  0.00  0.00    +0.133 C 
ATOM     12  C   UNL     1      -2.041  -2.362  24.297  0.00  0.00    +0.175 C 
ATOM     13  C   UNL     1      -1.461   0.599  25.917  0.00  0.00    +0.183 C 
ATOM     14  C   UNL     1      -0.885  -2.661  25.225  0.00  0.00    +0.194 C 
BRANCH  12   4
ATOM      4  O   UNL     1      -3.271  -2.805  24.824  0.00  0.00    -0.375 OA
ATOM     16  C   UNL     1      -4.359  -2.521  23.947  0.00  0.00    +0.194 C 
ENDBRANCH  12   4
ENDBRANCH   7  11
BRANCH   7   1
ATOM      1  S   UNL     1      -0.654   3.364  24.728  0.00  0.00    +0.060 S 
ATOM      5  O   UNL     1      -0.314   4.368  23.738  0.00  0.00    -0.153 OA
ATOM      6  O   UNL     1      -0.047   3.401  26.044  0.00  0.00    -0.153 OA
BRANCH   1  15
ATOM     15  C   UNL     1      -2.405   3.407  24.967  0.00  0.00    +0.123 A 
ATOM     17  C   UNL     1      -3.276   2.917  24.005  0.00  0.00    +0.078 A 
ATOM     18  C   UNL     1      -2.881   3.951  26.153  0.00  0.00    +0.030 A 
ATOM     19  C   UNL     1      -4.652   2.971  24.233  0.00  0.00    +0.021 A 
ATOM     20  C   UNL     1      -4.256   4.005  26.381  0.00  0.00    +0.002 A 
ATOM     21  C   UNL     1      -5.141   3.515  25.421  0.00  0.00    +0.001 A 
BRANCH  17  22
ATOM      8  N   UNL     1      -2.431   1.896  21.779  0.00  0.00    -0.191 NA
ATOM     22  C   UNL     1      -2.809   2.353  22.775  0.00  0.00    +0.101 C 
ENDBRANCH  17  22
ENDBRANCH   1  15
ENDBRANCH   7   1
TORSDOF 5
ENDMDL
MODEL 2
REMARK VINA RESULT:      -4.2      2.181      5.207
REMARK  Name = 11883311
REMARK  6 active torsions:
REMARK  status: ('A' for Active; 'I' for Inactive)
REMARK    1  A    between atoms: S_1  and  N_7
REMARK    2  A    between atoms: S_1  and  C_15
REMARK    3  A    between atoms: O_4  and  C_12
REMARK    4  A    between atoms: O_4  and  C_16
REMARK    5  A    between atoms: N_7  and  C_11
REMARK    6  A    between atoms: C_17  and  C_22
REMARK                            x       y       z     vdW  Elec       q    Type
REMARK                         _______ _______ _______ _____ _____    ______ ____
ROOT
ATOM      7  N   UNL     1      -1.508   1.651  23.085  0.00  0.00    -0.182 NA
ATOM     23  H   UNL     1      -1.871   1.382  22.162  0.00  0.00    +0.148 HD
ENDROOT
BRANCH   7  11
ATOM      2  O   UNL     1      -4.292   2.884  23.802  0.00  0.00    -0.370 OA
ATOM      3  O   UNL     1      -2.237   4.059  25.752  0.00  0.00    -0.370 OA
ATOM      9  C   UNL     1      -2.306   2.776  25.095  0.00  0.00    +0.170 C 
ATOM     10  C   UNL     1      -3.770   2.386  25.047  0.00  0.00    +0.179 C 
ATOM     11  C   UNL     1      -1.919   2.916  23.641  0.00  0.00    +0.133 C 
ATOM     12  C   UNL     1      -4.345   3.127  26.230  0.00  0.00    +0.175 C 
ATOM     13  C   UNL     1      -3.212   3.403  23.009  0.00  0.00    +0.183 C 
ATOM     14  C   UNL     1      -3.547   4.411  26.221  0.00  0.00    +0.194 C 
BRANCH  12   4
ATOM      4  O   UNL     1      -5.731   3.363  26.127  0.00  0.00    -0.375 OA
ATOM     16  C   UNL     1      -6.484   2.155  26.198  0.00  0.00    +0.194 C 
ENDBRANCH  12   4
ENDBRANCH   7  11
BRANCH   7   1
ATOM      1  S   UNL     1      -0.761   0.494  24.078  0.00  0.00    +0.060 S 
ATOM      5  O   UNL     1      -0.562   1.052  25.403  0.00  0.00    -0.153 OA
ATOM      6  O   UNL     1       0.354  -0.091  23.359  0.00  0.00    -0.153 OA
BRANCH   1  15
ATOM     15  C   UNL     1      -2.011  -0.750  24.193  0.00  0.00    +0.123 A 
ATOM     17  C   UNL     1      -1.741  -1.993  24.747  0.00  0.00    +0.078 A 
ATOM     18  C   UNL     1      -3.274  -0.441  23.708  0.00  0.00    +0.030 A 
ATOM     19  C   UNL     1      -2.756  -2.948  24.818  0.00  0.00    +0.021 A 
ATOM     20  C   UNL     1      -4.289  -1.396  23.779  0.00  0.00    +0.002 A 
ATOM     21  C   UNL     1      -4.030  -2.649  24.334  0.00  0.00    +0.001 A 
BRANCH  17  22
ATOM      8  N   UNL     1       0.603  -2.611  25.661  0.00  0.00    -0.191 NA
ATOM     22  C   UNL     1      -0.446  -2.335  25.252  0.00  0.00    +0.101 C 
ENDBRANCH  17  22
ENDBRANCH   1  15
ENDBRANCH   7   1
TORSDOF 5
ENDMDL
MODEL 3
REMARK VINA RESULT:      -3.4     18.083     19.704
REMARK  Name = 11883311
REMARK  6 active torsions:
REMARK  status: ('A' for Active; 'I' for Inactive)
REMARK    1  A    between atoms: S_1  and  N_7
REMARK    2  A    between atoms: S_1  and  C_15
REMARK    3  A    between atoms: O_4  and  C_12
REMARK    4  A    between atoms: O_4  and  C_16
REMARK    5  A    between atoms: N_7  and  C_11
REMARK    6  A    between atoms: C_17  and  C_22
REMARK                            x       y       z     vdW  Elec       q    Type
REMARK                         _______ _______ _______ _____ _____    ______ ____
ROOT
ATOM      7  N   UNL     1      14.983  -6.317  29.191  0.00  0.00    -0.182 NA
ATOM     23  H   UNL     1      14.041  -6.450  28.803  0.00  0.00    +0.148 HD
ENDROOT
BRANCH   7  11
ATOM      2  O   UNL     1      16.519  -8.709  27.886  0.00  0.00    -0.370 OA
ATOM      3  O   UNL     1      16.688  -6.340  25.944  0.00  0.00    -0.370 OA
ATOM      9  C   UNL     1      15.669  -6.732  26.888  0.00  0.00    +0.170 C 
ATOM     10  C   UNL     1      15.612  -8.246  26.870  0.00  0.00    +0.179 C 
ATOM     11  C   UNL     1      16.111  -6.402  28.296  0.00  0.00    +0.133 C 
ATOM     12  C   UNL     1      16.110  -8.575  25.483  0.00  0.00    +0.175 C 
ATOM     13  C   UNL     1      17.001  -7.585  28.639  0.00  0.00    +0.183 C 
ATOM     14  C   UNL     1      17.161  -7.510  25.261  0.00  0.00    +0.194 C 
BRANCH  12   4
ATOM      4  O   UNL     1      16.642  -9.876  25.370  0.00  0.00    -0.375 OA
ATOM     16  C   UNL     1      15.716 -10.780  24.774  0.00  0.00    +0.194 C 
ENDBRANCH  12   4
ENDBRANCH   7  11
BRANCH   7   1
ATOM      1  S   UNL     1      15.183  -5.651  30.740  0.00  0.00    +0.060 S 
ATOM      5  O   UNL     1      15.399  -4.221  30.626  0.00  0.00    -0.153 OA
ATOM      6  O   UNL     1      16.116  -6.473  31.486  0.00  0.00    -0.153 OA
BRANCH   1  15
ATOM     15  C   UNL     1      13.586  -5.906  31.455  0.00  0.00    +0.123 A 
ATOM     17  C   UNL     1      12.945  -7.133  31.369  0.00  0.00    +0.078 A 
ATOM     18  C   UNL     1      12.993  -4.832  32.106  0.00  0.00    +0.030 A 
ATOM     19  C   UNL     1      11.685  -7.291  31.946  0.00  0.00    +0.021 A 
ATOM     20  C   UNL     1      11.733  -4.990  32.683  0.00  0.00    +0.002 A 
ATOM     21  C   UNL     1      11.079  -6.220  32.603  0.00  0.00    +0.001 A 
BRANCH  17  22
ATOM      8  N   UNL     1      14.015  -9.160  30.161  0.00  0.00    -0.191 NA
ATOM     22  C   UNL     1      13.537  -8.253  30.701  0.00  0.00    +0.101 C 
ENDBRANCH  17  22
ENDBRANCH   1  15
ENDBRANCH   7   1
TORSDOF 5
ENDMDL
MODEL 4
REMARK VINA RESULT:      -3.0     18.266     19.861
REMARK  Name = 11883311
REMARK  6 active torsions:
REMARK  status: ('A' for Active; 'I' for Inactive)
REMARK    1  A    between atoms: S_1  and  N_7
REMARK    2  A    between atoms: S_1  and  C_15
REMARK    3  A    between atoms: O_4  and  C_12
REMARK    4  A    between atoms: O_4  and  C_16
REMARK    5  A    between atoms: N_7  and  C_11
REMARK    6  A    between atoms: C_17  and  C_22
REMARK                            x       y       z     vdW  Elec       q    Type
REMARK                         _______ _______ _______ _____ _____    ______ ____
ROOT
ATOM      7  N   UNL     1      14.783  -6.913  29.313  0.00  0.00    -0.182 NA
ATOM     23  H   UNL     1      14.070  -6.242  28.998  0.00  0.00    +0.148 HD
ENDROOT
BRANCH   7  11
ATOM      2  O   UNL     1      16.240  -9.229  27.797  0.00  0.00    -0.370 OA
ATOM      3  O   UNL     1      16.960  -6.607  26.378  0.00  0.00    -0.370 OA
ATOM      9  C   UNL     1      15.770  -7.016  27.086  0.00  0.00    +0.170 C 
ATOM     10  C   UNL     1      15.556  -8.483  26.775  0.00  0.00    +0.179 C 
ATOM     11  C   UNL     1      16.021  -6.993  28.576  0.00  0.00    +0.133 C 
ATOM     12  C   UNL     1      16.226  -8.634  25.430  0.00  0.00    +0.175 C 
ATOM     13  C   UNL     1      16.715  -8.324  28.806  0.00  0.00    +0.183 C 
ATOM     14  C   UNL     1      17.405  -7.696  25.555  0.00  0.00    +0.194 C 
BRANCH  12   4
ATOM      4  O   UNL     1      16.628  -9.955  25.146  0.00  0.00    -0.375 OA
ATOM     16  C   UNL     1      15.527 -10.775  24.760  0.00  0.00    +0.194 C 
ENDBRANCH  12   4
ENDBRANCH   7  11
BRANCH   7   1
ATOM      1  S   UNL     1      14.667  -7.623  30.850  0.00  0.00    +0.060 S 
ATOM      5  O   UNL     1      15.903  -7.402  31.578  0.00  0.00    -0.153 OA
ATOM      6  O   UNL     1      14.134  -8.964  30.708  0.00  0.00    -0.153 OA
BRANCH   1  15
ATOM     15  C   UNL     1      13.406  -6.645  31.610  0.00  0.00    +0.123 A 
ATOM     17  C   UNL     1      13.531  -5.268  31.724  0.00  0.00    +0.078 A 
ATOM     18  C   UNL     1      12.282  -7.303  32.092  0.00  0.00    +0.030 A 
ATOM     19  C   UNL     1      12.512  -4.534  32.331  0.00  0.00    +0.021 A 
ATOM     20  C   UNL     1      11.263  -6.569  32.699  0.00  0.00    +0.002 A 
ATOM     21  C   UNL     1      11.379  -5.184  32.819  0.00  0.00    +0.001 A 
BRANCH  17  22
ATOM      8  N   UNL     1      15.611  -4.001  30.840  0.00  0.00    -0.191 NA
ATOM     22  C   UNL     1      14.681  -4.568  31.235  0.00  0.00    +0.101 C 
ENDBRANCH  17  22
ENDBRANCH   1  15
ENDBRANCH   7   1
TORSDOF 5
ENDMDL
MODEL 5
REMARK VINA RESULT:      -2.9     19.004     20.609
REMARK  Name = 11883311
REMARK  6 active torsions:
REMARK  status: ('A' for Active; 'I' for Inactive)
REMARK    1  A    between atoms: S_1  and  N_7
REMARK    2  A    between atoms: S_1  and  C_15
REMARK    3  A    between atoms: O_4  and  C_12
REMARK    4  A    between atoms: O_4  and  C_16
REMARK    5  A    between atoms: N_7  and  C_11
REMARK    6  A    between atoms: C_17  and  C_22
REMARK                            x       y       z     vdW  Elec       q    Type
REMARK                         _______ _______ _______ _____ _____    ______ ____
ROOT
ATOM      7  N   UNL     1      15.413  -8.182  30.340  0.00  0.00    -0.182 NA
ATOM     23  H   UNL     1      14.500  -8.564  30.064  0.00  0.00    +0.148 HD
ENDROOT
BRANCH   7  11
ATOM      2  O   UNL     1      16.886  -9.390  27.858  0.00  0.00    -0.370 OA
ATOM      3  O   UNL     1      16.168  -6.487  27.178  0.00  0.00    -0.370 OA
ATOM      9  C   UNL     1      15.511  -7.464  28.012  0.00  0.00    +0.170 C 
ATOM     10  C   UNL     1      15.681  -8.807  27.333  0.00  0.00    +0.179 C 
ATOM     11  C   UNL     1      16.259  -7.619  29.316  0.00  0.00    +0.133 C 
ATOM     12  C   UNL     1      15.832  -8.423  25.881  0.00  0.00    +0.175 C 
ATOM     13  C   UNL     1      17.376  -8.575  28.935  0.00  0.00    +0.183 C 
ATOM     14  C   UNL     1      16.611  -7.130  25.974  0.00  0.00    +0.194 C 
BRANCH  12   4
ATOM      4  O   UNL     1      16.504  -9.393  25.109  0.00  0.00    -0.375 OA
ATOM     16  C   UNL     1      15.682 -10.526  24.843  0.00  0.00    +0.194 C 
ENDBRANCH  12   4
ENDBRANCH   7  11
BRANCH   7   1
ATOM      1  S   UNL     1      15.753  -7.883  31.976  0.00  0.00    +0.060 S 
ATOM      5  O   UNL     1      17.138  -8.218  32.251  0.00  0.00    -0.153 OA
ATOM      6  O   UNL     1      14.692  -8.448  32.786  0.00  0.00    -0.153 OA
BRANCH   1  15
ATOM     15  C   UNL     1      15.590  -6.125  32.067  0.00  0.00    +0.123 A 
ATOM     17  C   UNL     1      14.442  -5.484  31.626  0.00  0.00    +0.078 A 
ATOM     18  C   UNL     1      16.654  -5.406  32.595  0.00  0.00    +0.030 A 
ATOM     19  C   UNL     1      14.355  -4.094  31.715  0.00  0.00    +0.021 A 
ATOM     20  C   UNL     1      16.567  -4.016  32.684  0.00  0.00    +0.002 A 
ATOM     21  C   UNL     1      15.417  -3.361  32.244  0.00  0.00    +0.001 A 
BRANCH  17  22
ATOM      8  N   UNL     1      12.436  -6.788  30.632  0.00  0.00    -0.191 NA
ATOM     22  C   UNL     1      13.333  -6.205  31.077  0.00  0.00    +0.101 C 
ENDBRANCH  17  22
ENDBRANCH   1  15
ENDBRANCH   7   1
TORSDOF 5
ENDMDL
MODEL 6
REMARK VINA RESULT:      -2.9      2.074      3.029
REMARK  Name = 11883311
REMARK  6 active torsions:
REMARK  status: ('A' for Active; 'I' for Inactive)
REMARK    1  A    between atoms: S_1  and  N_7
REMARK    2  A    between atoms: S_1  and  C_15
REMARK    3  A    between atoms: O_4  and  C_12
REMARK    4  A    between atoms: O_4  and  C_16
REMARK    5  A    between atoms: N_7  and  C_11
REMARK    6  A    between atoms: C_17  and  C_22
REMARK                            x       y       z     vdW  Elec       q    Type
REMARK                         _______ _______ _______ _____ _____    ______ ____
ROOT
ATOM      7  N   UNL     1       0.183  -0.097  25.210  0.00  0.00    -0.182 NA
ATOM     23  H   UNL     1       0.636   0.255  26.063  0.00  0.00    +0.148 HD
ENDROOT
BRANCH   7  11
ATOM      2  O   UNL     1      -2.838  -0.351  25.979  0.00  0.00    -0.370 OA
ATOM      3  O   UNL     1      -2.197  -2.618  24.015  0.00  0.00    -0.370 OA
ATOM      9  C   UNL     1      -1.661  -1.284  24.144  0.00  0.00    +0.170 C 
ATOM     10  C   UNL     1      -2.813  -0.384  24.542  0.00  0.00    +0.179 C 
ATOM     11  C   UNL     1      -0.721  -1.215  25.326  0.00  0.00    +0.133 C 
ATOM     12  C   UNL     1      -4.008  -1.114  23.978  0.00  0.00    +0.175 C 
ATOM     13  C   UNL     1      -1.680  -1.031  26.489  0.00  0.00    +0.183 C 
ATOM     14  C   UNL     1      -3.621  -2.562  24.181  0.00  0.00    +0.194 C 
BRANCH  12   4
ATOM      4  O   UNL     1      -5.220  -0.794  24.624  0.00  0.00    -0.375 OA
ATOM     16  C   UNL     1      -5.361   0.610  24.824  0.00  0.00    +0.194 C 
ENDBRANCH  12   4
ENDBRANCH   7  11
BRANCH   7   1
ATOM      1  S   UNL     1       0.204   0.830  23.787  0.00  0.00    +0.060 S 
ATOM      5  O   UNL     1      -0.194  -0.000  22.665  0.00  0.00    -0.153 OA
ATOM      6  O   UNL     1       1.442   1.581  23.736  0.00  0.00    -0.153 OA
BRANCH   1  15
ATOM     15  C   UNL     1      -1.093   1.992  24.091  0.00  0.00    +0.123 A 
ATOM     17  C   UNL     1      -1.120   2.755  25.249  0.00  0.00    +0.078 A 
ATOM     18  C   UNL     1      -2.087   2.115  23.129  0.00  0.00    +0.030 A 
ATOM     19  C   UNL     1      -2.163   3.661  25.450  0.00  0.00    +0.021 A 
ATOM     20  C   UNL     1      -3.129   3.020  23.330  0.00  0.00    +0.002 A 
ATOM     21  C   UNL     1      -3.166   3.793  24.490  0.00  0.00    +0.001 A 
BRANCH  17  22
ATOM      8  N   UNL     1       0.712   2.556  27.069  0.00  0.00    -0.191 NA
ATOM     22  C   UNL     1      -0.108   2.645  26.255  0.00  0.00    +0.101 C 
ENDBRANCH  17  22
ENDBRANCH   1  15
ENDBRANCH   7   1
TORSDOF 5
ENDMDL
MODEL 7
REMARK VINA RESULT:      -2.8      2.753      4.503
REMARK  Name = 11883311
REMARK  6 active torsions:
REMARK  status: ('A' for Active; 'I' for Inactive)
REMARK    1  A    between atoms: S_1  and  N_7
REMARK    2  A    between atoms: S_1  and  C_15
REMARK    3  A    between atoms: O_4  and  C_12
REMARK    4  A    between atoms: O_4  and  C_16
REMARK    5  A    between atoms: N_7  and  C_11
REMARK    6  A    between atoms: C_17  and  C_22
REMARK                            x       y       z     vdW  Elec       q    Type
REMARK                         _______ _______ _______ _____ _____    ______ ____
ROOT
ATOM      7  N   UNL     1      -2.556  -0.649  24.189  0.00  0.00    -0.182 NA
ATOM     23  H   UNL     1      -2.476  -1.135  23.287  0.00  0.00    +0.148 HD
ENDROOT
BRANCH   7  11
ATOM      2  O   UNL     1       0.501  -1.304  24.056  0.00  0.00    -0.370 OA
ATOM      3  O   UNL     1       0.222   1.743  24.272  0.00  0.00    -0.370 OA
ATOM      9  C   UNL     1      -0.627   0.746  23.664  0.00  0.00    +0.170 C 
ATOM     10  C   UNL     1       0.289  -0.296  23.053  0.00  0.00    +0.179 C 
ATOM     11  C   UNL     1      -1.380  -0.014  24.732  0.00  0.00    +0.133 C 
ATOM     12  C   UNL     1       1.546   0.494  22.779  0.00  0.00    +0.175 C 
ATOM     13  C   UNL     1      -0.354  -1.041  25.180  0.00  0.00    +0.183 C 
ATOM     14  C   UNL     1       1.589   1.442  23.956  0.00  0.00    +0.194 C 
BRANCH  12   4
ATOM      4  O   UNL     1       2.706  -0.304  22.698  0.00  0.00    -0.375 OA
ATOM     16  C   UNL     1       3.895   0.480  22.736  0.00  0.00    +0.194 C 
ENDBRANCH  12   4
ENDBRANCH   7  11
BRANCH   7   1
ATOM      1  S   UNL     1      -4.085  -0.286  24.830  0.00  0.00    +0.060 S 
ATOM      5  O   UNL     1      -4.080  -0.533  26.260  0.00  0.00    -0.153 OA
ATOM      6  O   UNL     1      -5.101  -0.889  23.989  0.00  0.00    -0.153 OA
BRANCH   1  15
ATOM     15  C   UNL     1      -4.179   1.462  24.580  0.00  0.00    +0.123 A 
ATOM     17  C   UNL     1      -5.075   2.245  25.293  0.00  0.00    +0.078 A 
ATOM     18  C   UNL     1      -3.326   2.025  23.641  0.00  0.00    +0.030 A 
ATOM     19  C   UNL     1      -5.118   3.620  25.064  0.00  0.00    +0.021 A 
ATOM     20  C   UNL     1      -3.368   3.401  23.412  0.00  0.00    +0.002 A 
ATOM     21  C   UNL     1      -4.264   4.198  24.124  0.00  0.00    +0.001 A 
BRANCH  17  22
ATOM      8  N   UNL     1      -6.686   1.233  27.052  0.00  0.00    -0.191 NA
ATOM     22  C   UNL     1      -5.966   1.685  26.265  0.00  0.00    +0.101 C 
ENDBRANCH  17  22
ENDBRANCH   1  15
ENDBRANCH   7   1
TORSDOF 5
ENDMDL
MODEL 8
REMARK VINA RESULT:      -2.8     17.963     19.809
REMARK  Name = 11883311
REMARK  6 active torsions:
REMARK  status: ('A' for Active; 'I' for Inactive)
REMARK    1  A    between atoms: S_1  and  N_7
REMARK    2  A    between atoms: S_1  and  C_15
REMARK    3  A    between atoms: O_4  and  C_12
REMARK    4  A    between atoms: O_4  and  C_16
REMARK    5  A    between atoms: N_7  and  C_11
REMARK    6  A    between atoms: C_17  and  C_22
REMARK                            x       y       z     vdW  Elec       q    Type
REMARK                         _______ _______ _______ _____ _____    ______ ____
ROOT
ATOM      7  N   UNL     1      13.725  -8.338  30.385  0.00  0.00    -0.182 NA
ATOM     23  H   UNL     1      12.946  -8.016  29.797  0.00  0.00    +0.148 HD
ENDROOT
BRANCH   7  11
ATOM      2  O   UNL     1      16.280  -8.532  28.591  0.00  0.00    -0.370 OA
ATOM      3  O   UNL     1      15.962  -5.597  29.425  0.00  0.00    -0.370 OA
ATOM      9  C   UNL     1      14.987  -6.633  29.184  0.00  0.00    +0.170 C 
ATOM     10  C   UNL     1      15.504  -7.461  28.025  0.00  0.00    +0.179 C 
ATOM     11  C   UNL     1      14.965  -7.604  30.343  0.00  0.00    +0.133 C 
ATOM     12  C   UNL     1      16.370  -6.475  27.279  0.00  0.00    +0.175 C 
ATOM     13  C   UNL     1      16.136  -8.516  30.020  0.00  0.00    +0.183 C 
ATOM     14  C   UNL     1      16.970  -5.664  28.405  0.00  0.00    +0.194 C 
BRANCH  12   4
ATOM      4  O   UNL     1      17.359  -7.086  26.481  0.00  0.00    -0.375 OA
ATOM     16  C   UNL     1      16.984  -7.127  25.107  0.00  0.00    +0.194 C 
ENDBRANCH  12   4
ENDBRANCH   7  11
BRANCH   7   1
ATOM      1  S   UNL     1      13.446  -9.455  31.634  0.00  0.00    +0.060 S 
ATOM      5  O   UNL     1      14.014  -8.948  32.869  0.00  0.00    -0.153 OA
ATOM      6  O   UNL     1      13.792 -10.781  31.162  0.00  0.00    -0.153 OA
BRANCH   1  15
ATOM     15  C   UNL     1      11.685  -9.403  31.783  0.00  0.00    +0.123 A 
ATOM     17  C   UNL     1      11.016  -8.211  32.019  0.00  0.00    +0.078 A 
ATOM     18  C   UNL     1      10.993 -10.600  31.657  0.00  0.00    +0.030 A 
ATOM     19  C   UNL     1       9.626  -8.215  32.131  0.00  0.00    +0.021 A 
ATOM     20  C   UNL     1       9.602 -10.604  31.769  0.00  0.00    +0.002 A 
ATOM     21  C   UNL     1       8.919  -9.412  32.006  0.00  0.00    +0.001 A 
BRANCH  17  22
ATOM      8  N   UNL     1      12.271  -5.958  32.264  0.00  0.00    -0.191 NA
ATOM     22  C   UNL     1      11.709  -6.966  32.154  0.00  0.00    +0.101 C 
ENDBRANCH  17  22
ENDBRANCH   1  15
ENDBRANCH   7   1
TORSDOF 5
ENDMDL
MODEL 9
REMARK VINA RESULT:      -2.7     17.447     19.713
REMARK  Name = 11883311
REMARK  6 active torsions:
REMARK  status: ('A' for Active; 'I' for Inactive)
REMARK    1  A    between atoms: S_1  and  N_7
REMARK    2  A    between atoms: S_1  and  C_15
REMARK    3  A    between atoms: O_4  and  C_12
REMARK    4  A    between atoms: O_4  and  C_16
REMARK    5  A    between atoms: N_7  and  C_11
REMARK    6  A    between atoms: C_17  and  C_22
REMARK                            x       y       z     vdW  Elec       q    Type
REMARK                         _______ _______ _______ _____ _____    ______ ____
ROOT
ATOM      7  N   UNL     1      13.685  -7.676  30.243  0.00  0.00    -0.182 NA
ATOM     23  H   UNL     1      13.066  -7.873  29.446  0.00  0.00    +0.148 HD
ENDROOT
BRANCH   7  11
ATOM      2  O   UNL     1      15.552  -8.437  27.851  0.00  0.00    -0.370 OA
ATOM      3  O   UNL     1      16.695  -5.897  29.136  0.00  0.00    -0.370 OA
ATOM      9  C   UNL     1      15.340  -6.378  29.009  0.00  0.00    +0.170 C 
ATOM     10  C   UNL     1      15.237  -7.048  27.653  0.00  0.00    +0.179 C 
ATOM     11  C   UNL     1      15.094  -7.502  29.989  0.00  0.00    +0.133 C 
ATOM     12  C   UNL     1      16.305  -6.339  26.856  0.00  0.00    +0.175 C 
ATOM     13  C   UNL     1      15.676  -8.699  29.257  0.00  0.00    +0.183 C 
ATOM     14  C   UNL     1      17.382  -6.116  27.895  0.00  0.00    +0.194 C 
BRANCH  12   4
ATOM      4  O   UNL     1      16.776  -7.086  25.757  0.00  0.00    -0.375 OA
ATOM     16  C   UNL     1      17.389  -6.257  24.773  0.00  0.00    +0.194 C 
ENDBRANCH  12   4
ENDBRANCH   7  11
BRANCH   7   1
ATOM      1  S   UNL     1      13.030  -7.201  31.735  0.00  0.00    +0.060 S 
ATOM      5  O   UNL     1      12.534  -5.841  31.633  0.00  0.00    -0.153 OA
ATOM      6  O   UNL     1      13.958  -7.561  32.790  0.00  0.00    -0.153 OA
BRANCH   1  15
ATOM     15  C   UNL     1      11.637  -8.279  31.882  0.00  0.00    +0.123 A 
ATOM     17  C   UNL     1      11.784  -9.657  31.829  0.00  0.00    +0.078 A 
ATOM     18  C   UNL     1      10.388  -7.698  32.052  0.00  0.00    +0.030 A 
ATOM     19  C   UNL     1      10.658 -10.473  31.948  0.00  0.00    +0.021 A 
ATOM     20  C   UNL     1       9.262  -8.513  32.171  0.00  0.00    +0.002 A 
ATOM     21  C   UNL     1       9.397  -9.900  32.120  0.00  0.00    +0.001 A 
BRANCH  17  22
ATOM      8  N   UNL     1      14.097 -10.781  31.511  0.00  0.00    -0.191 NA
ATOM     22  C   UNL     1      13.062 -10.278  31.653  0.00  0.00    +0.101 C 
ENDBRANCH  17  22
ENDBRANCH   1  15
ENDBRANCH   7   1
TORSDOF 5
ENDMDL
MODEL 10
REMARK VINA RESULT:      -2.6      2.125      4.379
REMARK  Name = 11883311
REMARK  6 active torsions:
REMARK  status: ('A' for Active; 'I' for Inactive)
REMARK    1  A    between atoms: S_1  and  N_7
REMARK    2  A    between atoms: S_1  and  C_15
REMARK    3  A    between atoms: O_4  and  C_12
REMARK    4  A    between atoms: O_4  and  C_16
REMARK    5  A    between atoms: N_7  and  C_11
REMARK    6  A    between atoms: C_17  and  C_22
REMARK                            x       y       z     vdW  Elec       q    Type
REMARK                         _______ _______ _______ _____ _____    ______ ____
ROOT
ATOM      7  N   UNL     1      -1.963  -0.387  23.762  0.00  0.00    -0.182 NA
ATOM     23  H   UNL     1      -1.904  -0.180  22.757  0.00  0.00    +0.148 HD
ENDROOT
BRANCH   7  11
ATOM      2  O   UNL     1      -0.126   2.146  23.804  0.00  0.00    -0.370 OA
ATOM      3  O   UNL     1      -0.432   1.184  26.701  0.00  0.00    -0.370 OA
ATOM      9  C   UNL     1      -1.329   1.119  25.572  0.00  0.00    +0.170 C 
ATOM     10  C   UNL     1      -1.143   2.403  24.789  0.00  0.00    +0.179 C 
ATOM     11  C   UNL     1      -0.880   0.040  24.614  0.00  0.00    +0.133 C 
ATOM     12  C   UNL     1      -0.664   3.366  25.848  0.00  0.00    +0.175 C 
ATOM     13  C   UNL     1       0.203   0.748  23.817  0.00  0.00    +0.183 C 
ATOM     14  C   UNL     1       0.190   2.477  26.724  0.00  0.00    +0.194 C 
BRANCH  12   4
ATOM      4  O   UNL     1       0.063   4.457  25.330  0.00  0.00    -0.375 OA
ATOM     16  C   UNL     1      -0.791   5.438  24.748  0.00  0.00    +0.194 C 
ENDBRANCH  12   4
ENDBRANCH   7  11
BRANCH   7   1
ATOM      1  S   UNL     1      -3.438  -0.872  24.449  0.00  0.00    +0.060 S 
ATOM      5  O   UNL     1      -3.190  -1.477  25.744  0.00  0.00    -0.153 OA
ATOM      6  O   UNL     1      -4.210  -1.581  23.448  0.00  0.00    -0.153 OA
BRANCH   1  15
ATOM     15  C   UNL     1      -4.243   0.679  24.718  0.00  0.00    +0.123 A 
ATOM     17  C   UNL     1      -4.081   1.737  23.836  0.00  0.00    +0.078 A 
ATOM     18  C   UNL     1      -5.043   0.802  25.845  0.00  0.00    +0.030 A 
ATOM     19  C   UNL     1      -4.734   2.945  24.086  0.00  0.00    +0.021 A 
ATOM     20  C   UNL     1      -5.696   2.010  26.095  0.00  0.00    +0.002 A 
ATOM     21  C   UNL     1      -5.541   3.081  25.215  0.00  0.00    +0.001 A 
BRANCH  17  22
ATOM      8  N   UNL     1      -2.594   1.550  21.722  0.00  0.00    -0.191 NA
ATOM     22  C   UNL     1      -3.259   1.634  22.668  0.00  0.00    +0.101 C 
ENDBRANCH  17  22
ENDBRANCH   1  15
ENDBRANCH   7   1
TORSDOF 5
ENDMDL
