MODEL 1
REMARK VINA RESULT:       3.5      0.000      0.000
REMARK  Name = 71693193
REMARK  15 active torsions:
REMARK  status: ('A' for Active; 'I' for Inactive)
REMARK    1  A    between atoms: O_1  and  C_34
REMARK    2  A    between atoms: O_1  and  C_36
REMARK    3  A    between atoms: N_4  and  C_15
REMARK    4  A    between atoms: N_4  and  C_21
REMARK    5  A    between atoms: N_7  and  C_33
REMARK    6  A    between atoms: C_8  and  C_12
REMARK    7  A    between atoms: C_9  and  C_15
REMARK    8  A    between atoms: C_11  and  C_16
REMARK    9  A    between atoms: C_12  and  C_17
REMARK   10  A    between atoms: C_12  and  C_18
REMARK   11  A    between atoms: C_13  and  C_19
REMARK   12  A    between atoms: C_16  and  C_20
REMARK   13  A    between atoms: C_21  and  C_24
REMARK   14  A    between atoms: C_29  and  C_34
REMARK   15  A    between atoms: C_35  and  C_37
REMARK                            x       y       z     vdW  Elec       q    Type
REMARK                         _______ _______ _______ _____ _____    ______ ____
ROOT
ATOM      8  C   UNL     1      -2.713   3.871  25.735  0.00  0.00    +0.000 C 
ATOM      9  C   UNL     1      -4.063   3.871  24.979  0.00  0.00    +0.029 C 
ATOM     10  C   UNL     1      -1.931   2.584  25.440  0.00  0.00    +0.012 C 
ATOM     11  C   UNL     1      -1.677   2.355  23.934  0.00  0.00    +0.022 C 
ATOM     13  C   UNL     1      -2.867   2.733  23.064  0.00  0.00    -0.073 C 
ATOM     14  C   UNL     1      -3.927   3.400  23.553  0.00  0.00    -0.023 C 
ATOM     19  C   UNL     1      -2.797   2.386  21.603  0.00  0.00    +0.039 C 
ENDROOT
BRANCH   8  12
ATOM     12  C   UNL     1      -1.882   5.116  25.395  0.00  0.00    -0.013 C 
ATOM     17  C   UNL     1      -0.492   4.712  24.915  0.00  0.00    +0.007 C 
ATOM     18  C   UNL     1      -2.594   5.959  24.343  0.00  0.00    +0.007 C 
ENDBRANCH   8  12
BRANCH   9  15
ATOM     15  C   UNL     1      -5.112   3.014  25.695  0.00  0.00    +0.089 C 
BRANCH  15   4
ATOM      4  N   UNL     1      -6.027   2.418  24.737  0.00  0.00    -0.311 NA
ATOM     38  H   UNL     1      -5.584   2.410  23.819  0.00  0.00    +0.122 HD
BRANCH   4  21
ATOM     21  C   UNL     1      -6.366   1.051  25.117  0.00  0.00    +0.116 C 
BRANCH  21  24
ATOM     24  C   UNL     1      -5.167   0.143  25.071  0.00  0.00    -0.033 A 
ATOM     27  C   UNL     1      -4.353   0.006  26.195  0.00  0.00    +0.007 A 
ATOM     28  C   UNL     1      -4.871  -0.564  23.905  0.00  0.00    +0.007 A 
ATOM     31  C   UNL     1      -3.242  -0.836  26.153  0.00  0.00    +0.023 A 
ATOM     32  C   UNL     1      -3.760  -1.406  23.863  0.00  0.00    +0.023 A 
ATOM     33  C   UNL     1      -2.946  -1.542  24.987  0.00  0.00    +0.033 A 
BRANCH  33   7
ATOM      3  O   UNL     1      -0.236  -1.266  26.270  0.00  0.00    -0.276 OA
ATOM      7  N   UNL     1      -1.834  -2.383  24.944  0.00  0.00    -0.286 N 
ATOM     35  C   UNL     1      -0.589  -2.204  25.563  0.00  0.00    +0.214 C 
ATOM     37  C   UNL     1       0.351  -3.347  25.271  0.00  0.00    +0.109 C 
ATOM     40  H   UNL     1      -1.950  -3.231  24.393  0.00  0.00    +0.155 HD
ENDBRANCH  33   7
ENDBRANCH  21  24
ENDBRANCH   4  21
ENDBRANCH  15   4
ENDBRANCH   9  15
BRANCH  11  16
ATOM     16  C   UNL     1      -1.227   0.902  23.730  0.00  0.00    +0.082 C 
BRANCH  16  20
ATOM      5  N   UNL     1       0.917  -0.386  23.687  0.00  0.00    -0.342 N 
ATOM      6  N   UNL     1       1.086   1.793  23.285  0.00  0.00    -0.232 NA
ATOM     20  C   UNL     1       0.262   0.807  23.560  0.00  0.00    +0.109 A 
ATOM     22  C   UNL     1       2.253  -0.155  23.479  0.00  0.00    +0.067 A 
ATOM     23  C   UNL     1       2.332   1.212  23.231  0.00  0.00    +0.089 A 
ATOM     25  C   UNL     1       3.364  -0.998  23.488  0.00  0.00    +0.042 A 
ATOM     26  C   UNL     1       3.588   1.790  22.974  0.00  0.00    +0.030 A 
ATOM     29  C   UNL     1       4.605  -0.406  23.230  0.00  0.00    +0.061 A 
ATOM     30  C   UNL     1       4.717   0.962  22.977  0.00  0.00    +0.017 A 
ATOM     39  H   UNL     1       0.495  -1.282  23.894  0.00  0.00    +0.167 HD
BRANCH  29  34
ATOM      2  O   UNL     1       5.915  -2.302  23.843  0.00  0.00    -0.245 OA
ATOM     34  C   UNL     1       5.801  -1.235  23.226  0.00  0.00    +0.339 C 
BRANCH  34   1
ATOM      1  O   UNL     1       6.788  -0.690  22.451  0.00  0.00    -0.464 OA
ATOM     36  C   UNL     1       8.033  -0.403  23.097  0.00  0.00    +0.280 C 
ENDBRANCH  34   1
ENDBRANCH  29  34
ENDBRANCH  16  20
ENDBRANCH  11  16
TORSDOF 10
ENDMDL
MODEL 2
REMARK VINA RESULT:       3.7      0.899      1.268
REMARK  Name = 71693193
REMARK  15 active torsions:
REMARK  status: ('A' for Active; 'I' for Inactive)
REMARK    1  A    between atoms: O_1  and  C_34
REMARK    2  A    between atoms: O_1  and  C_36
REMARK    3  A    between atoms: N_4  and  C_15
REMARK    4  A    between atoms: N_4  and  C_21
REMARK    5  A    between atoms: N_7  and  C_33
REMARK    6  A    between atoms: C_8  and  C_12
REMARK    7  A    between atoms: C_9  and  C_15
REMARK    8  A    between atoms: C_11  and  C_16
REMARK    9  A    between atoms: C_12  and  C_17
REMARK   10  A    between atoms: C_12  and  C_18
REMARK   11  A    between atoms: C_13  and  C_19
REMARK   12  A    between atoms: C_16  and  C_20
REMARK   13  A    between atoms: C_21  and  C_24
REMARK   14  A    between atoms: C_29  and  C_34
REMARK   15  A    between atoms: C_35  and  C_37
REMARK                            x       y       z     vdW  Elec       q    Type
REMARK                         _______ _______ _______ _____ _____    ______ ____
ROOT
ATOM      8  C   UNL     1      -2.858   3.833  25.874  0.00  0.00    +0.000 C 
ATOM      9  C   UNL     1      -4.218   4.078  25.180  0.00  0.00    +0.029 C 
ATOM     10  C   UNL     1      -2.250   2.502  25.411  0.00  0.00    +0.012 C 
ATOM     11  C   UNL     1      -2.069   2.412  23.880  0.00  0.00    +0.022 C 
ATOM     13  C   UNL     1      -3.228   3.024  23.106  0.00  0.00    -0.073 C 
ATOM     14  C   UNL     1      -4.184   3.755  23.707  0.00  0.00    -0.023 C 
ATOM     19  C   UNL     1      -3.244   2.835  21.615  0.00  0.00    +0.039 C 
ENDROOT
BRANCH   8  12
ATOM     12  C   UNL     1      -1.890   4.999  25.633  0.00  0.00    -0.013 C 
ATOM     17  C   UNL     1      -0.585   4.491  25.026  0.00  0.00    +0.007 C 
ATOM     18  C   UNL     1      -2.534   6.048  24.732  0.00  0.00    +0.007 C 
ENDBRANCH   8  12
BRANCH   9  15
ATOM     15  C   UNL     1      -5.344   3.279  25.845  0.00  0.00    +0.089 C 
BRANCH  15   4
ATOM      4  N   UNL     1      -6.131   2.575  24.847  0.00  0.00    -0.311 NA
ATOM     38  H   UNL     1      -5.590   2.513  23.984  0.00  0.00    +0.122 HD
BRANCH   4  21
ATOM     21  C   UNL     1      -6.467   1.229  25.298  0.00  0.00    +0.116 C 
BRANCH  21  24
ATOM     24  C   UNL     1      -5.289   0.296  25.204  0.00  0.00    -0.033 A 
ATOM     27  C   UNL     1      -4.485   0.073  26.321  0.00  0.00    +0.007 A 
ATOM     28  C   UNL     1      -5.003  -0.347  23.999  0.00  0.00    +0.007 A 
ATOM     31  C   UNL     1      -3.395  -0.792  26.235  0.00  0.00    +0.023 A 
ATOM     32  C   UNL     1      -3.912  -1.211  23.912  0.00  0.00    +0.023 A 
ATOM     33  C   UNL     1      -3.108  -1.434  25.030  0.00  0.00    +0.033 A 
BRANCH  33   7
ATOM      3  O   UNL     1      -0.258  -1.079  25.933  0.00  0.00    -0.276 OA
ATOM      7  N   UNL     1      -2.016  -2.298  24.943  0.00  0.00    -0.286 N 
ATOM     35  C   UNL     1      -0.703  -2.080  25.380  0.00  0.00    +0.214 C 
ATOM     37  C   UNL     1       0.184  -3.267  25.100  0.00  0.00    +0.109 C 
ATOM     40  H   UNL     1      -2.207  -3.198  24.505  0.00  0.00    +0.155 HD
ENDBRANCH  33   7
ENDBRANCH  21  24
ENDBRANCH   4  21
ENDBRANCH  15   4
ENDBRANCH   9  15
BRANCH  11  16
ATOM     16  C   UNL     1      -1.809   0.948  23.503  0.00  0.00    +0.082 C 
BRANCH  16  20
ATOM      5  N   UNL     1       0.623   1.154  24.053  0.00  0.00    -0.342 N 
ATOM      6  N   UNL     1       0.141   0.074  22.170  0.00  0.00    -0.232 NA
ATOM     20  C   UNL     1      -0.356   0.707  23.210  0.00  0.00    +0.109 A 
ATOM     22  C   UNL     1       1.833   0.785  23.522  0.00  0.00    +0.067 A 
ATOM     23  C   UNL     1       1.505   0.114  22.348  0.00  0.00    +0.089 A 
ATOM     25  C   UNL     1       3.145   0.976  23.955  0.00  0.00    +0.042 A 
ATOM     26  C   UNL     1       2.535  -0.405  21.544  0.00  0.00    +0.030 A 
ATOM     29  C   UNL     1       4.158   0.453  23.144  0.00  0.00    +0.061 A 
ATOM     30  C   UNL     1       3.861  -0.226  21.960  0.00  0.00    +0.017 A 
ATOM     39  H   UNL     1       0.484   1.663  24.915  0.00  0.00    +0.167 HD
BRANCH  29  34
ATOM      2  O   UNL     1       6.034   1.683  23.953  0.00  0.00    -0.245 OA
ATOM     34  C   UNL     1       5.547   0.621  23.543  0.00  0.00    +0.339 C 
BRANCH  34   1
ATOM      1  O   UNL     1       6.252  -0.543  23.411  0.00  0.00    -0.464 OA
ATOM     36  C   UNL     1       5.802  -1.663  24.181  0.00  0.00    +0.280 C 
ENDBRANCH  34   1
ENDBRANCH  29  34
ENDBRANCH  16  20
ENDBRANCH  11  16
TORSDOF 10
ENDMDL
MODEL 3
REMARK VINA RESULT:       6.3      1.622      4.587
REMARK  Name = 71693193
REMARK  15 active torsions:
REMARK  status: ('A' for Active; 'I' for Inactive)
REMARK    1  A    between atoms: O_1  and  C_34
REMARK    2  A    between atoms: O_1  and  C_36
REMARK    3  A    between atoms: N_4  and  C_15
REMARK    4  A    between atoms: N_4  and  C_21
REMARK    5  A    between atoms: N_7  and  C_33
REMARK    6  A    between atoms: C_8  and  C_12
REMARK    7  A    between atoms: C_9  and  C_15
REMARK    8  A    between atoms: C_11  and  C_16
REMARK    9  A    between atoms: C_12  and  C_17
REMARK   10  A    between atoms: C_12  and  C_18
REMARK   11  A    between atoms: C_13  and  C_19
REMARK   12  A    between atoms: C_16  and  C_20
REMARK   13  A    between atoms: C_21  and  C_24
REMARK   14  A    between atoms: C_29  and  C_34
REMARK   15  A    between atoms: C_35  and  C_37
REMARK                            x       y       z     vdW  Elec       q    Type
REMARK                         _______ _______ _______ _____ _____    ______ ____
ROOT
ATOM      8  C   UNL     1      -4.297  -1.155  23.991  0.00  0.00    +0.000 C 
ATOM      9  C   UNL     1      -4.651  -0.313  25.238  0.00  0.00    +0.029 C 
ATOM     10  C   UNL     1      -3.176  -0.481  23.187  0.00  0.00    +0.012 C 
ATOM     11  C   UNL     1      -1.898  -0.227  24.016  0.00  0.00    +0.022 C 
ATOM     13  C   UNL     1      -2.190   0.231  25.437  0.00  0.00    -0.073 C 
ATOM     14  C   UNL     1      -3.429   0.195  25.961  0.00  0.00    -0.023 C 
ATOM     19  C   UNL     1      -1.025   0.677  26.277  0.00  0.00    +0.039 C 
ENDROOT
BRANCH   8  12
ATOM     12  C   UNL     1      -3.917  -2.591  24.375  0.00  0.00    -0.013 C 
ATOM     17  C   UNL     1      -4.634  -3.591  23.472  0.00  0.00    +0.007 C 
ATOM     18  C   UNL     1      -2.406  -2.781  24.299  0.00  0.00    +0.007 C 
ENDBRANCH   8  12
BRANCH   9  15
ATOM     15  C   UNL     1      -5.555   0.872  24.883  0.00  0.00    +0.089 C 
BRANCH  15   4
ATOM      4  N   UNL     1      -6.381   1.246  26.018  0.00  0.00    -0.311 NA
ATOM     38  H   UNL     1      -6.080   0.713  26.834  0.00  0.00    +0.122 HD
BRANCH   4  21
ATOM     21  C   UNL     1      -6.261   2.670  26.307  0.00  0.00    +0.116 C 
BRANCH  21  24
ATOM     24  C   UNL     1      -5.001   3.256  25.730  0.00  0.00    -0.033 A 
ATOM     27  C   UNL     1      -4.830   3.317  24.347  0.00  0.00    +0.007 A 
ATOM     28  C   UNL     1      -4.003   3.739  26.577  0.00  0.00    +0.007 A 
ATOM     31  C   UNL     1      -3.663   3.860  23.811  0.00  0.00    +0.023 A 
ATOM     32  C   UNL     1      -2.836   4.281  26.042  0.00  0.00    +0.023 A 
ATOM     33  C   UNL     1      -2.665   4.342  24.659  0.00  0.00    +0.033 A 
BRANCH  33   7
ATOM      3  O   UNL     1       0.162   3.305  24.685  0.00  0.00    -0.276 OA
ATOM      7  N   UNL     1      -1.497   4.884  24.123  0.00  0.00    -0.286 N 
ATOM     35  C   UNL     1      -0.199   4.357  24.167  0.00  0.00    +0.214 C 
ATOM     37  C   UNL     1       0.792   5.252  23.467  0.00  0.00    +0.109 C 
ATOM     40  H   UNL     1      -1.611   5.775  23.643  0.00  0.00    +0.155 HD
ENDBRANCH  33   7
ENDBRANCH  21  24
ENDBRANCH   4  21
ENDBRANCH  15   4
ENDBRANCH   9  15
BRANCH  11  16
ATOM     16  C   UNL     1      -1.003   0.753  23.246  0.00  0.00    +0.082 C 
BRANCH  16  20
ATOM      5  N   UNL     1       1.443   1.277  23.230  0.00  0.00    -0.342 N 
ATOM      6  N   UNL     1       0.912  -0.868  23.468  0.00  0.00    -0.232 NA
ATOM     20  C   UNL     1       0.442   0.350  23.319  0.00  0.00    +0.109 A 
ATOM     22  C   UNL     1       2.639   0.612  23.329  0.00  0.00    +0.067 A 
ATOM     23  C   UNL     1       2.280  -0.724  23.476  0.00  0.00    +0.089 A 
ATOM     25  C   UNL     1       3.963   1.052  23.302  0.00  0.00    +0.042 A 
ATOM     26  C   UNL     1       3.289  -1.695  23.606  0.00  0.00    +0.030 A 
ATOM     29  C   UNL     1       4.953   0.073  23.432  0.00  0.00    +0.061 A 
ATOM     30  C   UNL     1       4.625  -1.276  23.582  0.00  0.00    +0.017 A 
ATOM     39  H   UNL     1       1.327   2.275  23.115  0.00  0.00    +0.167 HD
BRANCH  29  34
ATOM      2  O   UNL     1       6.802   1.481  23.970  0.00  0.00    -0.245 OA
ATOM     34  C   UNL     1       6.353   0.471  23.411  0.00  0.00    +0.339 C 
BRANCH  34   1
ATOM      1  O   UNL     1       7.116  -0.411  22.697  0.00  0.00    -0.464 OA
ATOM     36  C   UNL     1       8.530  -0.371  22.918  0.00  0.00    +0.280 C 
ENDBRANCH  34   1
ENDBRANCH  29  34
ENDBRANCH  16  20
ENDBRANCH  11  16
TORSDOF 10
ENDMDL
MODEL 4
REMARK VINA RESULT:       6.5      1.973      4.409
REMARK  Name = 71693193
REMARK  15 active torsions:
REMARK  status: ('A' for Active; 'I' for Inactive)
REMARK    1  A    between atoms: O_1  and  C_34
REMARK    2  A    between atoms: O_1  and  C_36
REMARK    3  A    between atoms: N_4  and  C_15
REMARK    4  A    between atoms: N_4  and  C_21
REMARK    5  A    between atoms: N_7  and  C_33
REMARK    6  A    between atoms: C_8  and  C_12
REMARK    7  A    between atoms: C_9  and  C_15
REMARK    8  A    between atoms: C_11  and  C_16
REMARK    9  A    between atoms: C_12  and  C_17
REMARK   10  A    between atoms: C_12  and  C_18
REMARK   11  A    between atoms: C_13  and  C_19
REMARK   12  A    between atoms: C_16  and  C_20
REMARK   13  A    between atoms: C_21  and  C_24
REMARK   14  A    between atoms: C_29  and  C_34
REMARK   15  A    between atoms: C_35  and  C_37
REMARK                            x       y       z     vdW  Elec       q    Type
REMARK                         _______ _______ _______ _____ _____    ______ ____
ROOT
ATOM      8  C   UNL     1      -4.151  -0.757  23.763  0.00  0.00    +0.000 C 
ATOM      9  C   UNL     1      -4.194  -0.169  25.192  0.00  0.00    +0.029 C 
ATOM     10  C   UNL     1      -3.024  -0.107  22.948  0.00  0.00    +0.012 C 
ATOM     11  C   UNL     1      -1.634  -0.251  23.604  0.00  0.00    +0.022 C 
ATOM     13  C   UNL     1      -1.668  -0.081  25.116  0.00  0.00    -0.073 C 
ATOM     14  C   UNL     1      -2.822  -0.035  25.805  0.00  0.00    -0.023 C 
ATOM     19  C   UNL     1      -0.351  -0.023  25.839  0.00  0.00    +0.039 C 
ENDROOT
BRANCH   8  12
ATOM     12  C   UNL     1      -4.006  -2.284  23.791  0.00  0.00    -0.013 C 
ATOM     17  C   UNL     1      -3.647  -2.759  25.195  0.00  0.00    +0.007 C 
ATOM     18  C   UNL     1      -5.290  -2.949  23.306  0.00  0.00    +0.007 C 
ENDBRANCH   8  12
BRANCH   9  15
ATOM     15  C   UNL     1      -4.894   1.194  25.223  0.00  0.00    +0.089 C 
BRANCH  15   4
ATOM      4  N   UNL     1      -4.514   1.992  24.070  0.00  0.00    -0.311 NA
ATOM     38  H   UNL     1      -5.324   2.095  23.458  0.00  0.00    +0.122 HD
BRANCH   4  21
ATOM     21  C   UNL     1      -4.051   3.313  24.477  0.00  0.00    +0.116 C 
BRANCH  21  24
ATOM     24  C   UNL     1      -2.705   3.255  25.148  0.00  0.00    -0.033 A 
ATOM     27  C   UNL     1      -2.622   3.147  26.536  0.00  0.00    +0.007 A 
ATOM     28  C   UNL     1      -1.540   3.307  24.382  0.00  0.00    +0.007 A 
ATOM     31  C   UNL     1      -1.375   3.093  27.158  0.00  0.00    +0.023 A 
ATOM     32  C   UNL     1      -0.293   3.253  25.004  0.00  0.00    +0.023 A 
ATOM     33  C   UNL     1      -0.210   3.146  26.392  0.00  0.00    +0.033 A 
BRANCH  33   7
ATOM      3  O   UNL     1       0.530   2.471  29.231  0.00  0.00    -0.276 OA
ATOM      7  N   UNL     1       1.037   3.092  27.014  0.00  0.00    -0.286 N 
ATOM     35  C   UNL     1       1.326   2.772  28.348  0.00  0.00    +0.214 C 
ATOM     37  C   UNL     1       2.806   2.827  28.628  0.00  0.00    +0.109 C 
ATOM     40  H   UNL     1       1.831   3.315  26.417  0.00  0.00    +0.155 HD
ENDBRANCH  33   7
ENDBRANCH  21  24
ENDBRANCH   4  21
ENDBRANCH  15   4
ENDBRANCH   9  15
BRANCH  11  16
ATOM     16  C   UNL     1      -0.666   0.722  22.917  0.00  0.00    +0.082 C 
BRANCH  16  20
ATOM      5  N   UNL     1       1.791   1.186  22.989  0.00  0.00    -0.342 N 
ATOM      6  N   UNL     1       1.190  -0.921  23.361  0.00  0.00    -0.232 NA
ATOM     20  C   UNL     1       0.762   0.293  23.096  0.00  0.00    +0.109 A 
ATOM     22  C   UNL     1       2.962   0.503  23.200  0.00  0.00    +0.067 A 
ATOM     23  C   UNL     1       2.560  -0.809  23.429  0.00  0.00    +0.089 A 
ATOM     25  C   UNL     1       4.297   0.909  23.208  0.00  0.00    +0.042 A 
ATOM     26  C   UNL     1       3.535  -1.789  23.684  0.00  0.00    +0.030 A 
ATOM     29  C   UNL     1       5.253  -0.079  23.464  0.00  0.00    +0.061 A 
ATOM     30  C   UNL     1       4.881  -1.405  23.699  0.00  0.00    +0.017 A 
ATOM     39  H   UNL     1       1.708   2.174  22.792  0.00  0.00    +0.167 HD
BRANCH  29  34
ATOM      2  O   UNL     1       7.130   1.237  24.121  0.00  0.00    -0.245 OA
ATOM     34  C   UNL     1       6.662   0.283  23.485  0.00  0.00    +0.339 C 
BRANCH  34   1
ATOM      1  O   UNL     1       7.411  -0.563  22.715  0.00  0.00    -0.464 OA
ATOM     36  C   UNL     1       8.833  -0.426  22.798  0.00  0.00    +0.280 C 
ENDBRANCH  34   1
ENDBRANCH  29  34
ENDBRANCH  16  20
ENDBRANCH  11  16
TORSDOF 10
ENDMDL
