MODEL 1
REMARK VINA RESULT:       1.6      0.000      0.000
REMARK  Name = 75536398
REMARK  10 active torsions:
REMARK  status: ('A' for Active; 'I' for Inactive)
REMARK    1  A    between atoms: O_2  and  C_11
REMARK    2  A    between atoms: O_5  and  C_31
REMARK    3  A    between atoms: O_5  and  C_32
REMARK    4  A    between atoms: N_6  and  C_10
REMARK    5  A    between atoms: N_6  and  C_13
REMARK    6  A    between atoms: C_9  and  C_13
REMARK    7  A    between atoms: C_12  and  C_20
REMARK    8  A    between atoms: C_20  and  C_21
REMARK    9  A    between atoms: C_22  and  C_24
REMARK   10  A    between atoms: C_25  and  C_26
REMARK                            x       y       z     vdW  Elec       q    Type
REMARK                         _______ _______ _______ _____ _____    ______ ____
ROOT
ATOM      1  O   UNL     1      -3.779   0.424  23.525  0.00  0.00    -0.369 OA
ATOM      9  C   UNL     1      -4.723  -0.235  24.379  0.00  0.00    +0.161 C 
ATOM     11  C   UNL     1      -4.137  -1.521  24.973  0.00  0.00    +0.145 C 
ATOM     12  C   UNL     1      -2.520   0.727  24.129  0.00  0.00    +0.125 C 
ATOM     14  C   UNL     1      -2.760  -1.300  25.593  0.00  0.00    +0.036 C 
ATOM     15  C   UNL     1      -1.843  -0.548  24.632  0.00  0.00    +0.034 C 
ENDROOT
BRANCH  11   2
ATOM      2  O   UNL     1      -3.995  -2.488  23.929  0.00  0.00    -0.389 OA
ATOM     34  H   UNL     1      -3.141  -2.934  24.056  0.00  0.00    +0.210 HD
ENDBRANCH  11   2
BRANCH   9  13
ATOM     13  C   UNL     1      -5.264   0.721  25.441  0.00  0.00    +0.115 C 
BRANCH  13   6
ATOM      6  N   UNL     1      -5.796   1.933  24.836  0.00  0.00    -0.311 NA
ATOM     33  H   UNL     1      -6.720   2.117  25.229  0.00  0.00    +0.122 HD
BRANCH   6  10
ATOM      3  O   UNL     1      -0.426   4.728  23.763  0.00  0.00    -0.276 OA
ATOM      7  N   UNL     1      -2.274   4.255  25.089  0.00  0.00    -0.302 N 
ATOM     10  C   UNL     1      -4.916   3.070  25.093  0.00  0.00    +0.057 C 
ATOM     16  C   UNL     1      -3.866   2.696  26.147  0.00  0.00    +0.037 C 
ATOM     17  C   UNL     1      -4.234   3.512  23.791  0.00  0.00    +0.037 C 
ATOM     18  C   UNL     1      -2.875   3.840  26.363  0.00  0.00    +0.109 C 
ATOM     19  C   UNL     1      -3.237   4.638  24.054  0.00  0.00    +0.109 C 
ATOM     22  C   UNL     1      -0.907   4.341  24.831  0.00  0.00    +0.212 C 
ATOM     24  C   UNL     1       0.018   3.925  25.946  0.00  0.00    +0.109 C 
ENDBRANCH   6  10
ENDBRANCH  13   6
ENDBRANCH   9  13
BRANCH  12  20
ATOM     20  C   UNL     1      -1.660   1.418  23.078  0.00  0.00    +0.090 C 
BRANCH  20  21
ATOM      4  O   UNL     1       1.186  -0.647  22.292  0.00  0.00    -0.354 OA
ATOM      8  N   UNL     1      -0.160  -0.318  22.189  0.00  0.00    -0.083 NA
ATOM     21  C   UNL     1      -0.308   0.771  22.949  0.00  0.00    +0.087 A 
ATOM     23  C   UNL     1       0.898   1.171  23.550  0.00  0.00    +0.076 A 
ATOM     25  C   UNL     1       1.805   0.246  23.104  0.00  0.00    +0.167 A 
BRANCH  25  26
ATOM     26  C   UNL     1       3.210   0.035  23.306  0.00  0.00    +0.020 A 
ATOM     27  C   UNL     1       4.110   1.079  23.090  0.00  0.00    +0.015 A 
ATOM     28  C   UNL     1       3.675  -1.213  23.719  0.00  0.00    +0.015 A 
ATOM     29  C   UNL     1       5.475   0.874  23.286  0.00  0.00    +0.046 A 
ATOM     30  C   UNL     1       5.041  -1.418  23.915  0.00  0.00    +0.046 A 
ATOM     31  C   UNL     1       5.940  -0.375  23.699  0.00  0.00    +0.120 A 
BRANCH  31   5
ATOM      5  O   UNL     1       7.272  -0.575  23.894  0.00  0.00    -0.495 OA
ATOM     32  C   UNL     1       8.101  -0.609  22.732  0.00  0.00    +0.277 C 
ENDBRANCH  31   5
ENDBRANCH  25  26
ENDBRANCH  20  21
ENDBRANCH  12  20
TORSDOF 8
ENDMDL
MODEL 2
REMARK VINA RESULT:       2.6      2.100      3.273
REMARK  Name = 75536398
REMARK  10 active torsions:
REMARK  status: ('A' for Active; 'I' for Inactive)
REMARK    1  A    between atoms: O_2  and  C_11
REMARK    2  A    between atoms: O_5  and  C_31
REMARK    3  A    between atoms: O_5  and  C_32
REMARK    4  A    between atoms: N_6  and  C_10
REMARK    5  A    between atoms: N_6  and  C_13
REMARK    6  A    between atoms: C_9  and  C_13
REMARK    7  A    between atoms: C_12  and  C_20
REMARK    8  A    between atoms: C_20  and  C_21
REMARK    9  A    between atoms: C_22  and  C_24
REMARK   10  A    between atoms: C_25  and  C_26
REMARK                            x       y       z     vdW  Elec       q    Type
REMARK                         _______ _______ _______ _____ _____    ______ ____
ROOT
ATOM      1  O   UNL     1      -4.372   2.003  23.830  0.00  0.00    -0.369 OA
ATOM      9  C   UNL     1      -4.917   3.089  24.590  0.00  0.00    +0.161 C 
ATOM     11  C   UNL     1      -6.083   2.626  25.472  0.00  0.00    +0.145 C 
ATOM     12  C   UNL     1      -3.949   0.875  24.599  0.00  0.00    +0.125 C 
ATOM     14  C   UNL     1      -5.735   1.384  26.290  0.00  0.00    +0.036 C 
ATOM     15  C   UNL     1      -5.115   0.305  25.407  0.00  0.00    +0.034 C 
ENDROOT
BRANCH  11   2
ATOM      2  O   UNL     1      -7.193   2.297  24.632  0.00  0.00    -0.389 OA
ATOM     34  H   UNL     1      -7.163   1.340  24.467  0.00  0.00    +0.210 HD
ENDBRANCH  11   2
BRANCH   9  13
ATOM     13  C   UNL     1      -3.825   3.812  25.376  0.00  0.00    +0.115 C 
BRANCH  13   6
ATOM      6  N   UNL     1      -2.658   4.066  24.544  0.00  0.00    -0.311 NA
ATOM     33  H   UNL     1      -2.402   5.051  24.628  0.00  0.00    +0.122 HD
BRANCH   6  10
ATOM      3  O   UNL     1       0.832   1.887  29.114  0.00  0.00    -0.276 OA
ATOM      7  N   UNL     1       0.486   2.513  26.903  0.00  0.00    -0.302 N 
ATOM     10  C   UNL     1      -1.534   3.229  24.957  0.00  0.00    +0.057 C 
ATOM     16  C   UNL     1      -0.285   4.092  25.172  0.00  0.00    +0.037 C 
ATOM     17  C   UNL     1      -1.889   2.469  26.243  0.00  0.00    +0.037 C 
ATOM     18  C   UNL     1       0.879   3.251  25.696  0.00  0.00    +0.109 C 
ATOM     19  C   UNL     1      -0.693   1.661  26.744  0.00  0.00    +0.109 C 
ATOM     22  C   UNL     1       1.161   2.544  28.123  0.00  0.00    +0.212 C 
ATOM     24  C   UNL     1       2.364   3.449  28.207  0.00  0.00    +0.109 C 
ENDBRANCH   6  10
ENDBRANCH  13   6
ENDBRANCH   9  13
BRANCH  12  20
ATOM     20  C   UNL     1      -3.404  -0.165  23.627  0.00  0.00    +0.090 C 
BRANCH  20  21
ATOM      4  O   UNL     1      -0.109  -1.207  24.650  0.00  0.00    -0.354 OA
ATOM      8  N   UNL     1      -1.494  -1.247  24.741  0.00  0.00    -0.083 NA
ATOM     21  C   UNL     1      -1.927  -0.385  23.816  0.00  0.00    +0.087 A 
ATOM     23  C   UNL     1      -0.870   0.223  23.118  0.00  0.00    +0.076 A 
ATOM     25  C   UNL     1       0.251  -0.328  23.680  0.00  0.00    +0.167 A 
BRANCH  25  26
ATOM     26  C   UNL     1       1.662  -0.179  23.467  0.00  0.00    +0.020 A 
ATOM     27  C   UNL     1       2.178   1.046  23.043  0.00  0.00    +0.015 A 
ATOM     28  C   UNL     1       2.517  -1.258  23.685  0.00  0.00    +0.015 A 
ATOM     29  C   UNL     1       3.549   1.190  22.836  0.00  0.00    +0.046 A 
ATOM     30  C   UNL     1       3.889  -1.114  23.478  0.00  0.00    +0.046 A 
ATOM     31  C   UNL     1       4.405   0.110  23.053  0.00  0.00    +0.120 A 
BRANCH  31   5
ATOM      5  O   UNL     1       5.744   0.251  22.855  0.00  0.00    -0.495 OA
ATOM     32  C   UNL     1       6.610  -0.381  23.798  0.00  0.00    +0.277 C 
ENDBRANCH  31   5
ENDBRANCH  25  26
ENDBRANCH  20  21
ENDBRANCH  12  20
TORSDOF 8
ENDMDL
MODEL 3
REMARK VINA RESULT:       3.5      1.715      4.455
REMARK  Name = 75536398
REMARK  10 active torsions:
REMARK  status: ('A' for Active; 'I' for Inactive)
REMARK    1  A    between atoms: O_2  and  C_11
REMARK    2  A    between atoms: O_5  and  C_31
REMARK    3  A    between atoms: O_5  and  C_32
REMARK    4  A    between atoms: N_6  and  C_10
REMARK    5  A    between atoms: N_6  and  C_13
REMARK    6  A    between atoms: C_9  and  C_13
REMARK    7  A    between atoms: C_12  and  C_20
REMARK    8  A    between atoms: C_20  and  C_21
REMARK    9  A    between atoms: C_22  and  C_24
REMARK   10  A    between atoms: C_25  and  C_26
REMARK                            x       y       z     vdW  Elec       q    Type
REMARK                         _______ _______ _______ _____ _____    ______ ____
ROOT
ATOM      1  O   UNL     1      -1.047   2.736  24.169  0.00  0.00    -0.369 OA
ATOM      9  C   UNL     1      -1.156   3.386  25.441  0.00  0.00    +0.161 C 
ATOM     11  C   UNL     1      -2.379   4.311  25.494  0.00  0.00    +0.145 C 
ATOM     12  C   UNL     1      -2.202   1.998  23.762  0.00  0.00    +0.125 C 
ATOM     14  C   UNL     1      -3.653   3.616  25.020  0.00  0.00    +0.036 C 
ATOM     15  C   UNL     1      -3.425   2.911  23.687  0.00  0.00    +0.034 C 
ENDROOT
BRANCH  11   2
ATOM      2  O   UNL     1      -2.147   5.430  24.636  0.00  0.00    -0.389 OA
ATOM     34  H   UNL     1      -1.328   5.258  24.142  0.00  0.00    +0.210 HD
ENDBRANCH  11   2
BRANCH   9  13
ATOM     13  C   UNL     1      -1.126   2.371  26.582  0.00  0.00    +0.115 C 
BRANCH  13   6
ATOM      6  N   UNL     1      -0.314   1.213  26.235  0.00  0.00    -0.311 NA
ATOM     33  H   UNL     1       0.479   1.164  26.875  0.00  0.00    +0.122 HD
BRANCH   6  10
ATOM      3  O   UNL     1      -2.736  -3.661  23.375  0.00  0.00    -0.276 OA
ATOM      7  N   UNL     1      -2.703  -2.072  25.070  0.00  0.00    -0.302 N 
ATOM     10  C   UNL     1      -1.098  -0.016  26.326  0.00  0.00    +0.057 C 
ATOM     16  C   UNL     1      -2.545   0.249  25.890  0.00  0.00    +0.037 C 
ATOM     17  C   UNL     1      -0.466  -1.109  25.453  0.00  0.00    +0.037 C 
ATOM     18  C   UNL     1      -3.361  -1.043  25.886  0.00  0.00    +0.109 C 
ATOM     19  C   UNL     1      -1.324  -2.373  25.458  0.00  0.00    +0.109 C 
ATOM     22  C   UNL     1      -3.299  -2.775  24.023  0.00  0.00    +0.212 C 
ATOM     24  C   UNL     1      -4.720  -2.404  23.683  0.00  0.00    +0.109 C 
ENDBRANCH   6  10
ENDBRANCH  13   6
ENDBRANCH   9  13
BRANCH  12  20
ATOM     20  C   UNL     1      -1.898   1.384  22.400  0.00  0.00    +0.090 C 
BRANCH  20  21
ATOM      4  O   UNL     1       1.070  -0.546  21.727  0.00  0.00    -0.354 OA
ATOM      8  N   UNL     1      -0.263  -0.224  21.506  0.00  0.00    -0.083 NA
ATOM     21  C   UNL     1      -0.524   0.772  22.358  0.00  0.00    +0.087 A 
ATOM     23  C   UNL     1       0.596   1.116  23.135  0.00  0.00    +0.076 A 
ATOM     25  C   UNL     1       1.570   0.258  22.698  0.00  0.00    +0.167 A 
BRANCH  25  26
ATOM     26  C   UNL     1       2.947   0.043  23.037  0.00  0.00    +0.020 A 
ATOM     27  C   UNL     1       3.873   1.075  22.882  0.00  0.00    +0.015 A 
ATOM     28  C   UNL     1       3.361  -1.198  23.520  0.00  0.00    +0.015 A 
ATOM     29  C   UNL     1       5.212   0.865  23.212  0.00  0.00    +0.046 A 
ATOM     30  C   UNL     1       4.700  -1.408  23.850  0.00  0.00    +0.046 A 
ATOM     31  C   UNL     1       5.625  -0.376  23.695  0.00  0.00    +0.120 A 
BRANCH  31   5
ATOM      5  O   UNL     1       6.931  -0.580  24.020  0.00  0.00    -0.495 OA
ATOM     32  C   UNL     1       7.878  -0.549  22.952  0.00  0.00    +0.277 C 
ENDBRANCH  31   5
ENDBRANCH  25  26
ENDBRANCH  20  21
ENDBRANCH  12  20
TORSDOF 8
ENDMDL
MODEL 4
REMARK VINA RESULT:       3.9      2.127      4.275
REMARK  Name = 75536398
REMARK  10 active torsions:
REMARK  status: ('A' for Active; 'I' for Inactive)
REMARK    1  A    between atoms: O_2  and  C_11
REMARK    2  A    between atoms: O_5  and  C_31
REMARK    3  A    between atoms: O_5  and  C_32
REMARK    4  A    between atoms: N_6  and  C_10
REMARK    5  A    between atoms: N_6  and  C_13
REMARK    6  A    between atoms: C_9  and  C_13
REMARK    7  A    between atoms: C_12  and  C_20
REMARK    8  A    between atoms: C_20  and  C_21
REMARK    9  A    between atoms: C_22  and  C_24
REMARK   10  A    between atoms: C_25  and  C_26
REMARK                            x       y       z     vdW  Elec       q    Type
REMARK                         _______ _______ _______ _____ _____    ______ ____
ROOT
ATOM      1  O   UNL     1      -4.271   3.265  26.534  0.00  0.00    -0.369 OA
ATOM      9  C   UNL     1      -5.677   3.044  26.371  0.00  0.00    +0.161 C 
ATOM     11  C   UNL     1      -6.254   3.916  25.249  0.00  0.00    +0.145 C 
ATOM     12  C   UNL     1      -3.485   3.080  25.356  0.00  0.00    +0.125 C 
ATOM     14  C   UNL     1      -5.438   3.822  23.962  0.00  0.00    +0.036 C 
ATOM     15  C   UNL     1      -3.952   4.019  24.244  0.00  0.00    +0.034 C 
ENDROOT
BRANCH  11   2
ATOM      2  O   UNL     1      -6.242   5.281  25.675  0.00  0.00    -0.389 OA
ATOM     34  H   UNL     1      -7.036   5.428  26.216  0.00  0.00    +0.210 HD
ENDBRANCH  11   2
BRANCH   9  13
ATOM     13  C   UNL     1      -5.982   1.558  26.188  0.00  0.00    +0.115 C 
BRANCH  13   6
ATOM      6  N   UNL     1      -5.496   1.075  24.904  0.00  0.00    -0.311 NA
ATOM     33  H   UNL     1      -4.833   1.753  24.527  0.00  0.00    +0.122 HD
BRANCH   6  10
ATOM      3  O   UNL     1      -0.277  -2.094  25.635  0.00  0.00    -0.276 OA
ATOM      7  N   UNL     1      -2.470  -1.875  24.898  0.00  0.00    -0.302 N 
ATOM     10  C   UNL     1      -4.843  -0.223  25.052  0.00  0.00    +0.057 C 
ATOM     16  C   UNL     1      -4.268  -0.680  23.705  0.00  0.00    +0.037 C 
ATOM     17  C   UNL     1      -3.731  -0.136  26.107  0.00  0.00    +0.037 C 
ATOM     18  C   UNL     1      -3.497  -1.991  23.855  0.00  0.00    +0.109 C 
ATOM     19  C   UNL     1      -2.972  -1.458  26.208  0.00  0.00    +0.109 C 
ATOM     22  C   UNL     1      -1.116  -2.164  24.733  0.00  0.00    +0.212 C 
ATOM     24  C   UNL     1      -0.678  -2.585  23.353  0.00  0.00    +0.109 C 
ENDBRANCH   6  10
ENDBRANCH  13   6
ENDBRANCH   9  13
BRANCH  12  20
ATOM     20  C   UNL     1      -2.032   3.356  25.725  0.00  0.00    +0.090 C 
BRANCH  20  21
ATOM      4  O   UNL     1      -0.430   1.070  23.445  0.00  0.00    -0.354 OA
ATOM      8  N   UNL     1      -1.555   1.683  23.983  0.00  0.00    -0.083 NA
ATOM     21  C   UNL     1      -1.082   2.512  24.919  0.00  0.00    +0.087 A 
ATOM     23  C   UNL     1       0.319   2.464  25.015  0.00  0.00    +0.076 A 
ATOM     25  C   UNL     1       0.679   1.543  24.067  0.00  0.00    +0.167 A 
BRANCH  25  26
ATOM     26  C   UNL     1       1.926   1.000  23.613  0.00  0.00    +0.020 A 
ATOM     27  C   UNL     1       2.933   1.851  23.157  0.00  0.00    +0.015 A 
ATOM     28  C   UNL     1       2.133  -0.379  23.627  0.00  0.00    +0.015 A 
ATOM     29  C   UNL     1       4.146   1.323  22.715  0.00  0.00    +0.046 A 
ATOM     30  C   UNL     1       3.346  -0.908  23.186  0.00  0.00    +0.046 A 
ATOM     31  C   UNL     1       4.352  -0.057  22.730  0.00  0.00    +0.120 A 
BRANCH  31   5
ATOM      5  O   UNL     1       5.537  -0.573  22.303  0.00  0.00    -0.495 OA
ATOM     32  C   UNL     1       6.669  -0.390  23.154  0.00  0.00    +0.277 C 
ENDBRANCH  31   5
ENDBRANCH  25  26
ENDBRANCH  20  21
ENDBRANCH  12  20
TORSDOF 8
ENDMDL
MODEL 5
REMARK VINA RESULT:       3.9      1.853      4.219
REMARK  Name = 75536398
REMARK  10 active torsions:
REMARK  status: ('A' for Active; 'I' for Inactive)
REMARK    1  A    between atoms: O_2  and  C_11
REMARK    2  A    between atoms: O_5  and  C_31
REMARK    3  A    between atoms: O_5  and  C_32
REMARK    4  A    between atoms: N_6  and  C_10
REMARK    5  A    between atoms: N_6  and  C_13
REMARK    6  A    between atoms: C_9  and  C_13
REMARK    7  A    between atoms: C_12  and  C_20
REMARK    8  A    between atoms: C_20  and  C_21
REMARK    9  A    between atoms: C_22  and  C_24
REMARK   10  A    between atoms: C_25  and  C_26
REMARK                            x       y       z     vdW  Elec       q    Type
REMARK                         _______ _______ _______ _____ _____    ______ ____
ROOT
ATOM      1  O   UNL     1      -3.298   2.033  24.692  0.00  0.00    -0.369 OA
ATOM      9  C   UNL     1      -4.046   2.496  25.823  0.00  0.00    +0.161 C 
ATOM     11  C   UNL     1      -4.020   4.026  25.923  0.00  0.00    +0.145 C 
ATOM     12  C   UNL     1      -3.693   2.584  23.434  0.00  0.00    +0.125 C 
ATOM     14  C   UNL     1      -4.377   4.701  24.601  0.00  0.00    +0.036 C 
ATOM     15  C   UNL     1      -3.568   4.108  23.451  0.00  0.00    +0.034 C 
ENDROOT
BRANCH  11   2
ATOM      2  O   UNL     1      -2.700   4.442  26.282  0.00  0.00    -0.389 OA
ATOM     34  H   UNL     1      -2.761   5.346  26.632  0.00  0.00    +0.210 HD
ENDBRANCH  11   2
BRANCH   9  13
ATOM     13  C   UNL     1      -5.462   1.923  25.818  0.00  0.00    +0.115 C 
BRANCH  13   6
ATOM      6  N   UNL     1      -5.643   0.977  24.726  0.00  0.00    -0.311 NA
ATOM     33  H   UNL     1      -5.235   1.372  23.878  0.00  0.00    +0.122 HD
BRANCH   6  10
ATOM      3  O   UNL     1      -0.440  -2.171  25.636  0.00  0.00    -0.276 OA
ATOM      7  N   UNL     1      -2.670  -2.013  25.000  0.00  0.00    -0.302 N 
ATOM     10  C   UNL     1      -5.003  -0.299  25.033  0.00  0.00    +0.057 C 
ATOM     16  C   UNL     1      -4.517  -0.969  23.742  0.00  0.00    +0.037 C 
ATOM     17  C   UNL     1      -3.829  -0.079  25.998  0.00  0.00    +0.037 C 
ATOM     18  C   UNL     1      -3.759  -2.261  24.047  0.00  0.00    +0.109 C 
ATOM     19  C   UNL     1      -3.086  -1.389  26.257  0.00  0.00    +0.109 C 
ATOM     22  C   UNL     1      -1.333  -2.357  24.804  0.00  0.00    +0.212 C 
ATOM     24  C   UNL     1      -0.984  -2.993  23.482  0.00  0.00    +0.109 C 
ENDBRANCH   6  10
ENDBRANCH  13   6
ENDBRANCH   9  13
BRANCH  12  20
ATOM     20  C   UNL     1      -2.793   1.978  22.364  0.00  0.00    +0.090 C 
BRANCH  20  21
ATOM      4  O   UNL     1       0.387   2.109  24.055  0.00  0.00    -0.354 OA
ATOM      8  N   UNL     1      -0.913   2.553  23.845  0.00  0.00    -0.083 NA
ATOM     21  C   UNL     1      -1.387   1.779  22.864  0.00  0.00    +0.087 A 
ATOM     23  C   UNL     1      -0.441   0.840  22.420  0.00  0.00    +0.076 A 
ATOM     25  C   UNL     1       0.656   1.090  23.201  0.00  0.00    +0.167 A 
BRANCH  25  26
ATOM     26  C   UNL     1       1.970   0.524  23.302  0.00  0.00    +0.020 A 
ATOM     27  C   UNL     1       2.126  -0.820  23.642  0.00  0.00    +0.015 A 
ATOM     28  C   UNL     1       3.092   1.317  23.061  0.00  0.00    +0.015 A 
ATOM     29  C   UNL     1       3.404  -1.370  23.740  0.00  0.00    +0.046 A 
ATOM     30  C   UNL     1       4.369   0.767  23.159  0.00  0.00    +0.046 A 
ATOM     31  C   UNL     1       4.526  -0.576  23.498  0.00  0.00    +0.120 A 
BRANCH  31   5
ATOM      5  O   UNL     1       5.772  -1.114  23.590  0.00  0.00    -0.495 OA
ATOM     32  C   UNL     1       6.859  -0.321  23.112  0.00  0.00    +0.277 C 
ENDBRANCH  31   5
ENDBRANCH  25  26
ENDBRANCH  20  21
ENDBRANCH  12  20
TORSDOF 8
ENDMDL
MODEL 6
REMARK VINA RESULT:       5.4      2.051      4.323
REMARK  Name = 75536398
REMARK  10 active torsions:
REMARK  status: ('A' for Active; 'I' for Inactive)
REMARK    1  A    between atoms: O_2  and  C_11
REMARK    2  A    between atoms: O_5  and  C_31
REMARK    3  A    between atoms: O_5  and  C_32
REMARK    4  A    between atoms: N_6  and  C_10
REMARK    5  A    between atoms: N_6  and  C_13
REMARK    6  A    between atoms: C_9  and  C_13
REMARK    7  A    between atoms: C_12  and  C_20
REMARK    8  A    between atoms: C_20  and  C_21
REMARK    9  A    between atoms: C_22  and  C_24
REMARK   10  A    between atoms: C_25  and  C_26
REMARK                            x       y       z     vdW  Elec       q    Type
REMARK                         _______ _______ _______ _____ _____    ______ ____
ROOT
ATOM      1  O   UNL     1      -3.816   2.243  25.570  0.00  0.00    -0.369 OA
ATOM      9  C   UNL     1      -5.147   1.722  25.458  0.00  0.00    +0.161 C 
ATOM     11  C   UNL     1      -6.189   2.743  25.930  0.00  0.00    +0.145 C 
ATOM     12  C   UNL     1      -3.589   3.481  24.893  0.00  0.00    +0.125 C 
ATOM     14  C   UNL     1      -5.984   4.117  25.297  0.00  0.00    +0.036 C 
ATOM     15  C   UNL     1      -4.531   4.563  25.419  0.00  0.00    +0.034 C 
ENDROOT
BRANCH  11   2
ATOM      2  O   UNL     1      -6.075   2.895  27.347  0.00  0.00    -0.389 OA
ATOM     34  H   UNL     1      -5.310   2.371  27.639  0.00  0.00    +0.210 HD
ENDBRANCH  11   2
BRANCH   9  13
ATOM     13  C   UNL     1      -5.417   1.203  24.047  0.00  0.00    +0.115 C 
BRANCH  13   6
ATOM      6  N   UNL     1      -5.989  -0.135  24.079  0.00  0.00    -0.311 NA
ATOM     33  H   UNL     1      -6.199  -0.426  23.123  0.00  0.00    +0.122 HD
BRANCH   6  10
ATOM      3  O   UNL     1      -0.190  -1.552  25.550  0.00  0.00    -0.276 OA
ATOM      7  N   UNL     1      -2.376  -2.121  25.006  0.00  0.00    -0.302 N 
ATOM     10  C   UNL     1      -5.060  -1.082  24.689  0.00  0.00    +0.057 C 
ATOM     16  C   UNL     1      -4.398  -1.944  23.606  0.00  0.00    +0.037 C 
ATOM     17  C   UNL     1      -3.996  -0.328  25.498  0.00  0.00    +0.037 C 
ATOM     18  C   UNL     1      -3.351  -2.878  24.212  0.00  0.00    +0.109 C 
ATOM     19  C   UNL     1      -2.958  -1.295  26.066  0.00  0.00    +0.109 C 
ATOM     22  C   UNL     1      -0.992  -2.170  24.845  0.00  0.00    +0.212 C 
ATOM     24  C   UNL     1      -0.471  -3.041  23.730  0.00  0.00    +0.109 C 
ENDBRANCH   6  10
ENDBRANCH  13   6
ENDBRANCH   9  13
BRANCH  12  20
ATOM     20  C   UNL     1      -2.133   3.869  25.124  0.00  0.00    +0.090 C 
BRANCH  20  21
ATOM      4  O   UNL     1      -0.542   1.149  23.375  0.00  0.00    -0.354 OA
ATOM      8  N   UNL     1      -1.665   1.854  23.791  0.00  0.00    -0.083 NA
ATOM     21  C   UNL     1      -1.186   2.877  24.505  0.00  0.00    +0.087 A 
ATOM     23  C   UNL     1       0.217   2.868  24.574  0.00  0.00    +0.076 A 
ATOM     25  C   UNL     1       0.572   1.762  23.848  0.00  0.00    +0.167 A 
BRANCH  25  26
ATOM     26  C   UNL     1       1.819   1.146  23.497  0.00  0.00    +0.020 A 
ATOM     27  C   UNL     1       1.941  -0.244  23.520  0.00  0.00    +0.015 A 
ATOM     28  C   UNL     1       2.908   1.936  23.131  0.00  0.00    +0.015 A 
ATOM     29  C   UNL     1       3.153  -0.843  23.178  0.00  0.00    +0.046 A 
ATOM     30  C   UNL     1       4.121   1.337  22.789  0.00  0.00    +0.046 A 
ATOM     31  C   UNL     1       4.243  -0.052  22.812  0.00  0.00    +0.120 A 
BRANCH  31   5
ATOM      5  O   UNL     1       5.424  -0.636  22.474  0.00  0.00    -0.495 OA
ATOM     32  C   UNL     1       6.518  -0.459  23.376  0.00  0.00    +0.277 C 
ENDBRANCH  31   5
ENDBRANCH  25  26
ENDBRANCH  20  21
ENDBRANCH  12  20
TORSDOF 8
ENDMDL
