MODEL 1
REMARK VINA RESULT:      -4.0      0.000      0.000
REMARK  Name = 45784012
REMARK  5 active torsions:
REMARK  status: ('A' for Active; 'I' for Inactive)
REMARK    1  A    between atoms: O_2  and  C_14
REMARK    2  A    between atoms: O_2  and  C_20
REMARK    3  A    between atoms: C_6  and  C_10
REMARK    4  A    between atoms: C_11  and  C_14
REMARK    5  A    between atoms: C_17  and  C_19
REMARK                            x       y       z     vdW  Elec       q    Type
REMARK                         _______ _______ _______ _____ _____    ______ ____
ROOT
ATOM      4  N   UNL     1      -5.506 -10.054  11.849  0.00  0.00    -0.342 N 
ATOM      5  N   UNL     1      -7.698  -9.691  11.893  0.00  0.00    -0.232 NA
ATOM     10  C   UNL     1      -6.645  -9.848  11.122  0.00  0.00    +0.113 A 
ATOM     12  C   UNL     1      -5.846 -10.026  13.178  0.00  0.00    +0.066 A 
ATOM     13  C   UNL     1      -7.220  -9.799  13.178  0.00  0.00    +0.089 A 
ATOM     15  C   UNL     1      -5.093 -10.177  14.343  0.00  0.00    +0.031 A 
ATOM     16  C   UNL     1      -7.900  -9.713  14.406  0.00  0.00    +0.030 A 
ATOM     17  C   UNL     1      -5.786 -10.089  15.555  0.00  0.00    -0.048 A 
ATOM     18  C   UNL     1      -7.164  -9.862  15.588  0.00  0.00    +0.005 A 
ATOM     19  C   UNL     1      -5.036 -10.242  16.837  0.00  0.00    +0.044 C 
ATOM     21  H   UNL     1      -4.577 -10.200  11.477  0.00  0.00    +0.167 HD
ENDROOT
BRANCH  10   6
ATOM      1  O   UNL     1      -7.626  -5.861   8.248  0.00  0.00    -0.273 OA
ATOM      3  N   UNL     1      -7.993  -8.093   8.716  0.00  0.00    -0.299 N 
ATOM      6  C   UNL     1      -6.618  -9.818   9.604  0.00  0.00    +0.074 C 
ATOM      7  C   UNL     1      -7.892 -10.434   9.004  0.00  0.00    +0.032 C 
ATOM      8  C   UNL     1      -6.595  -8.433   8.945  0.00  0.00    +0.119 C 
ATOM      9  C   UNL     1      -8.854  -9.258   8.893  0.00  0.00    +0.108 C 
ATOM     11  C   UNL     1      -8.397  -6.813   8.387  0.00  0.00    +0.241 C 
BRANCH  11  14
ATOM     14  C   UNL     1      -9.880  -6.629   8.190  0.00  0.00    +0.255 C 
BRANCH  14   2
ATOM      2  O   UNL     1     -10.349  -5.913   9.307  0.00  0.00    -0.374 OA
ATOM     20  C   UNL     1     -10.718  -4.576   8.973  0.00  0.00    +0.194 C 
ENDBRANCH  14   2
ENDBRANCH  11  14
ENDBRANCH  10   6
TORSDOF 3
ENDMDL
MODEL 2
REMARK VINA RESULT:      -2.8      3.322      5.443
REMARK  Name = 45784012
REMARK  5 active torsions:
REMARK  status: ('A' for Active; 'I' for Inactive)
REMARK    1  A    between atoms: O_2  and  C_14
REMARK    2  A    between atoms: O_2  and  C_20
REMARK    3  A    between atoms: C_6  and  C_10
REMARK    4  A    between atoms: C_11  and  C_14
REMARK    5  A    between atoms: C_17  and  C_19
REMARK                            x       y       z     vdW  Elec       q    Type
REMARK                         _______ _______ _______ _____ _____    ______ ____
ROOT
ATOM      4  N   UNL     1      -6.471 -10.385  15.034  0.00  0.00    -0.342 N 
ATOM      5  N   UNL     1      -5.910 -10.258  17.180  0.00  0.00    -0.232 NA
ATOM     10  C   UNL     1      -6.907 -10.269  16.324  0.00  0.00    +0.113 A 
ATOM     12  C   UNL     1      -5.101 -10.452  15.059  0.00  0.00    +0.066 A 
ATOM     13  C   UNL     1      -4.776 -10.372  16.410  0.00  0.00    +0.089 A 
ATOM     15  C   UNL     1      -4.149 -10.574  14.046  0.00  0.00    +0.031 A 
ATOM     16  C   UNL     1      -3.423 -10.413  16.792  0.00  0.00    +0.030 A 
ATOM     17  C   UNL     1      -2.808 -10.614  14.445  0.00  0.00    -0.048 A 
ATOM     18  C   UNL     1      -2.450 -10.535  15.792  0.00  0.00    +0.005 A 
ATOM     19  C   UNL     1      -1.742 -10.743  13.408  0.00  0.00    +0.044 C 
ATOM     21  H   UNL     1      -7.052 -10.416  14.207  0.00  0.00    +0.167 HD
ENDROOT
BRANCH  10   6
ATOM      1  O   UNL     1     -10.679 -10.780  13.064  0.00  0.00    -0.273 OA
ATOM      3  N   UNL     1      -9.688  -9.562  14.758  0.00  0.00    -0.299 N 
ATOM      6  C   UNL     1      -8.386 -10.169  16.652  0.00  0.00    +0.074 C 
ATOM      7  C   UNL     1      -8.838  -8.706  16.787  0.00  0.00    +0.032 C 
ATOM      8  C   UNL     1      -9.362 -10.707  15.598  0.00  0.00    +0.119 C 
ATOM      9  C   UNL     1      -9.246  -8.315  15.371  0.00  0.00    +0.108 C 
ATOM     11  C   UNL     1     -10.326  -9.700  13.538  0.00  0.00    +0.241 C 
BRANCH  11  14
ATOM     14  C   UNL     1     -10.583  -8.417  12.791  0.00  0.00    +0.255 C 
BRANCH  14   2
ATOM      2  O   UNL     1     -10.701  -8.759  11.431  0.00  0.00    -0.374 OA
ATOM     20  C   UNL     1      -9.458  -9.179  10.873  0.00  0.00    +0.194 C 
ENDBRANCH  14   2
ENDBRANCH  11  14
ENDBRANCH  10   6
TORSDOF 3
ENDMDL
MODEL 3
REMARK VINA RESULT:      -1.8     15.974     17.634
REMARK  Name = 45784012
REMARK  5 active torsions:
REMARK  status: ('A' for Active; 'I' for Inactive)
REMARK    1  A    between atoms: O_2  and  C_14
REMARK    2  A    between atoms: O_2  and  C_20
REMARK    3  A    between atoms: C_6  and  C_10
REMARK    4  A    between atoms: C_11  and  C_14
REMARK    5  A    between atoms: C_17  and  C_19
REMARK                            x       y       z     vdW  Elec       q    Type
REMARK                         _______ _______ _______ _____ _____    ______ ____
ROOT
ATOM      4  N   UNL     1      -0.691  -1.253  23.596  0.00  0.00    -0.342 N 
ATOM      5  N   UNL     1      -1.426   0.693  24.376  0.00  0.00    -0.232 NA
ATOM     10  C   UNL     1      -1.736  -0.562  24.140  0.00  0.00    +0.113 A 
ATOM     12  C   UNL     1       0.365  -0.386  23.470  0.00  0.00    +0.066 A 
ATOM     13  C   UNL     1      -0.119   0.822  23.965  0.00  0.00    +0.089 A 
ATOM     15  C   UNL     1       1.662  -0.550  22.983  0.00  0.00    +0.031 A 
ATOM     16  C   UNL     1       0.727   1.944  23.981  0.00  0.00    +0.030 A 
ATOM     17  C   UNL     1       2.491   0.577  23.007  0.00  0.00    -0.048 A 
ATOM     18  C   UNL     1       2.033   1.803  23.497  0.00  0.00    +0.005 A 
ATOM     19  C   UNL     1       3.890   0.466  22.499  0.00  0.00    +0.044 C 
ATOM     21  H   UNL     1      -0.692  -2.229  23.331  0.00  0.00    +0.167 HD
ENDROOT
BRANCH  10   6
ATOM      1  O   UNL     1      -6.222   1.671  24.034  0.00  0.00    -0.273 OA
ATOM      3  N   UNL     1      -4.721   0.312  25.147  0.00  0.00    -0.299 N 
ATOM      6  C   UNL     1      -3.071  -1.234  24.412  0.00  0.00    +0.074 C 
ATOM      7  C   UNL     1      -3.314  -1.420  25.918  0.00  0.00    +0.032 C 
ATOM      8  C   UNL     1      -4.326  -0.467  23.979  0.00  0.00    +0.119 C 
ATOM      9  C   UNL     1      -4.010  -0.131  26.341  0.00  0.00    +0.108 C 
ATOM     11  C   UNL     1      -5.648   1.335  25.072  0.00  0.00    +0.241 C 
BRANCH  11  14
ATOM     14  C   UNL     1      -5.939   2.045  26.369  0.00  0.00    +0.255 C 
BRANCH  14   2
ATOM      2  O   UNL     1      -5.661   3.407  26.155  0.00  0.00    -0.374 OA
ATOM     20  C   UNL     1      -4.289   3.633  25.836  0.00  0.00    +0.194 C 
ENDBRANCH  14   2
ENDBRANCH  11  14
ENDBRANCH  10   6
TORSDOF 3
ENDMDL
MODEL 4
REMARK VINA RESULT:      -1.7     15.427     18.020
REMARK  Name = 45784012
REMARK  5 active torsions:
REMARK  status: ('A' for Active; 'I' for Inactive)
REMARK    1  A    between atoms: O_2  and  C_14
REMARK    2  A    between atoms: O_2  and  C_20
REMARK    3  A    between atoms: C_6  and  C_10
REMARK    4  A    between atoms: C_11  and  C_14
REMARK    5  A    between atoms: C_17  and  C_19
REMARK                            x       y       z     vdW  Elec       q    Type
REMARK                         _______ _______ _______ _____ _____    ______ ____
ROOT
ATOM      4  N   UNL     1      -2.256   0.493  24.881  0.00  0.00    -0.342 N 
ATOM      5  N   UNL     1      -0.520  -0.866  25.162  0.00  0.00    -0.232 NA
ATOM     10  C   UNL     1      -0.942   0.376  25.238  0.00  0.00    +0.113 A 
ATOM     12  C   UNL     1      -2.713  -0.758  24.552  0.00  0.00    +0.066 A 
ATOM     13  C   UNL     1      -1.611  -1.588  24.736  0.00  0.00    +0.089 A 
ATOM     15  C   UNL     1      -3.958  -1.220  24.123  0.00  0.00    +0.031 A 
ATOM     16  C   UNL     1      -1.740  -2.965  24.482  0.00  0.00    +0.030 A 
ATOM     17  C   UNL     1      -4.068  -2.593  23.875  0.00  0.00    -0.048 A 
ATOM     18  C   UNL     1      -2.980  -3.451  24.050  0.00  0.00    +0.005 A 
ATOM     19  C   UNL     1      -5.375  -3.148  23.413  0.00  0.00    +0.044 C 
ATOM     21  H   UNL     1      -2.797   1.347  24.861  0.00  0.00    +0.167 HD
ENDROOT
BRANCH  10   6
ATOM      1  O   UNL     1      -2.795   4.819  26.634  0.00  0.00    -0.273 OA
ATOM      3  N   UNL     1      -1.310   3.624  25.331  0.00  0.00    -0.299 N 
ATOM      6  C   UNL     1      -0.128   1.587  25.660  0.00  0.00    +0.074 C 
ATOM      7  C   UNL     1       0.455   2.329  24.446  0.00  0.00    +0.032 C 
ATOM      8  C   UNL     1      -0.887   2.707  26.382  0.00  0.00    +0.119 C 
ATOM      9  C   UNL     1      -0.629   3.334  24.074  0.00  0.00    +0.108 C 
ATOM     11  C   UNL     1      -2.248   4.615  25.549  0.00  0.00    +0.241 C 
BRANCH  11  14
ATOM     14  C   UNL     1      -2.578   5.473  24.355  0.00  0.00    +0.255 C 
BRANCH  14   2
ATOM      2  O   UNL     1      -3.865   5.094  23.930  0.00  0.00    -0.374 OA
ATOM     20  C   UNL     1      -4.034   3.678  23.921  0.00  0.00    +0.194 C 
ENDBRANCH  14   2
ENDBRANCH  11  14
ENDBRANCH  10   6
TORSDOF 3
ENDMDL
MODEL 5
REMARK VINA RESULT:      -1.4     16.612     18.090
REMARK  Name = 45784012
REMARK  5 active torsions:
REMARK  status: ('A' for Active; 'I' for Inactive)
REMARK    1  A    between atoms: O_2  and  C_14
REMARK    2  A    between atoms: O_2  and  C_20
REMARK    3  A    between atoms: C_6  and  C_10
REMARK    4  A    between atoms: C_11  and  C_14
REMARK    5  A    between atoms: C_17  and  C_19
REMARK                            x       y       z     vdW  Elec       q    Type
REMARK                         _______ _______ _______ _____ _____    ______ ____
ROOT
ATOM      4  N   UNL     1       1.101  -1.099  23.927  0.00  0.00    -0.342 N 
ATOM      5  N   UNL     1       0.624   0.965  23.257  0.00  0.00    -0.232 NA
ATOM     10  C   UNL     1       0.128  -0.167  23.705  0.00  0.00    +0.113 A 
ATOM     12  C   UNL     1       2.307  -0.532  23.601  0.00  0.00    +0.066 A 
ATOM     13  C   UNL     1       1.982   0.757  23.186  0.00  0.00    +0.089 A 
ATOM     15  C   UNL     1       3.614  -1.021  23.633  0.00  0.00    +0.031 A 
ATOM     16  C   UNL     1       3.009   1.623  22.774  0.00  0.00    +0.030 A 
ATOM     17  C   UNL     1       4.624  -0.144  23.220  0.00  0.00    -0.048 A 
ATOM     18  C   UNL     1       4.329   1.154  22.798  0.00  0.00    +0.005 A 
ATOM     19  C   UNL     1       6.042  -0.609  23.231  0.00  0.00    +0.044 C 
ATOM     21  H   UNL     1       0.962  -2.040  24.271  0.00  0.00    +0.167 HD
ENDROOT
BRANCH  10   6
ATOM      1  O   UNL     1      -3.702   3.002  23.060  0.00  0.00    -0.273 OA
ATOM      3  N   UNL     1      -2.602   1.487  24.413  0.00  0.00    -0.299 N 
ATOM      6  C   UNL     1      -1.336  -0.475  23.966  0.00  0.00    +0.074 C 
ATOM      7  C   UNL     1      -1.669  -0.409  25.466  0.00  0.00    +0.032 C 
ATOM      8  C   UNL     1      -2.361   0.498  23.370  0.00  0.00    +0.119 C 
ATOM      9  C   UNL     1      -2.057   1.047  25.693  0.00  0.00    +0.108 C 
ATOM     11  C   UNL     1      -3.259   2.678  24.163  0.00  0.00    +0.241 C 
BRANCH  11  14
ATOM     14  C   UNL     1      -3.421   3.592  25.350  0.00  0.00    +0.255 C 
BRANCH  14   2
ATOM      2  O   UNL     1      -4.795   3.872  25.459  0.00  0.00    -0.374 OA
ATOM     20  C   UNL     1      -5.542   2.737  25.896  0.00  0.00    +0.194 C 
ENDBRANCH  14   2
ENDBRANCH  11  14
ENDBRANCH  10   6
TORSDOF 3
ENDMDL
MODEL 6
REMARK VINA RESULT:      -1.2     15.712     17.919
REMARK  Name = 45784012
REMARK  5 active torsions:
REMARK  status: ('A' for Active; 'I' for Inactive)
REMARK    1  A    between atoms: O_2  and  C_14
REMARK    2  A    between atoms: O_2  and  C_20
REMARK    3  A    between atoms: C_6  and  C_10
REMARK    4  A    between atoms: C_11  and  C_14
REMARK    5  A    between atoms: C_17  and  C_19
REMARK                            x       y       z     vdW  Elec       q    Type
REMARK                         _______ _______ _______ _____ _____    ______ ____
ROOT
ATOM      4  N   UNL     1      -3.161   0.637  25.199  0.00  0.00    -0.342 N 
ATOM      5  N   UNL     1      -4.738  -0.697  24.377  0.00  0.00    -0.232 NA
ATOM     10  C   UNL     1      -4.455   0.524  24.775  0.00  0.00    +0.113 A 
ATOM     12  C   UNL     1      -2.569  -0.594  25.068  0.00  0.00    +0.066 A 
ATOM     13  C   UNL     1      -3.574  -1.408  24.552  0.00  0.00    +0.089 A 
ATOM     15  C   UNL     1      -1.280  -1.050  25.346  0.00  0.00    +0.031 A 
ATOM     16  C   UNL     1      -3.293  -2.761  24.293  0.00  0.00    +0.030 A 
ATOM     17  C   UNL     1      -1.018  -2.398  25.082  0.00  0.00    -0.048 A 
ATOM     18  C   UNL     1      -2.006  -3.240  24.565  0.00  0.00    +0.005 A 
ATOM     19  C   UNL     1       0.343  -2.946  25.359  0.00  0.00    +0.044 C 
ATOM     21  H   UNL     1      -2.717   1.475  25.548  0.00  0.00    +0.167 HD
ENDROOT
BRANCH  10   6
ATOM      1  O   UNL     1      -3.363   5.157  23.207  0.00  0.00    -0.273 OA
ATOM      3  N   UNL     1      -4.231   3.785  24.849  0.00  0.00    -0.299 N 
ATOM      6  C   UNL     1      -5.398   1.714  24.791  0.00  0.00    +0.074 C 
ATOM      7  C   UNL     1      -5.511   2.328  26.196  0.00  0.00    +0.032 C 
ATOM      8  C   UNL     1      -4.988   2.927  23.946  0.00  0.00    +0.119 C 
ATOM      9  C   UNL     1      -4.392   3.363  26.236  0.00  0.00    +0.108 C 
ATOM     11  C   UNL     1      -3.465   4.842  24.393  0.00  0.00    +0.241 C 
BRANCH  11  14
ATOM     14  C   UNL     1      -2.739   5.625  25.457  0.00  0.00    +0.255 C 
BRANCH  14   2
ATOM      2  O   UNL     1      -1.368   5.542  25.154  0.00  0.00    -0.374 OA
ATOM     20  C   UNL     1      -0.883   4.201  25.218  0.00  0.00    +0.194 C 
ENDBRANCH  14   2
ENDBRANCH  11  14
ENDBRANCH  10   6
TORSDOF 3
ENDMDL
MODEL 7
REMARK VINA RESULT:      -1.2     15.592     18.153
REMARK  Name = 45784012
REMARK  5 active torsions:
REMARK  status: ('A' for Active; 'I' for Inactive)
REMARK    1  A    between atoms: O_2  and  C_14
REMARK    2  A    between atoms: O_2  and  C_20
REMARK    3  A    between atoms: C_6  and  C_10
REMARK    4  A    between atoms: C_11  and  C_14
REMARK    5  A    between atoms: C_17  and  C_19
REMARK                            x       y       z     vdW  Elec       q    Type
REMARK                         _______ _______ _______ _____ _____    ______ ____
ROOT
ATOM      4  N   UNL     1      -2.484   0.651  24.713  0.00  0.00    -0.342 N 
ATOM      5  N   UNL     1      -0.423  -0.152  24.924  0.00  0.00    -0.232 NA
ATOM     10  C   UNL     1      -1.169   0.929  24.958  0.00  0.00    +0.113 A 
ATOM     12  C   UNL     1      -2.595  -0.701  24.507  0.00  0.00    +0.066 A 
ATOM     13  C   UNL     1      -1.295  -1.179  24.645  0.00  0.00    +0.089 A 
ATOM     15  C   UNL     1      -3.687  -1.520  24.221  0.00  0.00    +0.031 A 
ATOM     16  C   UNL     1      -1.051  -2.555  24.491  0.00  0.00    +0.030 A 
ATOM     17  C   UNL     1      -3.427  -2.887  24.073  0.00  0.00    -0.048 A 
ATOM     18  C   UNL     1      -2.133  -3.397  24.204  0.00  0.00    +0.005 A 
ATOM     19  C   UNL     1      -4.555  -3.816  23.766  0.00  0.00    +0.044 C 
ATOM     21  H   UNL     1      -3.242   1.320  24.688  0.00  0.00    +0.167 HD
ENDROOT
BRANCH  10   6
ATOM      1  O   UNL     1      -3.642   4.388  27.612  0.00  0.00    -0.273 OA
ATOM      3  N   UNL     1      -2.507   3.824  25.681  0.00  0.00    -0.299 N 
ATOM      6  C   UNL     1      -0.699   2.348  25.228  0.00  0.00    +0.074 C 
ATOM      7  C   UNL     1      -0.932   3.262  24.014  0.00  0.00    +0.032 C 
ATOM      8  C   UNL     1      -1.422   3.111  26.344  0.00  0.00    +0.119 C 
ATOM      9  C   UNL     1      -2.337   3.812  24.232  0.00  0.00    +0.108 C 
ATOM     11  C   UNL     1      -3.545   4.407  26.384  0.00  0.00    +0.241 C 
BRANCH  11  14
ATOM     14  C   UNL     1      -4.589   5.099  25.546  0.00  0.00    +0.255 C 
BRANCH  14   2
ATOM      2  O   UNL     1      -5.794   4.400  25.745  0.00  0.00    -0.374 OA
ATOM     20  C   UNL     1      -5.662   3.008  25.462  0.00  0.00    +0.194 C 
ENDBRANCH  14   2
ENDBRANCH  11  14
ENDBRANCH  10   6
TORSDOF 3
ENDMDL
MODEL 8
REMARK VINA RESULT:      -0.9     17.106     18.671
REMARK  Name = 45784012
REMARK  5 active torsions:
REMARK  status: ('A' for Active; 'I' for Inactive)
REMARK    1  A    between atoms: O_2  and  C_14
REMARK    2  A    between atoms: O_2  and  C_20
REMARK    3  A    between atoms: C_6  and  C_10
REMARK    4  A    between atoms: C_11  and  C_14
REMARK    5  A    between atoms: C_17  and  C_19
REMARK                            x       y       z     vdW  Elec       q    Type
REMARK                         _______ _______ _______ _____ _____    ______ ____
ROOT
ATOM      4  N   UNL     1       0.085   3.117  24.463  0.00  0.00    -0.342 N 
ATOM      5  N   UNL     1      -1.460   1.619  25.016  0.00  0.00    -0.232 NA
ATOM     10  C   UNL     1      -1.136   2.892  25.034  0.00  0.00    +0.113 A 
ATOM     12  C   UNL     1       0.583   1.908  24.049  0.00  0.00    +0.066 A 
ATOM     13  C   UNL     1      -0.401   0.989  24.405  0.00  0.00    +0.089 A 
ATOM     15  C   UNL     1       1.772   1.550  23.412  0.00  0.00    +0.031 A 
ATOM     16  C   UNL     1      -0.203  -0.373  24.117  0.00  0.00    +0.030 A 
ATOM     17  C   UNL     1       1.952   0.191  23.133  0.00  0.00    -0.048 A 
ATOM     18  C   UNL     1       0.983  -0.754  23.478  0.00  0.00    +0.005 A 
ATOM     19  C   UNL     1       3.204  -0.255  22.453  0.00  0.00    +0.044 C 
ATOM     21  H   UNL     1       0.543   4.013  24.363  0.00  0.00    +0.167 HD
ENDROOT
BRANCH  10   6
ATOM      1  O   UNL     1      -5.642   2.459  27.185  0.00  0.00    -0.273 OA
ATOM      3  N   UNL     1      -4.285   3.521  25.647  0.00  0.00    -0.299 N 
ATOM      6  C   UNL     1      -1.963   4.032  25.604  0.00  0.00    +0.074 C 
ATOM      7  C   UNL     1      -2.683   4.817  24.495  0.00  0.00    +0.032 C 
ATOM      8  C   UNL     1      -3.127   3.643  26.524  0.00  0.00    +0.119 C 
ATOM      9  C   UNL     1      -4.012   4.090  24.332  0.00  0.00    +0.108 C 
ATOM     11  C   UNL     1      -5.463   2.925  26.059  0.00  0.00    +0.241 C 
BRANCH  11  14
ATOM     14  C   UNL     1      -6.561   2.875  25.028  0.00  0.00    +0.255 C 
BRANCH  14   2
ATOM      2  O   UNL     1      -6.699   1.526  24.652  0.00  0.00    -0.374 OA
ATOM     20  C   UNL     1      -5.449   0.839  24.643  0.00  0.00    +0.194 C 
ENDBRANCH  14   2
ENDBRANCH  11  14
ENDBRANCH  10   6
TORSDOF 3
ENDMDL
MODEL 9
REMARK VINA RESULT:      -0.6     16.188     17.975
REMARK  Name = 45784012
REMARK  5 active torsions:
REMARK  status: ('A' for Active; 'I' for Inactive)
REMARK    1  A    between atoms: O_2  and  C_14
REMARK    2  A    between atoms: O_2  and  C_20
REMARK    3  A    between atoms: C_6  and  C_10
REMARK    4  A    between atoms: C_11  and  C_14
REMARK    5  A    between atoms: C_17  and  C_19
REMARK                            x       y       z     vdW  Elec       q    Type
REMARK                         _______ _______ _______ _____ _____    ______ ____
ROOT
ATOM      4  N   UNL     1      -2.537   1.281  25.511  0.00  0.00    -0.342 N 
ATOM      5  N   UNL     1      -4.014  -0.366  25.293  0.00  0.00    -0.232 NA
ATOM     10  C   UNL     1      -2.741  -0.068  25.426  0.00  0.00    +0.113 A 
ATOM     12  C   UNL     1      -3.761   1.895  25.427  0.00  0.00    +0.066 A 
ATOM     13  C   UNL     1      -4.666   0.845  25.293  0.00  0.00    +0.089 A 
ATOM     15  C   UNL     1      -4.142   3.237  25.458  0.00  0.00    +0.031 A 
ATOM     16  C   UNL     1      -6.037   1.134  25.179  0.00  0.00    +0.030 A 
ATOM     17  C   UNL     1      -5.511   3.505  25.345  0.00  0.00    -0.048 A 
ATOM     18  C   UNL     1      -6.443   2.474  25.208  0.00  0.00    +0.005 A 
ATOM     19  C   UNL     1      -5.981   4.922  25.370  0.00  0.00    +0.044 C 
ATOM     21  H   UNL     1      -1.646   1.746  25.617  0.00  0.00    +0.167 HD
ENDROOT
BRANCH  10   6
ATOM      1  O   UNL     1       1.948   0.842  23.907  0.00  0.00    -0.273 OA
ATOM      3  N   UNL     1       0.101  -0.544  23.880  0.00  0.00    -0.299 N 
ATOM      6  C   UNL     1      -1.581  -1.047  25.484  0.00  0.00    +0.074 C 
ATOM      7  C   UNL     1      -1.644  -2.068  24.337  0.00  0.00    +0.032 C 
ATOM      8  C   UNL     1      -0.175  -0.458  25.309  0.00  0.00    +0.119 C 
ATOM      9  C   UNL     1      -0.870  -1.399  23.206  0.00  0.00    +0.108 C 
ATOM     11  C   UNL     1       1.155   0.129  23.290  0.00  0.00    +0.241 C 
BRANCH  11  14
ATOM     14  C   UNL     1       1.297  -0.061  21.802  0.00  0.00    +0.255 C 
BRANCH  14   2
ATOM      2  O   UNL     1       2.666  -0.267  21.551  0.00  0.00    -0.374 OA
ATOM     20  C   UNL     1       3.490   0.632  22.292  0.00  0.00    +0.194 C 
ENDBRANCH  14   2
ENDBRANCH  11  14
ENDBRANCH  10   6
TORSDOF 3
ENDMDL
MODEL 10
REMARK VINA RESULT:      -0.2     15.485     17.659
REMARK  Name = 45784012
REMARK  5 active torsions:
REMARK  status: ('A' for Active; 'I' for Inactive)
REMARK    1  A    between atoms: O_2  and  C_14
REMARK    2  A    between atoms: O_2  and  C_20
REMARK    3  A    between atoms: C_6  and  C_10
REMARK    4  A    between atoms: C_11  and  C_14
REMARK    5  A    between atoms: C_17  and  C_19
REMARK                            x       y       z     vdW  Elec       q    Type
REMARK                         _______ _______ _______ _____ _____    ______ ____
ROOT
ATOM      4  N   UNL     1       1.005   1.784  24.398  0.00  0.00    -0.342 N 
ATOM      5  N   UNL     1      -0.043   0.612  22.828  0.00  0.00    -0.232 NA
ATOM     10  C   UNL     1      -0.193   1.435  23.842  0.00  0.00    +0.113 A 
ATOM     12  C   UNL     1       1.995   1.143  23.696  0.00  0.00    +0.066 A 
ATOM     13  C   UNL     1       1.314   0.419  22.721  0.00  0.00    +0.089 A 
ATOM     15  C   UNL     1       3.385   1.136  23.827  0.00  0.00    +0.031 A 
ATOM     16  C   UNL     1       2.048  -0.366  21.814  0.00  0.00    +0.030 A 
ATOM     17  C   UNL     1       4.098   0.351  22.915  0.00  0.00    -0.048 A 
ATOM     18  C   UNL     1       3.444  -0.387  21.926  0.00  0.00    +0.005 A 
ATOM     19  C   UNL     1       5.588   0.302  23.003  0.00  0.00    +0.044 C 
ATOM     21  H   UNL     1       1.142   2.403  25.185  0.00  0.00    +0.167 HD
ENDROOT
BRANCH  10   6
ATOM      1  O   UNL     1      -3.631  -1.202  26.361  0.00  0.00    -0.273 OA
ATOM      3  N   UNL     1      -3.139   0.267  24.648  0.00  0.00    -0.299 N 
ATOM      6  C   UNL     1      -1.504   1.974  24.387  0.00  0.00    +0.074 C 
ATOM      7  C   UNL     1      -2.565   2.106  23.283  0.00  0.00    +0.032 C 
ATOM      8  C   UNL     1      -2.228   1.103  25.421  0.00  0.00    +0.119 C 
ATOM      9  C   UNL     1      -3.260   0.750  23.277  0.00  0.00    +0.108 C 
ATOM     11  C   UNL     1      -3.769  -0.836  25.192  0.00  0.00    +0.241 C 
BRANCH  11  14
ATOM     14  C   UNL     1      -4.673  -1.596  24.256  0.00  0.00    +0.255 C 
BRANCH  14   2
ATOM      2  O   UNL     1      -4.131  -2.888  24.132  0.00  0.00    -0.374 OA
ATOM     20  C   UNL     1      -2.705  -2.874  24.120  0.00  0.00    +0.194 C 
ENDBRANCH  14   2
ENDBRANCH  11  14
ENDBRANCH  10   6
TORSDOF 3
ENDMDL
