MODEL 1
REMARK VINA RESULT:      -6.0      0.000      0.000
REMARK  Name = 26743666
REMARK  4 active torsions:
REMARK  status: ('A' for Active; 'I' for Inactive)
REMARK    1  A    between atoms: O_1  and  C_13
REMARK    2  A    between atoms: N_3  and  C_7
REMARK    3  A    between atoms: C_8  and  C_17
REMARK    4  A    between atoms: C_18  and  C_19
REMARK                            x       y       z     vdW  Elec       q    Type
REMARK                         _______ _______ _______ _____ _____    ______ ____
ROOT
ATOM      3  N   UNL     1      -4.163   1.175  25.554  0.00  0.00    -0.286 NA
ATOM      8  C   UNL     1      -3.637   1.885  24.371  0.00  0.00    +0.149 C 
ATOM      9  C   UNL     1      -5.423   1.828  25.902  0.00  0.00    +0.116 C 
ATOM     12  C   UNL     1      -4.204   3.313  24.484  0.00  0.00    +0.061 C 
ATOM     13  C   UNL     1      -5.072   3.294  25.736  0.00  0.00    +0.130 C 
ENDROOT
BRANCH   3   7
ATOM      7  C   UNL     1      -4.329  -0.260  25.337  0.00  0.00    +0.058 C 
ATOM     10  C   UNL     1      -4.358  -0.561  23.834  0.00  0.00    +0.019 C 
ATOM     11  C   UNL     1      -3.197  -1.026  26.031  0.00  0.00    +0.019 C 
ATOM     14  C   UNL     1      -4.454  -2.062  23.568  0.00  0.00    +0.002 C 
ATOM     15  C   UNL     1      -3.293  -2.527  25.763  0.00  0.00    +0.002 C 
ATOM     16  C   UNL     1      -3.335  -2.830  24.268  0.00  0.00    +0.000 C 
ENDBRANCH   3   7
BRANCH   8  17
ATOM      2  O   UNL     1      -1.465   2.685  25.154  0.00  0.00    -0.336 OA
ATOM      4  N   UNL     1      -1.341   1.153  23.525  0.00  0.00    -0.189 NA
ATOM      5  N   UNL     1      -0.100   2.491  24.905  0.00  0.00    -0.054 NA
ATOM     17  C   UNL     1      -2.125   1.860  24.300  0.00  0.00    +0.245 A 
ATOM     18  C   UNL     1      -0.109   1.574  23.933  0.00  0.00    +0.220 A 
BRANCH  18  19
ATOM      6  N   UNL     1       2.225   1.741  23.634  0.00  0.00    -0.252 NA
ATOM     19  C   UNL     1       1.095   1.056  23.349  0.00  0.00    +0.111 A 
ATOM     20  C   UNL     1       1.054  -0.076  22.551  0.00  0.00    +0.031 A 
ATOM     21  C   UNL     1       2.250  -0.534  22.010  0.00  0.00    +0.004 A 
ATOM     22  C   UNL     1       3.368   1.267  23.090  0.00  0.00    +0.111 A 
ATOM     23  C   UNL     1       3.434   0.144  22.280  0.00  0.00    +0.020 A 
ENDBRANCH  18  19
ENDBRANCH   8  17
BRANCH  13   1
ATOM      1  O   UNL     1      -6.224   4.093  25.560  0.00  0.00    -0.390 OA
ATOM     24  H   UNL     1      -6.038   4.965  25.950  0.00  0.00    +0.210 HD
ENDBRANCH  13   1
TORSDOF 4
ENDMDL
MODEL 2
REMARK VINA RESULT:      -5.1      1.999      2.890
REMARK  Name = 26743666
REMARK  4 active torsions:
REMARK  status: ('A' for Active; 'I' for Inactive)
REMARK    1  A    between atoms: O_1  and  C_13
REMARK    2  A    between atoms: N_3  and  C_7
REMARK    3  A    between atoms: C_8  and  C_17
REMARK    4  A    between atoms: C_18  and  C_19
REMARK                            x       y       z     vdW  Elec       q    Type
REMARK                         _______ _______ _______ _____ _____    ______ ____
ROOT
ATOM      3  N   UNL     1      -1.697   1.786  25.280  0.00  0.00    -0.286 NA
ATOM      8  C   UNL     1      -1.184   2.086  23.928  0.00  0.00    +0.149 C 
ATOM      9  C   UNL     1      -2.270   3.029  25.790  0.00  0.00    +0.116 C 
ATOM     12  C   UNL     1      -0.840   3.587  23.961  0.00  0.00    +0.061 C 
ATOM     13  C   UNL     1      -1.237   4.052  25.357  0.00  0.00    +0.130 C 
ENDROOT
BRANCH   3   7
ATOM      7  C   UNL     1      -2.659   0.687  25.299  0.00  0.00    +0.058 C 
ATOM     10  C   UNL     1      -3.400   0.620  23.959  0.00  0.00    +0.019 C 
ATOM     11  C   UNL     1      -1.939  -0.632  25.598  0.00  0.00    +0.019 C 
ATOM     14  C   UNL     1      -4.363  -0.566  23.914  0.00  0.00    +0.002 C 
ATOM     15  C   UNL     1      -2.902  -1.817  25.551  0.00  0.00    +0.002 C 
ATOM     16  C   UNL     1      -3.651  -1.881  24.224  0.00  0.00    +0.000 C 
ENDBRANCH   3   7
BRANCH   8  17
ATOM      2  O   UNL     1      -0.248   0.191  22.700  0.00  0.00    -0.336 OA
ATOM      4  N   UNL     1       1.253   1.320  23.921  0.00  0.00    -0.189 NA
ATOM      5  N   UNL     1       0.980  -0.452  22.500  0.00  0.00    -0.054 NA
ATOM     17  C   UNL     1       0.001   1.223  23.548  0.00  0.00    +0.245 A 
ATOM     18  C   UNL     1       1.814   0.271  23.253  0.00  0.00    +0.220 A 
BRANCH  18  19
ATOM      6  N   UNL     1       3.518  -1.287  23.733  0.00  0.00    -0.252 NA
ATOM     19  C   UNL     1       3.214  -0.026  23.357  0.00  0.00    +0.111 A 
ATOM     20  C   UNL     1       4.158   0.951  23.081  0.00  0.00    +0.031 A 
ATOM     21  C   UNL     1       5.500   0.610  23.198  0.00  0.00    +0.004 A 
ATOM     22  C   UNL     1       4.833  -1.582  23.837  0.00  0.00    +0.111 A 
ATOM     23  C   UNL     1       5.853  -0.679  23.583  0.00  0.00    +0.020 A 
ENDBRANCH  18  19
ENDBRANCH   8  17
BRANCH  13   1
ATOM      1  O   UNL     1      -1.775   5.358  25.317  0.00  0.00    -0.390 OA
ATOM     24  H   UNL     1      -2.743   5.276  25.378  0.00  0.00    +0.210 HD
ENDBRANCH  13   1
TORSDOF 4
ENDMDL
MODEL 3
REMARK VINA RESULT:      -4.1      2.407      4.308
REMARK  Name = 26743666
REMARK  4 active torsions:
REMARK  status: ('A' for Active; 'I' for Inactive)
REMARK    1  A    between atoms: O_1  and  C_13
REMARK    2  A    between atoms: N_3  and  C_7
REMARK    3  A    between atoms: C_8  and  C_17
REMARK    4  A    between atoms: C_18  and  C_19
REMARK                            x       y       z     vdW  Elec       q    Type
REMARK                         _______ _______ _______ _____ _____    ______ ____
ROOT
ATOM      3  N   UNL     1      -2.612   0.501  24.219  0.00  0.00    -0.286 NA
ATOM      8  C   UNL     1      -1.678  -0.590  24.561  0.00  0.00    +0.149 C 
ATOM      9  C   UNL     1      -3.958  -0.059  24.319  0.00  0.00    +0.116 C 
ATOM     12  C   UNL     1      -2.422  -1.882  24.172  0.00  0.00    +0.061 C 
ATOM     13  C   UNL     1      -3.781  -1.417  23.664  0.00  0.00    +0.130 C 
ENDROOT
BRANCH   3   7
ATOM      7  C   UNL     1      -2.446   1.686  25.059  0.00  0.00    +0.058 C 
ATOM     10  C   UNL     1      -1.214   2.477  24.605  0.00  0.00    +0.019 C 
ATOM     11  C   UNL     1      -3.710   2.550  24.997  0.00  0.00    +0.019 C 
ATOM     14  C   UNL     1      -1.051   3.764  25.412  0.00  0.00    +0.002 C 
ATOM     15  C   UNL     1      -3.545   3.837  25.803  0.00  0.00    +0.002 C 
ATOM     16  C   UNL     1      -2.313   4.622  25.363  0.00  0.00    +0.000 C 
ENDBRANCH   3   7
BRANCH   8  17
ATOM      2  O   UNL     1      -0.375  -0.252  22.522  0.00  0.00    -0.336 OA
ATOM      4  N   UNL     1       0.867  -0.500  24.369  0.00  0.00    -0.189 NA
ATOM      5  N   UNL     1       0.961  -0.159  22.109  0.00  0.00    -0.054 NA
ATOM     17  C   UNL     1      -0.340  -0.453  23.865  0.00  0.00    +0.245 A 
ATOM     18  C   UNL     1       1.632  -0.316  23.254  0.00  0.00    +0.220 A 
BRANCH  18  19
ATOM      6  N   UNL     1       3.650  -1.418  23.777  0.00  0.00    -0.252 NA
ATOM     19  C   UNL     1       3.065  -0.290  23.319  0.00  0.00    +0.111 A 
ATOM     20  C   UNL     1       3.762   0.842  22.928  0.00  0.00    +0.031 A 
ATOM     21  C   UNL     1       5.148   0.814  23.012  0.00  0.00    +0.004 A 
ATOM     22  C   UNL     1       5.000  -1.409  23.845  0.00  0.00    +0.111 A 
ATOM     23  C   UNL     1       5.788  -0.330  23.478  0.00  0.00    +0.020 A 
ENDBRANCH  18  19
ENDBRANCH   8  17
BRANCH  13   1
ATOM      1  O   UNL     1      -4.797  -2.321  24.049  0.00  0.00    -0.390 OA
ATOM     24  H   UNL     1      -4.490  -3.217  23.824  0.00  0.00    +0.210 HD
ENDBRANCH  13   1
TORSDOF 4
ENDMDL
MODEL 4
REMARK VINA RESULT:      -4.0      2.138      3.957
REMARK  Name = 26743666
REMARK  4 active torsions:
REMARK  status: ('A' for Active; 'I' for Inactive)
REMARK    1  A    between atoms: O_1  and  C_13
REMARK    2  A    between atoms: N_3  and  C_7
REMARK    3  A    between atoms: C_8  and  C_17
REMARK    4  A    between atoms: C_18  and  C_19
REMARK                            x       y       z     vdW  Elec       q    Type
REMARK                         _______ _______ _______ _____ _____    ______ ____
ROOT
ATOM      3  N   UNL     1      -3.268  -0.025  24.130  0.00  0.00    -0.286 NA
ATOM      8  C   UNL     1      -2.105  -0.714  24.725  0.00  0.00    +0.149 C 
ATOM      9  C   UNL     1      -4.372  -0.981  24.154  0.00  0.00    +0.116 C 
ATOM     12  C   UNL     1      -2.343  -2.208  24.438  0.00  0.00    +0.061 C 
ATOM     13  C   UNL     1      -3.685  -2.263  23.720  0.00  0.00    +0.130 C 
ENDROOT
BRANCH   3   7
ATOM      7  C   UNL     1      -3.607   1.224  24.809  0.00  0.00    +0.058 C 
ATOM     10  C   UNL     1      -3.378   2.409  23.864  0.00  0.00    +0.019 C 
ATOM     11  C   UNL     1      -5.060   1.176  25.293  0.00  0.00    +0.019 C 
ATOM     14  C   UNL     1      -3.794   3.728  24.514  0.00  0.00    +0.002 C 
ATOM     15  C   UNL     1      -5.475   2.496  25.941  0.00  0.00    +0.002 C 
ATOM     16  C   UNL     1      -5.238   3.680  25.009  0.00  0.00    +0.000 C 
ENDBRANCH   3   7
BRANCH   8  17
ATOM      2  O   UNL     1      -0.826   0.941  23.460  0.00  0.00    -0.336 OA
ATOM      4  N   UNL     1       0.410  -0.739  24.277  0.00  0.00    -0.189 NA
ATOM      5  N   UNL     1       0.491   1.195  23.058  0.00  0.00    -0.054 NA
ATOM     17  C   UNL     1      -0.786  -0.215  24.172  0.00  0.00    +0.245 A 
ATOM     18  C   UNL     1       1.160   0.161  23.577  0.00  0.00    +0.220 A 
BRANCH  18  19
ATOM      6  N   UNL     1       3.081  -1.181  23.841  0.00  0.00    -0.252 NA
ATOM     19  C   UNL     1       2.576  -0.001  23.418  0.00  0.00    +0.111 A 
ATOM     20  C   UNL     1       3.338   1.015  22.863  0.00  0.00    +0.031 A 
ATOM     21  C   UNL     1       4.706   0.806  22.733  0.00  0.00    +0.004 A 
ATOM     22  C   UNL     1       4.415  -1.348  23.699  0.00  0.00    +0.111 A 
ATOM     23  C   UNL     1       5.263  -0.396  23.157  0.00  0.00    +0.020 A 
ENDBRANCH  18  19
ENDBRANCH   8  17
BRANCH  13   1
ATOM      1  O   UNL     1      -4.417  -3.408  24.109  0.00  0.00    -0.390 OA
ATOM     24  H   UNL     1      -5.152  -3.512  23.480  0.00  0.00    +0.210 HD
ENDBRANCH  13   1
TORSDOF 4
ENDMDL
MODEL 5
REMARK VINA RESULT:      -3.2      2.928      3.674
REMARK  Name = 26743666
REMARK  4 active torsions:
REMARK  status: ('A' for Active; 'I' for Inactive)
REMARK    1  A    between atoms: O_1  and  C_13
REMARK    2  A    between atoms: N_3  and  C_7
REMARK    3  A    between atoms: C_8  and  C_17
REMARK    4  A    between atoms: C_18  and  C_19
REMARK                            x       y       z     vdW  Elec       q    Type
REMARK                         _______ _______ _______ _____ _____    ______ ____
ROOT
ATOM      3  N   UNL     1      -3.730   1.189  25.265  0.00  0.00    -0.286 NA
ATOM      8  C   UNL     1      -2.985   2.361  24.764  0.00  0.00    +0.149 C 
ATOM      9  C   UNL     1      -5.147   1.537  25.192  0.00  0.00    +0.116 C 
ATOM     12  C   UNL     1      -3.894   3.566  25.071  0.00  0.00    +0.061 C 
ATOM     13  C   UNL     1      -5.145   2.966  25.701  0.00  0.00    +0.130 C 
ENDROOT
BRANCH   3   7
ATOM      7  C   UNL     1      -3.428  -0.041  24.535  0.00  0.00    +0.058 C 
ATOM     10  C   UNL     1      -2.386  -0.860  25.305  0.00  0.00    +0.019 C 
ATOM     11  C   UNL     1      -4.712  -0.847  24.316  0.00  0.00    +0.019 C 
ATOM     14  C   UNL     1      -2.100  -2.191  24.610  0.00  0.00    +0.002 C 
ATOM     15  C   UNL     1      -4.424  -2.177  23.622  0.00  0.00    +0.002 C 
ATOM     16  C   UNL     1      -3.379  -2.991  24.379  0.00  0.00    +0.000 C 
ENDBRANCH   3   7
BRANCH   8  17
ATOM      2  O   UNL     1      -0.575   2.696  24.537  0.00  0.00    -0.336 OA
ATOM      4  N   UNL     1      -1.265   2.430  26.651  0.00  0.00    -0.189 NA
ATOM      5  N   UNL     1       0.573   2.780  25.335  0.00  0.00    -0.054 NA
ATOM     17  C   UNL     1      -1.612   2.490  25.390  0.00  0.00    +0.245 A 
ATOM     18  C   UNL     1       0.085   2.613  26.568  0.00  0.00    +0.220 A 
BRANCH  18  19
ATOM      6  N   UNL     1       2.211   2.955  27.529  0.00  0.00    -0.252 NA
ATOM     19  C   UNL     1       0.917   2.627  27.736  0.00  0.00    +0.111 A 
ATOM     20  C   UNL     1       0.384   2.316  28.977  0.00  0.00    +0.031 A 
ATOM     21  C   UNL     1       1.235   2.343  30.076  0.00  0.00    +0.004 A 
ATOM     22  C   UNL     1       3.009   2.971  28.620  0.00  0.00    +0.111 A 
ATOM     23  C   UNL     1       2.574   2.676  29.903  0.00  0.00    +0.020 A 
ENDBRANCH  18  19
ENDBRANCH   8  17
BRANCH  13   1
ATOM      1  O   UNL     1      -6.300   3.671  25.292  0.00  0.00    -0.390 OA
ATOM     24  H   UNL     1      -6.610   3.267  24.464  0.00  0.00    +0.210 HD
ENDBRANCH  13   1
TORSDOF 4
ENDMDL
MODEL 6
REMARK VINA RESULT:      -2.3     16.053     17.742
REMARK  Name = 26743666
REMARK  4 active torsions:
REMARK  status: ('A' for Active; 'I' for Inactive)
REMARK    1  A    between atoms: O_1  and  C_13
REMARK    2  A    between atoms: N_3  and  C_7
REMARK    3  A    between atoms: C_8  and  C_17
REMARK    4  A    between atoms: C_18  and  C_19
REMARK                            x       y       z     vdW  Elec       q    Type
REMARK                         _______ _______ _______ _____ _____    ______ ____
ROOT
ATOM      3  N   UNL     1      -9.631 -10.445  12.077  0.00  0.00    -0.286 NA
ATOM      8  C   UNL     1      -8.588  -9.537  12.594  0.00  0.00    +0.149 C 
ATOM      9  C   UNL     1     -10.646 -10.547  13.123  0.00  0.00    +0.116 C 
ATOM     12  C   UNL     1      -8.654  -9.691  14.125  0.00  0.00    +0.061 C 
ATOM     13  C   UNL     1      -9.795 -10.670  14.373  0.00  0.00    +0.130 C 
ENDROOT
BRANCH   3   7
ATOM      7  C   UNL     1     -10.197 -10.006  10.803  0.00  0.00    +0.058 C 
ATOM     10  C   UNL     1      -9.996  -8.495  10.637  0.00  0.00    +0.019 C 
ATOM     11  C   UNL     1      -9.548 -10.779   9.650  0.00  0.00    +0.019 C 
ATOM     14  C   UNL     1     -10.508  -8.012   9.281  0.00  0.00    +0.002 C 
ATOM     15  C   UNL     1     -10.059 -10.293   8.295  0.00  0.00    +0.002 C 
ATOM     16  C   UNL     1      -9.873  -8.788   8.130  0.00  0.00    +0.000 C 
ENDBRANCH   3   7
BRANCH   8  17
ATOM      2  O   UNL     1      -7.177 -10.617  10.915  0.00  0.00    -0.336 OA
ATOM      4  N   UNL     1      -6.037  -9.483  12.473  0.00  0.00    -0.189 NA
ATOM      5  N   UNL     1      -5.823 -10.767  10.592  0.00  0.00    -0.054 NA
ATOM     17  C   UNL     1      -7.215  -9.848  12.034  0.00  0.00    +0.245 A 
ATOM     18  C   UNL     1      -5.214 -10.070  11.557  0.00  0.00    +0.220 A 
BRANCH  18  19
ATOM      6  N   UNL     1      -3.209 -10.466  12.734  0.00  0.00    -0.252 NA
ATOM     19  C   UNL     1      -3.787  -9.940  11.632  0.00  0.00    +0.111 A 
ATOM     20  C   UNL     1      -3.089  -9.306  10.617  0.00  0.00    +0.031 A 
ATOM     21  C   UNL     1      -1.709  -9.206  10.740  0.00  0.00    +0.004 A 
ATOM     22  C   UNL     1      -1.865 -10.350  12.821  0.00  0.00    +0.111 A 
ATOM     23  C   UNL     1      -1.077  -9.736  11.861  0.00  0.00    +0.020 A 
ENDBRANCH  18  19
ENDBRANCH   8  17
BRANCH  13   1
ATOM      1  O   UNL     1     -10.516 -10.315  15.536  0.00  0.00    -0.390 OA
ATOM     24  H   UNL     1     -11.463 -10.362  15.318  0.00  0.00    +0.210 HD
ENDBRANCH  13   1
TORSDOF 4
ENDMDL
