MODEL 1
REMARK VINA RESULT:      -0.7      0.000      0.000
REMARK  Name = 45783556
REMARK  9 active torsions:
REMARK  status: ('A' for Active; 'I' for Inactive)
REMARK    1  A    between atoms: O_2  and  C_25
REMARK    2  A    between atoms: O_2  and  C_26
REMARK    3  A    between atoms: O_3  and  C_27
REMARK    4  A    between atoms: O_3  and  C_28
REMARK    5  A    between atoms: N_4  and  C_9
REMARK    6  A    between atoms: N_5  and  C_19
REMARK    7  A    between atoms: C_10  and  C_18
REMARK    8  A    between atoms: C_20  and  C_21
REMARK    9  A    between atoms: C_26  and  C_27
REMARK                            x       y       z     vdW  Elec       q    Type
REMARK                         _______ _______ _______ _____ _____    ______ ____
ROOT
ATOM      1  O   UNL     1      -1.954   3.384  24.775  0.00  0.00    -0.336 OA
ATOM      6  N   UNL     1      -1.693   1.466  23.648  0.00  0.00    -0.190 NA
ATOM      7  N   UNL     1      -0.576   3.240  24.566  0.00  0.00    -0.056 NA
ATOM     18  C   UNL     1      -2.537   2.298  24.203  0.00  0.00    +0.245 A 
ATOM     20  C   UNL     1      -0.502   2.086  23.895  0.00  0.00    +0.204 A 
ENDROOT
BRANCH  20  21
ATOM      8  N   UNL     1       3.117   1.799  23.095  0.00  0.00    -0.221 NA
ATOM     21  C   UNL     1       0.743   1.525  23.461  0.00  0.00    +0.041 A 
ATOM     22  C   UNL     1       0.816   0.216  22.994  0.00  0.00    +0.018 A 
ATOM     23  C   UNL     1       1.913   2.267  23.490  0.00  0.00    +0.126 A 
ATOM     24  C   UNL     1       2.038  -0.301  22.578  0.00  0.00    +0.068 A 
ATOM     25  C   UNL     1       3.148   0.524  22.647  0.00  0.00    +0.215 A 
BRANCH  25   2
ATOM      2  O   UNL     1       4.364   0.037  22.242  0.00  0.00    -0.474 OA
BRANCH   2  26
ATOM     26  C   UNL     1       5.502   0.459  22.984  0.00  0.00    +0.258 C 
BRANCH  26  27
ATOM     27  C   UNL     1       5.372  -0.033  24.412  0.00  0.00    +0.200 C 
BRANCH  27   3
ATOM      3  O   UNL     1       5.692  -1.419  24.456  0.00  0.00    -0.380 OA
ATOM     28  C   UNL     1       4.624  -2.215  23.961  0.00  0.00    +0.194 C 
ENDBRANCH  27   3
ENDBRANCH  26  27
ENDBRANCH   2  26
ENDBRANCH  25   2
ENDBRANCH  20  21
BRANCH  18  10
ATOM      4  N   UNL     1      -4.505   1.504  25.502  0.00  0.00    -0.288 NA
ATOM     10  C   UNL     1      -4.046   2.217  24.293  0.00  0.00    +0.146 C 
ATOM     11  C   UNL     1      -5.808   2.073  25.848  0.00  0.00    +0.085 C 
ATOM     14  C   UNL     1      -4.711   3.604  24.382  0.00  0.00    +0.030 C 
ATOM     15  C   UNL     1      -5.570   3.553  25.638  0.00  0.00    +0.017 C 
BRANCH   4   9
ATOM      5  N   UNL     1      -3.341  -2.423  24.366  0.00  0.00    -0.305 NA
ATOM      9  C   UNL     1      -4.567   0.054  25.326  0.00  0.00    +0.060 C 
ATOM     12  C   UNL     1      -3.404  -0.618  26.059  0.00  0.00    +0.034 C 
ATOM     13  C   UNL     1      -4.534  -0.319  23.842  0.00  0.00    +0.034 C 
ATOM     16  C   UNL     1      -3.396  -2.128  25.805  0.00  0.00    +0.085 C 
ATOM     17  C   UNL     1      -4.489  -1.839  23.659  0.00  0.00    +0.085 C 
ATOM     19  C   UNL     1      -3.283  -3.867  24.142  0.00  0.00    +0.104 C 
ENDBRANCH   4   9
ENDBRANCH  18  10
TORSDOF 7
ENDMDL
MODEL 2
REMARK VINA RESULT:       1.3      1.239      3.510
REMARK  Name = 45783556
REMARK  9 active torsions:
REMARK  status: ('A' for Active; 'I' for Inactive)
REMARK    1  A    between atoms: O_2  and  C_25
REMARK    2  A    between atoms: O_2  and  C_26
REMARK    3  A    between atoms: O_3  and  C_27
REMARK    4  A    between atoms: O_3  and  C_28
REMARK    5  A    between atoms: N_4  and  C_9
REMARK    6  A    between atoms: N_5  and  C_19
REMARK    7  A    between atoms: C_10  and  C_18
REMARK    8  A    between atoms: C_20  and  C_21
REMARK    9  A    between atoms: C_26  and  C_27
REMARK                            x       y       z     vdW  Elec       q    Type
REMARK                         _______ _______ _______ _____ _____    ______ ____
ROOT
ATOM      1  O   UNL     1      -1.727   1.320  25.437  0.00  0.00    -0.336 OA
ATOM      6  N   UNL     1      -0.984  -0.333  24.121  0.00  0.00    -0.190 NA
ATOM      7  N   UNL     1      -0.446   1.701  25.019  0.00  0.00    -0.056 NA
ATOM     18  C   UNL     1      -1.966   0.111  24.863  0.00  0.00    +0.245 A 
ATOM     20  C   UNL     1      -0.074   0.676  24.246  0.00  0.00    +0.204 A 
ENDROOT
BRANCH  20  21
ATOM      8  N   UNL     1       3.413   1.556  23.301  0.00  0.00    -0.221 NA
ATOM     21  C   UNL     1       1.199   0.628  23.588  0.00  0.00    +0.041 A 
ATOM     22  C   UNL     1       1.474  -0.342  22.630  0.00  0.00    +0.018 A 
ATOM     23  C   UNL     1       2.194   1.546  23.885  0.00  0.00    +0.126 A 
ATOM     24  C   UNL     1       2.717  -0.363  22.008  0.00  0.00    +0.068 A 
ATOM     25  C   UNL     1       3.643   0.599  22.375  0.00  0.00    +0.215 A 
BRANCH  25   2
ATOM      2  O   UNL     1       4.876   0.599  21.775  0.00  0.00    -0.474 OA
BRANCH   2  26
ATOM     26  C   UNL     1       5.914  -0.104  22.447  0.00  0.00    +0.258 C 
BRANCH  26  27
ATOM     27  C   UNL     1       5.946   0.330  23.899  0.00  0.00    +0.200 C 
BRANCH  27   3
ATOM      3  O   UNL     1       5.642  -0.788  24.724  0.00  0.00    -0.380 OA
ATOM     28  C   UNL     1       4.974  -1.807  23.993  0.00  0.00    +0.194 C 
ENDBRANCH  27   3
ENDBRANCH  26  27
ENDBRANCH   2  26
ENDBRANCH  25   2
ENDBRANCH  20  21
BRANCH  18  10
ATOM      4  N   UNL     1      -4.299  -0.287  24.097  0.00  0.00    -0.288 NA
ATOM     10  C   UNL     1      -3.307  -0.524  25.164  0.00  0.00    +0.146 C 
ATOM     11  C   UNL     1      -5.208  -1.433  24.114  0.00  0.00    +0.085 C 
ATOM     14  C   UNL     1      -3.225  -2.057  25.287  0.00  0.00    +0.030 C 
ATOM     15  C   UNL     1      -4.248  -2.591  24.294  0.00  0.00    +0.017 C 
BRANCH   4   9
ATOM      5  N   UNL     1      -5.234   3.616  25.498  0.00  0.00    -0.305 NA
ATOM      9  C   UNL     1      -5.012   0.981  24.244  0.00  0.00    +0.060 C 
ATOM     12  C   UNL     1      -4.101   2.149  23.858  0.00  0.00    +0.034 C 
ATOM     13  C   UNL     1      -5.513   1.163  25.680  0.00  0.00    +0.034 C 
ATOM     16  C   UNL     1      -4.797   3.490  24.100  0.00  0.00    +0.085 C 
ATOM     17  C   UNL     1      -6.163   2.538  25.864  0.00  0.00    +0.085 C 
ATOM     19  C   UNL     1      -5.852   4.922  25.725  0.00  0.00    +0.104 C 
ENDBRANCH   4   9
ENDBRANCH  18  10
TORSDOF 7
ENDMDL
MODEL 3
REMARK VINA RESULT:       1.8      1.832      3.912
REMARK  Name = 45783556
REMARK  9 active torsions:
REMARK  status: ('A' for Active; 'I' for Inactive)
REMARK    1  A    between atoms: O_2  and  C_25
REMARK    2  A    between atoms: O_2  and  C_26
REMARK    3  A    between atoms: O_3  and  C_27
REMARK    4  A    between atoms: O_3  and  C_28
REMARK    5  A    between atoms: N_4  and  C_9
REMARK    6  A    between atoms: N_5  and  C_19
REMARK    7  A    between atoms: C_10  and  C_18
REMARK    8  A    between atoms: C_20  and  C_21
REMARK    9  A    between atoms: C_26  and  C_27
REMARK                            x       y       z     vdW  Elec       q    Type
REMARK                         _______ _______ _______ _____ _____    ______ ____
ROOT
ATOM      1  O   UNL     1      -2.623  -1.004  24.691  0.00  0.00    -0.336 OA
ATOM      6  N   UNL     1      -1.656   0.992  24.372  0.00  0.00    -0.190 NA
ATOM      7  N   UNL     1      -1.356  -1.266  24.155  0.00  0.00    -0.056 NA
ATOM     18  C   UNL     1      -2.719   0.349  24.786  0.00  0.00    +0.245 A 
ATOM     20  C   UNL     1      -0.847  -0.041  23.995  0.00  0.00    +0.204 A 
ENDROOT
BRANCH  20  21
ATOM      8  N   UNL     1       2.521   1.456  23.502  0.00  0.00    -0.221 NA
ATOM     21  C   UNL     1       0.463   0.187  23.459  0.00  0.00    +0.041 A 
ATOM     22  C   UNL     1       0.957  -0.590  22.417  0.00  0.00    +0.018 A 
ATOM     23  C   UNL     1       1.279   1.189  23.962  0.00  0.00    +0.126 A 
ATOM     24  C   UNL     1       2.231  -0.345  21.917  0.00  0.00    +0.068 A 
ATOM     25  C   UNL     1       2.966   0.680  22.489  0.00  0.00    +0.215 A 
BRANCH  25   2
ATOM      2  O   UNL     1       4.224   0.941  22.012  0.00  0.00    -0.474 OA
BRANCH   2  26
ATOM     26  C   UNL     1       5.265   0.074  22.445  0.00  0.00    +0.258 C 
BRANCH  26  27
ATOM     27  C   UNL     1       5.653   0.436  23.865  0.00  0.00    +0.200 C 
BRANCH  27   3
ATOM      3  O   UNL     1       5.434  -0.689  24.708  0.00  0.00    -0.380 OA
ATOM     28  C   UNL     1       4.840  -1.765  23.994  0.00  0.00    +0.194 C 
ENDBRANCH  27   3
ENDBRANCH  26  27
ENDBRANCH   2  26
ENDBRANCH  25   2
ENDBRANCH  20  21
BRANCH  18  10
ATOM      4  N   UNL     1      -4.609   1.938  24.487  0.00  0.00    -0.288 NA
ATOM     10  C   UNL     1      -4.015   0.895  25.346  0.00  0.00    +0.146 C 
ATOM     11  C   UNL     1      -6.056   1.868  24.692  0.00  0.00    +0.085 C 
ATOM     14  C   UNL     1      -5.109  -0.180  25.470  0.00  0.00    +0.030 C 
ATOM     15  C   UNL     1      -6.300   0.373  24.700  0.00  0.00    +0.017 C 
BRANCH   4   9
ATOM      5  N   UNL     1      -1.798   5.100  24.893  0.00  0.00    -0.305 NA
ATOM      9  C   UNL     1      -4.081   3.275  24.752  0.00  0.00    +0.060 C 
ATOM     12  C   UNL     1      -3.406   3.836  23.499  0.00  0.00    +0.034 C 
ATOM     13  C   UNL     1      -3.084   3.248  25.914  0.00  0.00    +0.034 C 
ATOM     16  C   UNL     1      -2.760   5.194  23.785  0.00  0.00    +0.085 C 
ATOM     17  C   UNL     1      -2.447   4.625  26.123  0.00  0.00    +0.085 C 
ATOM     19  C   UNL     1      -1.153   6.392  25.122  0.00  0.00    +0.104 C 
ENDBRANCH   4   9
ENDBRANCH  18  10
TORSDOF 7
ENDMDL
MODEL 4
REMARK VINA RESULT:       2.7      1.859      3.897
REMARK  Name = 45783556
REMARK  9 active torsions:
REMARK  status: ('A' for Active; 'I' for Inactive)
REMARK    1  A    between atoms: O_2  and  C_25
REMARK    2  A    between atoms: O_2  and  C_26
REMARK    3  A    between atoms: O_3  and  C_27
REMARK    4  A    between atoms: O_3  and  C_28
REMARK    5  A    between atoms: N_4  and  C_9
REMARK    6  A    between atoms: N_5  and  C_19
REMARK    7  A    between atoms: C_10  and  C_18
REMARK    8  A    between atoms: C_20  and  C_21
REMARK    9  A    between atoms: C_26  and  C_27
REMARK                            x       y       z     vdW  Elec       q    Type
REMARK                         _______ _______ _______ _____ _____    ______ ____
ROOT
ATOM      1  O   UNL     1      -1.287   1.136  24.385  0.00  0.00    -0.336 OA
ATOM      6  N   UNL     1      -0.118  -0.761  24.160  0.00  0.00    -0.190 NA
ATOM      7  N   UNL     1       0.007   1.519  24.011  0.00  0.00    -0.056 NA
ATOM     18  C   UNL     1      -1.275  -0.222  24.450  0.00  0.00    +0.245 A 
ATOM     20  C   UNL     1       0.637   0.345  23.897  0.00  0.00    +0.204 A 
ENDROOT
BRANCH  20  21
ATOM      8  N   UNL     1       3.992   1.292  22.606  0.00  0.00    -0.221 NA
ATOM     21  C   UNL     1       2.018   0.243  23.526  0.00  0.00    +0.041 A 
ATOM     22  C   UNL     1       2.722  -0.943  23.703  0.00  0.00    +0.018 A 
ATOM     23  C   UNL     1       2.694   1.322  22.978  0.00  0.00    +0.126 A 
ATOM     24  C   UNL     1       4.060  -1.012  23.332  0.00  0.00    +0.068 A 
ATOM     25  C   UNL     1       4.644   0.123  22.793  0.00  0.00    +0.215 A 
BRANCH  25   2
ATOM      2  O   UNL     1       5.962   0.079  22.419  0.00  0.00    -0.474 OA
BRANCH   2  26
ATOM     26  C   UNL     1       6.900  -0.289  23.423  0.00  0.00    +0.258 C 
BRANCH  26  27
ATOM     27  C   UNL     1       8.134  -0.867  22.760  0.00  0.00    +0.200 C 
BRANCH  27   3
ATOM      3  O   UNL     1       9.162   0.116  22.756  0.00  0.00    -0.380 OA
ATOM     28  C   UNL     1       9.614   0.401  24.074  0.00  0.00    +0.194 C 
ENDBRANCH  27   3
ENDBRANCH  26  27
ENDBRANCH   2  26
ENDBRANCH  25   2
ENDBRANCH  20  21
BRANCH  18  10
ATOM      4  N   UNL     1      -3.630  -0.716  23.820  0.00  0.00    -0.288 NA
ATOM     10  C   UNL     1      -2.576  -0.890  24.839  0.00  0.00    +0.146 C 
ATOM     11  C   UNL     1      -4.498  -1.890  23.918  0.00  0.00    +0.085 C 
ATOM     14  C   UNL     1      -2.437  -2.415  25.000  0.00  0.00    +0.030 C 
ATOM     15  C   UNL     1      -3.492  -3.011  24.079  0.00  0.00    +0.017 C 
BRANCH   4   9
ATOM      5  N   UNL     1      -4.652   3.170  25.206  0.00  0.00    -0.305 NA
ATOM      9  C   UNL     1      -4.376   0.533  23.970  0.00  0.00    +0.060 C 
ATOM     12  C   UNL     1      -3.504   1.722  23.559  0.00  0.00    +0.034 C 
ATOM     13  C   UNL     1      -4.859   0.712  25.411  0.00  0.00    +0.034 C 
ATOM     16  C   UNL     1      -4.234   3.046  23.803  0.00  0.00    +0.085 C 
ATOM     17  C   UNL     1      -5.545   2.069  25.596  0.00  0.00    +0.085 C 
ATOM     19  C   UNL     1      -5.303   4.460  25.435  0.00  0.00    +0.104 C 
ENDBRANCH   4   9
ENDBRANCH  18  10
TORSDOF 7
ENDMDL
