MODEL 1
REMARK VINA RESULT:       4.1      0.000      0.000
REMARK  Name = 11885339
REMARK  7 active torsions:
REMARK  status: ('A' for Active; 'I' for Inactive)
REMARK    1  A    between atoms: N_2  and  C_12
REMARK    2  A    between atoms: N_4  and  C_25
REMARK    3  A    between atoms: N_4  and  C_30
REMARK    4  A    between atoms: N_4  and  C_31
REMARK    5  A    between atoms: C_12  and  C_17
REMARK    6  A    between atoms: C_15  and  C_18
REMARK    7  A    between atoms: C_21  and  C_25
REMARK                            x       y       z     vdW  Elec       q    Type
REMARK                         _______ _______ _______ _____ _____    ______ ____
ROOT
ATOM      1  O   UNL     1       0.877   2.244  25.668  0.00  0.00    -0.267 OA
ATOM      2  N   UNL     1      -4.102   1.811  25.251  0.00  0.00    -0.297 NA
ATOM      3  N   UNL     1      -1.143   2.853  24.675  0.00  0.00    -0.311 N 
ATOM      5  C   UNL     1      -3.048   3.965  25.981  0.00  0.00    +0.024 C 
ATOM      6  C   UNL     1      -3.319   3.507  23.591  0.00  0.00    +0.050 C 
ATOM      7  C   UNL     1      -3.390   4.609  24.644  0.00  0.00    +0.017 C 
ATOM      8  C   UNL     1      -4.053   2.838  26.298  0.00  0.00    +0.090 C 
ATOM      9  C   UNL     1      -4.348   2.404  23.928  0.00  0.00    +0.094 C 
ATOM     10  C   UNL     1      -1.597   3.466  25.933  0.00  0.00    +0.130 C 
ATOM     11  C   UNL     1      -1.920   2.922  23.517  0.00  0.00    +0.026 A 
ATOM     13  C   UNL     1      -1.439   2.456  22.353  0.00  0.00    +0.022 A 
ATOM     14  C   UNL     1       0.149   2.292  24.675  0.00  0.00    +0.259 A 
ATOM     15  C   UNL     1       0.648   1.746  23.364  0.00  0.00    +0.047 A 
ATOM     16  C   UNL     1      -0.137   1.856  22.282  0.00  0.00    +0.015 A 
ENDROOT
BRANCH  15  18
ATOM     18  C   UNL     1       1.967   1.097  23.259  0.00  0.00    -0.008 A 
ATOM     21  C   UNL     1       2.094  -0.293  23.245  0.00  0.00    -0.026 A 
ATOM     22  C   UNL     1       3.107   1.899  23.173  0.00  0.00    +0.009 A 
ATOM     26  C   UNL     1       3.357  -0.880  23.145  0.00  0.00    +0.005 A 
ATOM     28  C   UNL     1       4.369   1.313  23.074  0.00  0.00    +0.001 A 
ATOM     29  C   UNL     1       4.494  -0.077  23.060  0.00  0.00    +0.000 A 
BRANCH  21  25
ATOM     25  C   UNL     1       0.898  -1.185  23.335  0.00  0.00    +0.119 C 
BRANCH  25   4
ATOM      4  N   UNL     1       0.206  -1.058  24.617  0.00  0.00    -0.304 NA
ATOM     30  C   UNL     1       0.290  -2.309  25.369  0.00  0.00    +0.104 C 
ATOM     31  C   UNL     1      -1.191  -0.679  24.408  0.00  0.00    +0.104 C 
ENDBRANCH  25   4
ENDBRANCH  21  25
ENDBRANCH  15  18
BRANCH   2  12
ATOM     12  C   UNL     1      -5.101   0.792  25.563  0.00  0.00    +0.119 C 
BRANCH  12  17
ATOM     17  C   UNL     1      -4.611  -0.593  25.233  0.00  0.00    -0.033 A 
ATOM     19  C   UNL     1      -4.927  -1.155  24.004  0.00  0.00    +0.005 A 
ATOM     20  C   UNL     1      -3.851  -1.289  26.163  0.00  0.00    +0.005 A 
ATOM     23  C   UNL     1      -4.474  -2.438  23.698  0.00  0.00    +0.000 A 
ATOM     24  C   UNL     1      -3.397  -2.572  25.857  0.00  0.00    +0.000 A 
ATOM     27  C   UNL     1      -3.709  -3.147  24.625  0.00  0.00    +0.000 A 
ENDBRANCH  12  17
ENDBRANCH   2  12
TORSDOF 5
ENDMDL
MODEL 2
REMARK VINA RESULT:       4.3      1.789      7.262
REMARK  Name = 11885339
REMARK  7 active torsions:
REMARK  status: ('A' for Active; 'I' for Inactive)
REMARK    1  A    between atoms: N_2  and  C_12
REMARK    2  A    between atoms: N_4  and  C_25
REMARK    3  A    between atoms: N_4  and  C_30
REMARK    4  A    between atoms: N_4  and  C_31
REMARK    5  A    between atoms: C_12  and  C_17
REMARK    6  A    between atoms: C_15  and  C_18
REMARK    7  A    between atoms: C_21  and  C_25
REMARK                            x       y       z     vdW  Elec       q    Type
REMARK                         _______ _______ _______ _____ _____    ______ ____
ROOT
ATOM      1  O   UNL     1      -2.236   1.830  26.491  0.00  0.00    -0.267 OA
ATOM      2  N   UNL     1       0.499  -0.825  23.234  0.00  0.00    -0.297 NA
ATOM      3  N   UNL     1      -1.885  -0.093  25.220  0.00  0.00    -0.311 N 
ATOM      5  C   UNL     1       0.128  -1.639  25.575  0.00  0.00    +0.024 C 
ATOM      6  C   UNL     1      -1.518  -2.167  23.841  0.00  0.00    +0.050 C 
ATOM      7  C   UNL     1      -0.807  -2.730  25.069  0.00  0.00    +0.017 C 
ATOM      8  C   UNL     1       1.145  -1.262  24.477  0.00  0.00    +0.090 C 
ATOM      9  C   UNL     1      -0.475  -1.817  22.755  0.00  0.00    +0.094 C 
ATOM     10  C   UNL     1      -0.713  -0.441  26.037  0.00  0.00    +0.130 C 
ATOM     11  C   UNL     1      -2.336  -0.941  24.206  0.00  0.00    +0.026 A 
ATOM     13  C   UNL     1      -3.472  -0.662  23.548  0.00  0.00    +0.022 A 
ATOM     14  C   UNL     1      -2.584   1.075  25.581  0.00  0.00    +0.259 A 
ATOM     15  C   UNL     1      -3.835   1.382  24.803  0.00  0.00    +0.047 A 
ATOM     16  C   UNL     1      -4.227   0.521  23.851  0.00  0.00    +0.015 A 
ENDROOT
BRANCH  15  18
ATOM     18  C   UNL     1      -4.620   2.601  25.066  0.00  0.00    -0.008 A 
ATOM     21  C   UNL     1      -4.180   3.856  24.639  0.00  0.00    -0.026 A 
ATOM     22  C   UNL     1      -5.827   2.488  25.759  0.00  0.00    +0.009 A 
ATOM     26  C   UNL     1      -4.944   4.993  24.903  0.00  0.00    +0.005 A 
ATOM     28  C   UNL     1      -6.591   3.626  26.023  0.00  0.00    +0.001 A 
ATOM     29  C   UNL     1      -6.150   4.878  25.596  0.00  0.00    +0.000 A 
BRANCH  21  25
ATOM     25  C   UNL     1      -2.893   4.018  23.895  0.00  0.00    +0.119 C 
BRANCH  25   4
ATOM      4  N   UNL     1      -1.750   4.176  24.793  0.00  0.00    -0.304 NA
ATOM     30  C   UNL     1      -1.479   5.594  25.029  0.00  0.00    +0.104 C 
ATOM     31  C   UNL     1      -0.569   3.516  24.238  0.00  0.00    +0.104 C 
ENDBRANCH  25   4
ENDBRANCH  21  25
ENDBRANCH  15  18
BRANCH   2  12
ATOM     12  C   UNL     1       1.493  -0.528  22.204  0.00  0.00    +0.119 C 
BRANCH  12  17
ATOM     17  C   UNL     1       2.868  -0.342  22.788  0.00  0.00    -0.033 A 
ATOM     19  C   UNL     1       3.503  -1.415  23.398  0.00  0.00    +0.005 A 
ATOM     20  C   UNL     1       3.483   0.900  22.707  0.00  0.00    +0.005 A 
ATOM     23  C   UNL     1       4.776  -1.243  23.939  0.00  0.00    +0.000 A 
ATOM     24  C   UNL     1       4.757   1.072  23.247  0.00  0.00    +0.000 A 
ATOM     27  C   UNL     1       5.404   0.001  23.864  0.00  0.00    +0.000 A 
ENDBRANCH  12  17
ENDBRANCH   2  12
TORSDOF 5
ENDMDL
MODEL 3
REMARK VINA RESULT:       6.5      1.468      4.555
REMARK  Name = 11885339
REMARK  7 active torsions:
REMARK  status: ('A' for Active; 'I' for Inactive)
REMARK    1  A    between atoms: N_2  and  C_12
REMARK    2  A    between atoms: N_4  and  C_25
REMARK    3  A    between atoms: N_4  and  C_30
REMARK    4  A    between atoms: N_4  and  C_31
REMARK    5  A    between atoms: C_12  and  C_17
REMARK    6  A    between atoms: C_15  and  C_18
REMARK    7  A    between atoms: C_21  and  C_25
REMARK                            x       y       z     vdW  Elec       q    Type
REMARK                         _______ _______ _______ _____ _____    ______ ____
ROOT
ATOM      1  O   UNL     1      -0.552  -0.265  22.061  0.00  0.00    -0.267 OA
ATOM      2  N   UNL     1      -4.316  -0.284  25.374  0.00  0.00    -0.297 NA
ATOM      3  N   UNL     1      -1.803  -1.332  23.714  0.00  0.00    -0.311 N 
ATOM      5  C   UNL     1      -4.293  -1.872  23.434  0.00  0.00    +0.024 C 
ATOM      6  C   UNL     1      -3.142  -2.486  25.507  0.00  0.00    +0.050 C 
ATOM      7  C   UNL     1      -3.993  -3.038  24.367  0.00  0.00    +0.017 C 
ATOM      8  C   UNL     1      -5.050  -0.765  24.198  0.00  0.00    +0.090 C 
ATOM      9  C   UNL     1      -3.935  -1.394  26.261  0.00  0.00    +0.094 C 
ATOM     10  C   UNL     1      -2.974  -1.373  22.827  0.00  0.00    +0.130 C 
ATOM     11  C   UNL     1      -1.835  -1.923  24.980  0.00  0.00    +0.026 A 
ATOM     13  C   UNL     1      -0.721  -1.974  25.728  0.00  0.00    +0.022 A 
ATOM     14  C   UNL     1      -0.627  -0.765  23.185  0.00  0.00    +0.259 A 
ATOM     15  C   UNL     1       0.596  -0.805  24.062  0.00  0.00    +0.047 A 
ATOM     16  C   UNL     1       0.509  -1.401  25.260  0.00  0.00    +0.015 A 
ENDROOT
BRANCH  15  18
ATOM     18  C   UNL     1       1.868  -0.201  23.626  0.00  0.00    -0.008 A 
ATOM     21  C   UNL     1       1.965   1.162  23.338  0.00  0.00    -0.026 A 
ATOM     22  C   UNL     1       2.994  -1.019  23.503  0.00  0.00    +0.009 A 
ATOM     26  C   UNL     1       3.183   1.705  22.928  0.00  0.00    +0.005 A 
ATOM     28  C   UNL     1       4.211  -0.475  23.092  0.00  0.00    +0.001 A 
ATOM     29  C   UNL     1       4.306   0.887  22.804  0.00  0.00    +0.000 A 
BRANCH  21  25
ATOM     25  C   UNL     1       0.783   2.069  23.458  0.00  0.00    +0.119 C 
BRANCH  25   4
ATOM      4  N   UNL     1       0.671   2.659  24.791  0.00  0.00    -0.304 NA
ATOM     30  C   UNL     1      -0.150   1.812  25.657  0.00  0.00    +0.104 C 
ATOM     31  C   UNL     1       0.105   4.005  24.709  0.00  0.00    +0.104 C 
ENDBRANCH  25   4
ENDBRANCH  21  25
ENDBRANCH  15  18
BRANCH   2  12
ATOM     12  C   UNL     1      -5.088   0.723  26.098  0.00  0.00    +0.119 C 
BRANCH  12  17
ATOM     17  C   UNL     1      -4.826   2.112  25.579  0.00  0.00    -0.033 A 
ATOM     19  C   UNL     1      -3.671   2.363  24.852  0.00  0.00    +0.005 A 
ATOM     20  C   UNL     1      -5.744   3.121  25.833  0.00  0.00    +0.005 A 
ATOM     23  C   UNL     1      -3.428   3.649  24.371  0.00  0.00    +0.000 A 
ATOM     24  C   UNL     1      -5.502   4.407  25.351  0.00  0.00    +0.000 A 
ATOM     27  C   UNL     1      -4.344   4.672  24.620  0.00  0.00    +0.000 A 
ENDBRANCH  12  17
ENDBRANCH   2  12
TORSDOF 5
ENDMDL
