MODEL 1
REMARK VINA RESULT:       3.4      0.000      0.000
REMARK  Name = 44716323
REMARK  10 active torsions:
REMARK  status: ('A' for Active; 'I' for Inactive)
REMARK    1  A    between atoms: N_3  and  C_19
REMARK    2  A    between atoms: N_4  and  C_14
REMARK    3  A    between atoms: N_4  and  C_18
REMARK    4  A    between atoms: N_6  and  C_27
REMARK    5  A    between atoms: N_6  and  C_30
REMARK    6  A    between atoms: N_6  and  C_31
REMARK    7  A    between atoms: C_8  and  C_15
REMARK    8  A    between atoms: C_9  and  C_14
REMARK    9  A    between atoms: C_17  and  C_20
REMARK   10  A    between atoms: C_18  and  C_21
REMARK                            x       y       z     vdW  Elec       q    Type
REMARK                         _______ _______ _______ _____ _____    ______ ____
ROOT
ATOM      2  N   UNL     1      -5.522   2.463  26.340  0.00  0.00    -0.298 NA
ATOM      7  C   UNL     1      -5.465   1.410  23.959  0.00  0.00    +0.002 C 
ATOM      8  C   UNL     1      -4.755   0.480  24.982  0.00  0.00    +0.055 C 
ATOM      9  C   UNL     1      -5.031   3.462  25.354  0.00  0.00    +0.071 C 
ATOM     10  C   UNL     1      -4.793   2.799  23.980  0.00  0.00    +0.024 C 
ATOM     11  C   UNL     1      -6.913   1.598  24.459  0.00  0.00    +0.019 C 
ATOM     12  C   UNL     1      -4.651   1.261  26.323  0.00  0.00    +0.094 C 
ATOM     13  C   UNL     1      -6.886   2.052  25.929  0.00  0.00    +0.085 C 
ENDROOT
BRANCH   8  15
ATOM      3  N   UNL     1      -3.319  -1.453  24.181  0.00  0.00    -0.270 N 
ATOM      5  N   UNL     1      -2.064  -1.819  23.868  0.00  0.00    -0.171 NA
ATOM     15  C   UNL     1      -3.430  -0.153  24.578  0.00  0.00    +0.044 A 
ATOM     16  C   UNL     1      -2.161   0.368  24.521  0.00  0.00    +0.053 A 
ATOM     17  C   UNL     1      -1.361  -0.703  24.077  0.00  0.00    +0.093 A 
ATOM     19  C   UNL     1      -4.383  -2.424  24.076  0.00  0.00    +0.172 C 
BRANCH  17  20
ATOM     20  C   UNL     1       0.060  -0.680  23.851  0.00  0.00    +0.002 A 
ATOM     22  C   UNL     1       0.608   0.222  22.938  0.00  0.00    +0.012 A 
ATOM     23  C   UNL     1       0.891  -1.558  24.547  0.00  0.00    +0.012 A 
ATOM     25  C   UNL     1       1.985   0.245  22.720  0.00  0.00    +0.024 A 
ATOM     26  C   UNL     1       2.268  -1.535  24.329  0.00  0.00    +0.024 A 
ATOM     27  C   UNL     1       2.815  -0.635  23.415  0.00  0.00    +0.029 A 
BRANCH  27   6
ATOM      6  N   UNL     1       4.208  -0.611  23.195  0.00  0.00    -0.336 N 
ATOM     30  C   UNL     1       5.066  -1.604  23.811  0.00  0.00    +0.129 C 
ATOM     31  C   UNL     1       4.801   0.411  22.356  0.00  0.00    +0.129 C 
ENDBRANCH  27   6
ENDBRANCH  17  20
ENDBRANCH   8  15
BRANCH   9  14
ATOM     14  C   UNL     1      -3.789   4.207  25.849  0.00  0.00    +0.100 C 
BRANCH  14   4
ATOM      4  N   UNL     1      -3.102   4.856  24.745  0.00  0.00    -0.308 NA
ATOM     32  H   UNL     1      -3.622   5.693  24.476  0.00  0.00    +0.122 HD
BRANCH   4  18
ATOM     18  C   UNL     1      -1.740   5.218  25.115  0.00  0.00    +0.155 C 
BRANCH  18  21
ATOM      1  O   UNL     1      -1.072   3.349  26.524  0.00  0.00    -0.467 OA
ATOM     21  C   UNL     1      -0.882   4.005  25.349  0.00  0.00    +0.119 A 
ATOM     24  C   UNL     1       0.096   3.385  24.604  0.00  0.00    +0.046 A 
ATOM     28  C   UNL     1       0.533   2.279  25.370  0.00  0.00    +0.041 A 
ATOM     29  C   UNL     1      -0.209   2.300  26.529  0.00  0.00    +0.195 A 
ENDBRANCH  18  21
ENDBRANCH   4  18
ENDBRANCH  14   4
ENDBRANCH   9  14
TORSDOF 7
ENDMDL
MODEL 2
REMARK VINA RESULT:       3.6      0.522      1.282
REMARK  Name = 44716323
REMARK  10 active torsions:
REMARK  status: ('A' for Active; 'I' for Inactive)
REMARK    1  A    between atoms: N_3  and  C_19
REMARK    2  A    between atoms: N_4  and  C_14
REMARK    3  A    between atoms: N_4  and  C_18
REMARK    4  A    between atoms: N_6  and  C_27
REMARK    5  A    between atoms: N_6  and  C_30
REMARK    6  A    between atoms: N_6  and  C_31
REMARK    7  A    between atoms: C_8  and  C_15
REMARK    8  A    between atoms: C_9  and  C_14
REMARK    9  A    between atoms: C_17  and  C_20
REMARK   10  A    between atoms: C_18  and  C_21
REMARK                            x       y       z     vdW  Elec       q    Type
REMARK                         _______ _______ _______ _____ _____    ______ ____
ROOT
ATOM      2  N   UNL     1      -5.552   2.345  26.294  0.00  0.00    -0.298 NA
ATOM      7  C   UNL     1      -5.413   1.382  23.878  0.00  0.00    +0.002 C 
ATOM      8  C   UNL     1      -4.755   0.405  24.891  0.00  0.00    +0.055 C 
ATOM      9  C   UNL     1      -5.010   3.374  25.367  0.00  0.00    +0.071 C 
ATOM     10  C   UNL     1      -4.726   2.760  23.979  0.00  0.00    +0.024 C 
ATOM     11  C   UNL     1      -6.877   1.571  24.327  0.00  0.00    +0.019 C 
ATOM     12  C   UNL     1      -4.696   1.133  26.265  0.00  0.00    +0.094 C 
ATOM     13  C   UNL     1      -6.903   1.968  25.814  0.00  0.00    +0.085 C 
ENDROOT
BRANCH   8  15
ATOM      3  N   UNL     1      -3.300  -1.540  24.160  0.00  0.00    -0.270 N 
ATOM      5  N   UNL     1      -2.040  -1.907  23.867  0.00  0.00    -0.171 NA
ATOM     15  C   UNL     1      -3.423  -0.230  24.516  0.00  0.00    +0.044 A 
ATOM     16  C   UNL     1      -2.158   0.298  24.452  0.00  0.00    +0.053 A 
ATOM     17  C   UNL     1      -1.347  -0.779  24.046  0.00  0.00    +0.093 A 
ATOM     19  C   UNL     1      -4.356  -2.522  24.077  0.00  0.00    +0.172 C 
BRANCH  17  20
ATOM     20  C   UNL     1       0.076  -0.752  23.830  0.00  0.00    +0.002 A 
ATOM     22  C   UNL     1       0.916  -1.550  24.607  0.00  0.00    +0.012 A 
ATOM     23  C   UNL     1       0.615   0.072  22.842  0.00  0.00    +0.012 A 
ATOM     25  C   UNL     1       2.294  -1.525  24.396  0.00  0.00    +0.024 A 
ATOM     26  C   UNL     1       1.994   0.098  22.632  0.00  0.00    +0.024 A 
ATOM     27  C   UNL     1       2.833  -0.700  23.409  0.00  0.00    +0.029 A 
BRANCH  27   6
ATOM      6  N   UNL     1       4.227  -0.675  23.197  0.00  0.00    -0.336 N 
ATOM     30  C   UNL     1       4.829   0.377  22.400  0.00  0.00    +0.129 C 
ATOM     31  C   UNL     1       5.075  -1.703  23.765  0.00  0.00    +0.129 C 
ENDBRANCH  27   6
ENDBRANCH  17  20
ENDBRANCH   8  15
BRANCH   9  14
ATOM     14  C   UNL     1      -3.781   4.083  25.938  0.00  0.00    +0.100 C 
BRANCH  14   4
ATOM      4  N   UNL     1      -3.143   4.907  24.926  0.00  0.00    -0.308 NA
ATOM     32  H   UNL     1      -3.684   5.763  24.804  0.00  0.00    +0.122 HD
BRANCH   4  18
ATOM     18  C   UNL     1      -1.775   5.237  25.304  0.00  0.00    +0.155 C 
BRANCH  18  21
ATOM      1  O   UNL     1      -0.247   3.701  24.196  0.00  0.00    -0.467 OA
ATOM     21  C   UNL     1      -0.895   4.017  25.347  0.00  0.00    +0.119 A 
ATOM     24  C   UNL     1      -0.589   3.112  26.338  0.00  0.00    +0.046 A 
ATOM     28  C   UNL     1       0.305   2.181  25.757  0.00  0.00    +0.041 A 
ATOM     29  C   UNL     1       0.482   2.583  24.454  0.00  0.00    +0.195 A 
ENDBRANCH  18  21
ENDBRANCH   4  18
ENDBRANCH  14   4
ENDBRANCH   9  14
TORSDOF 7
ENDMDL
MODEL 3
REMARK VINA RESULT:       3.8      1.868      3.742
REMARK  Name = 44716323
REMARK  10 active torsions:
REMARK  status: ('A' for Active; 'I' for Inactive)
REMARK    1  A    between atoms: N_3  and  C_19
REMARK    2  A    between atoms: N_4  and  C_14
REMARK    3  A    between atoms: N_4  and  C_18
REMARK    4  A    between atoms: N_6  and  C_27
REMARK    5  A    between atoms: N_6  and  C_30
REMARK    6  A    between atoms: N_6  and  C_31
REMARK    7  A    between atoms: C_8  and  C_15
REMARK    8  A    between atoms: C_9  and  C_14
REMARK    9  A    between atoms: C_17  and  C_20
REMARK   10  A    between atoms: C_18  and  C_21
REMARK                            x       y       z     vdW  Elec       q    Type
REMARK                         _______ _______ _______ _____ _____    ______ ____
ROOT
ATOM      2  N   UNL     1      -5.076   3.725  24.680  0.00  0.00    -0.298 NA
ATOM      7  C   UNL     1      -2.828   3.672  25.993  0.00  0.00    +0.002 C 
ATOM      8  C   UNL     1      -2.563   3.659  24.462  0.00  0.00    +0.055 C 
ATOM      9  C   UNL     1      -5.119   2.662  25.719  0.00  0.00    +0.071 C 
ATOM     10  C   UNL     1      -3.729   2.476  26.365  0.00  0.00    +0.024 C 
ATOM     11  C   UNL     1      -3.629   4.956  26.297  0.00  0.00    +0.019 C 
ATOM     12  C   UNL     1      -3.939   3.488  23.757  0.00  0.00    +0.094 C 
ATOM     13  C   UNL     1      -4.853   5.020  25.365  0.00  0.00    +0.085 C 
ENDROOT
BRANCH   8  15
ATOM      3  N   UNL     1      -1.751   1.848  22.882  0.00  0.00    -0.270 N 
ATOM      5  N   UNL     1      -0.696   1.080  22.557  0.00  0.00    -0.171 NA
ATOM     15  C   UNL     1      -1.514   2.698  23.922  0.00  0.00    +0.044 A 
ATOM     16  C   UNL     1      -0.215   2.472  24.303  0.00  0.00    +0.053 A 
ATOM     17  C   UNL     1       0.239   1.466  23.428  0.00  0.00    +0.093 A 
ATOM     19  C   UNL     1      -2.981   1.706  22.138  0.00  0.00    +0.172 C 
BRANCH  17  20
ATOM     20  C   UNL     1       1.548   0.866  23.411  0.00  0.00    +0.002 A 
ATOM     22  C   UNL     1       1.688  -0.510  23.592  0.00  0.00    +0.012 A 
ATOM     23  C   UNL     1       2.676   1.662  23.213  0.00  0.00    +0.012 A 
ATOM     25  C   UNL     1       2.955  -1.091  23.574  0.00  0.00    +0.024 A 
ATOM     26  C   UNL     1       3.944   1.081  23.195  0.00  0.00    +0.024 A 
ATOM     27  C   UNL     1       4.084  -0.295  23.376  0.00  0.00    +0.029 A 
BRANCH  27   6
ATOM      6  N   UNL     1       5.365  -0.883  23.358  0.00  0.00    -0.336 N 
ATOM     30  C   UNL     1       6.510  -0.135  22.875  0.00  0.00    +0.129 C 
ATOM     31  C   UNL     1       5.555  -2.245  23.815  0.00  0.00    +0.129 C 
ENDBRANCH  27   6
ENDBRANCH  17  20
ENDBRANCH   8  15
BRANCH   9  14
ATOM     14  C   UNL     1      -5.677   1.342  25.180  0.00  0.00    +0.100 C 
BRANCH  14   4
ATOM      4  N   UNL     1      -4.834   0.226  25.573  0.00  0.00    -0.308 NA
ATOM     32  H   UNL     1      -5.364  -0.393  26.186  0.00  0.00    +0.122 HD
BRANCH   4  18
ATOM     18  C   UNL     1      -4.368  -0.514  24.407  0.00  0.00    +0.155 C 
BRANCH  18  21
ATOM      1  O   UNL     1      -2.140  -0.470  25.387  0.00  0.00    -0.467 OA
ATOM     21  C   UNL     1      -3.042  -1.179  24.659  0.00  0.00    +0.119 A 
ATOM     24  C   UNL     1      -2.518  -2.400  24.299  0.00  0.00    +0.046 A 
ATOM     28  C   UNL     1      -1.212  -2.443  24.842  0.00  0.00    +0.041 A 
ATOM     29  C   UNL     1      -1.030  -1.246  25.494  0.00  0.00    +0.195 A 
ENDBRANCH  18  21
ENDBRANCH   4  18
ENDBRANCH  14   4
ENDBRANCH   9  14
TORSDOF 7
ENDMDL
MODEL 4
REMARK VINA RESULT:       4.7      1.926      2.878
REMARK  Name = 44716323
REMARK  10 active torsions:
REMARK  status: ('A' for Active; 'I' for Inactive)
REMARK    1  A    between atoms: N_3  and  C_19
REMARK    2  A    between atoms: N_4  and  C_14
REMARK    3  A    between atoms: N_4  and  C_18
REMARK    4  A    between atoms: N_6  and  C_27
REMARK    5  A    between atoms: N_6  and  C_30
REMARK    6  A    between atoms: N_6  and  C_31
REMARK    7  A    between atoms: C_8  and  C_15
REMARK    8  A    between atoms: C_9  and  C_14
REMARK    9  A    between atoms: C_17  and  C_20
REMARK   10  A    between atoms: C_18  and  C_21
REMARK                            x       y       z     vdW  Elec       q    Type
REMARK                         _______ _______ _______ _____ _____    ______ ____
ROOT
ATOM      2  N   UNL     1      -3.986   2.401  25.430  0.00  0.00    -0.298 NA
ATOM      7  C   UNL     1      -2.793   2.406  23.115  0.00  0.00    +0.002 C 
ATOM      8  C   UNL     1      -2.641   1.021  23.801  0.00  0.00    +0.055 C 
ATOM      9  C   UNL     1      -3.099   3.589  25.317  0.00  0.00    +0.071 C 
ATOM     10  C   UNL     1      -2.229   3.501  24.045  0.00  0.00    +0.024 C 
ATOM     11  C   UNL     1      -4.307   2.669  22.970  0.00  0.00    +0.019 C 
ATOM     12  C   UNL     1      -3.196   1.158  25.248  0.00  0.00    +0.094 C 
ATOM     13  C   UNL     1      -4.986   2.477  24.338  0.00  0.00    +0.085 C 
ENDROOT
BRANCH   8  15
ATOM      3  N   UNL     1      -1.104  -0.992  23.950  0.00  0.00    -0.270 N 
ATOM      5  N   UNL     1       0.179  -1.389  23.885  0.00  0.00    -0.171 NA
ATOM     15  C   UNL     1      -1.275   0.348  23.768  0.00  0.00    +0.044 A 
ATOM     16  C   UNL     1      -0.019   0.865  23.571  0.00  0.00    +0.053 A 
ATOM     17  C   UNL     1       0.837  -0.250  23.653  0.00  0.00    +0.093 A 
ATOM     19  C   UNL     1      -2.133  -1.975  24.197  0.00  0.00    +0.172 C 
BRANCH  17  20
ATOM     20  C   UNL     1       2.270  -0.247  23.516  0.00  0.00    +0.002 A 
ATOM     22  C   UNL     1       3.010  -1.367  23.896  0.00  0.00    +0.012 A 
ATOM     23  C   UNL     1       2.919   0.876  23.004  0.00  0.00    +0.012 A 
ATOM     25  C   UNL     1       4.398  -1.365  23.763  0.00  0.00    +0.024 A 
ATOM     26  C   UNL     1       4.308   0.878  22.870  0.00  0.00    +0.024 A 
ATOM     27  C   UNL     1       5.047  -0.241  23.250  0.00  0.00    +0.029 A 
BRANCH  27   6
ATOM      6  N   UNL     1       6.451  -0.240  23.116  0.00  0.00    -0.336 N 
ATOM     30  C   UNL     1       7.115  -1.274  22.346  0.00  0.00    +0.129 C 
ATOM     31  C   UNL     1       7.249   0.790  23.751  0.00  0.00    +0.129 C 
ENDBRANCH  27   6
ENDBRANCH  17  20
ENDBRANCH   8  15
BRANCH   9  14
ATOM     14  C   UNL     1      -2.250   3.803  26.573  0.00  0.00    +0.100 C 
BRANCH  14   4
ATOM      4  N   UNL     1      -0.837   3.647  26.274  0.00  0.00    -0.308 NA
ATOM     32  H   UNL     1      -0.315   4.397  26.729  0.00  0.00    +0.122 HD
BRANCH   4  18
ATOM     18  C   UNL     1      -0.343   2.355  26.732  0.00  0.00    +0.155 C 
BRANCH  18  21
ATOM      1  O   UNL     1       1.870   2.943  27.555  0.00  0.00    -0.467 OA
ATOM     21  C   UNL     1       0.626   2.497  27.873  0.00  0.00    +0.119 A 
ATOM     24  C   UNL     1       0.528   2.267  29.227  0.00  0.00    +0.046 A 
ATOM     28  C   UNL     1       1.792   2.592  29.774  0.00  0.00    +0.041 A 
ATOM     29  C   UNL     1       2.573   2.998  28.717  0.00  0.00    +0.195 A 
ENDBRANCH  18  21
ENDBRANCH   4  18
ENDBRANCH  14   4
ENDBRANCH   9  14
TORSDOF 7
ENDMDL
MODEL 5
REMARK VINA RESULT:       5.7      1.665      3.279
REMARK  Name = 44716323
REMARK  10 active torsions:
REMARK  status: ('A' for Active; 'I' for Inactive)
REMARK    1  A    between atoms: N_3  and  C_19
REMARK    2  A    between atoms: N_4  and  C_14
REMARK    3  A    between atoms: N_4  and  C_18
REMARK    4  A    between atoms: N_6  and  C_27
REMARK    5  A    between atoms: N_6  and  C_30
REMARK    6  A    between atoms: N_6  and  C_31
REMARK    7  A    between atoms: C_8  and  C_15
REMARK    8  A    between atoms: C_9  and  C_14
REMARK    9  A    between atoms: C_17  and  C_20
REMARK   10  A    between atoms: C_18  and  C_21
REMARK                            x       y       z     vdW  Elec       q    Type
REMARK                         _______ _______ _______ _____ _____    ______ ____
ROOT
ATOM      2  N   UNL     1      -4.027  -0.165  25.600  0.00  0.00    -0.298 NA
ATOM      7  C   UNL     1      -2.993  -1.435  23.575  0.00  0.00    +0.002 C 
ATOM      8  C   UNL     1      -1.899  -1.114  24.631  0.00  0.00    +0.055 C 
ATOM      9  C   UNL     1      -4.442   0.483  24.327  0.00  0.00    +0.071 C 
ATOM     10  C   UNL     1      -3.676  -0.124  23.132  0.00  0.00    +0.024 C 
ATOM     11  C   UNL     1      -4.065  -2.287  24.289  0.00  0.00    +0.019 C 
ATOM     12  C   UNL     1      -2.547  -0.188  25.700  0.00  0.00    +0.094 C 
ATOM     13  C   UNL     1      -4.510  -1.566  25.574  0.00  0.00    +0.085 C 
ENDROOT
BRANCH   8  15
ATOM      3  N   UNL     1      -0.439   0.576  23.426  0.00  0.00    -0.270 N 
ATOM      5  N   UNL     1       0.827   0.873  23.085  0.00  0.00    -0.171 NA
ATOM     15  C   UNL     1      -0.561  -0.580  24.139  0.00  0.00    +0.044 A 
ATOM     16  C   UNL     1       0.713  -1.075  24.275  0.00  0.00    +0.053 A 
ATOM     17  C   UNL     1       1.526  -0.139  23.606  0.00  0.00    +0.093 A 
ATOM     19  C   UNL     1      -1.504   1.465  23.023  0.00  0.00    +0.172 C 
BRANCH  17  20
ATOM     20  C   UNL     1       2.956  -0.195  23.455  0.00  0.00    +0.002 A 
ATOM     22  C   UNL     1       3.657  -1.333  23.854  0.00  0.00    +0.012 A 
ATOM     23  C   UNL     1       3.642   0.890  22.909  0.00  0.00    +0.012 A 
ATOM     25  C   UNL     1       5.043  -1.388  23.707  0.00  0.00    +0.024 A 
ATOM     26  C   UNL     1       5.028   0.836  22.761  0.00  0.00    +0.024 A 
ATOM     27  C   UNL     1       5.728  -0.302  23.161  0.00  0.00    +0.029 A 
BRANCH  27   6
ATOM      6  N   UNL     1       7.129  -0.358  23.012  0.00  0.00    -0.336 N 
ATOM     30  C   UNL     1       7.741  -1.401  22.212  0.00  0.00    +0.129 C 
ATOM     31  C   UNL     1       7.977   0.621  23.662  0.00  0.00    +0.129 C 
ENDBRANCH  27   6
ENDBRANCH  17  20
ENDBRANCH   8  15
BRANCH   9  14
ATOM     14  C   UNL     1      -4.303   2.007  24.377  0.00  0.00    +0.100 C 
BRANCH  14   4
ATOM      4  N   UNL     1      -4.573   2.506  25.715  0.00  0.00    -0.308 NA
ATOM     32  H   UNL     1      -4.108   1.904  26.395  0.00  0.00    +0.122 HD
BRANCH   4  18
ATOM     18  C   UNL     1      -4.101   3.877  25.867  0.00  0.00    +0.155 C 
BRANCH  18  21
ATOM      1  O   UNL     1      -1.835   3.029  26.134  0.00  0.00    -0.467 OA
ATOM     21  C   UNL     1      -2.626   3.996  25.597  0.00  0.00    +0.119 A 
ATOM     24  C   UNL     1      -1.867   4.906  24.896  0.00  0.00    +0.046 A 
ATOM     28  C   UNL     1      -0.525   4.470  25.010  0.00  0.00    +0.041 A 
ATOM     29  C   UNL     1      -0.559   3.325  25.772  0.00  0.00    +0.195 A 
ENDBRANCH  18  21
ENDBRANCH   4  18
ENDBRANCH  14   4
ENDBRANCH   9  14
TORSDOF 7
ENDMDL
MODEL 6
REMARK VINA RESULT:       5.7      1.706      4.032
REMARK  Name = 44716323
REMARK  10 active torsions:
REMARK  status: ('A' for Active; 'I' for Inactive)
REMARK    1  A    between atoms: N_3  and  C_19
REMARK    2  A    between atoms: N_4  and  C_14
REMARK    3  A    between atoms: N_4  and  C_18
REMARK    4  A    between atoms: N_6  and  C_27
REMARK    5  A    between atoms: N_6  and  C_30
REMARK    6  A    between atoms: N_6  and  C_31
REMARK    7  A    between atoms: C_8  and  C_15
REMARK    8  A    between atoms: C_9  and  C_14
REMARK    9  A    between atoms: C_17  and  C_20
REMARK   10  A    between atoms: C_18  and  C_21
REMARK                            x       y       z     vdW  Elec       q    Type
REMARK                         _______ _______ _______ _____ _____    ______ ____
ROOT
ATOM      2  N   UNL     1      -5.866   2.297  24.367  0.00  0.00    -0.298 NA
ATOM      7  C   UNL     1      -4.333   3.758  25.883  0.00  0.00    +0.002 C 
ATOM      8  C   UNL     1      -3.727   3.633  24.458  0.00  0.00    +0.055 C 
ATOM      9  C   UNL     1      -5.606   1.596  25.653  0.00  0.00    +0.071 C 
ATOM     10  C   UNL     1      -4.537   2.348  26.476  0.00  0.00    +0.024 C 
ATOM     11  C   UNL     1      -5.732   4.388  25.720  0.00  0.00    +0.019 C 
ATOM     12  C   UNL     1      -4.583   2.592  23.681  0.00  0.00    +0.094 C 
ATOM     13  C   UNL     1      -6.531   3.585  24.678  0.00  0.00    +0.085 C 
ENDROOT
BRANCH   8  15
ATOM      3  N   UNL     1      -1.285   4.315  24.560  0.00  0.00    -0.270 N 
ATOM      5  N   UNL     1      -0.025   3.876  24.396  0.00  0.00    -0.171 NA
ATOM     15  C   UNL     1      -2.234   3.362  24.332  0.00  0.00    +0.044 A 
ATOM     16  C   UNL     1      -1.549   2.221  23.997  0.00  0.00    +0.053 A 
ATOM     17  C   UNL     1      -0.193   2.596  24.052  0.00  0.00    +0.093 A 
ATOM     19  C   UNL     1      -1.508   5.691  24.941  0.00  0.00    +0.172 C 
BRANCH  17  20
ATOM     20  C   UNL     1       0.944   1.756  23.781  0.00  0.00    +0.002 A 
ATOM     22  C   UNL     1       0.802   0.368  23.776  0.00  0.00    +0.012 A 
ATOM     23  C   UNL     1       2.189   2.330  23.523  0.00  0.00    +0.012 A 
ATOM     25  C   UNL     1       1.904  -0.445  23.513  0.00  0.00    +0.024 A 
ATOM     26  C   UNL     1       3.291   1.517  23.259  0.00  0.00    +0.024 A 
ATOM     27  C   UNL     1       3.149   0.129  23.255  0.00  0.00    +0.029 A 
BRANCH  27   6
ATOM      6  N   UNL     1       4.262  -0.694  22.989  0.00  0.00    -0.336 N 
ATOM     30  C   UNL     1       4.382  -1.993  23.622  0.00  0.00    +0.129 C 
ATOM     31  C   UNL     1       5.305  -0.251  22.085  0.00  0.00    +0.129 C 
ENDBRANCH  27   6
ENDBRANCH  17  20
ENDBRANCH   8  15
BRANCH   9  14
ATOM     14  C   UNL     1      -5.238   0.125  25.450  0.00  0.00    +0.100 C 
BRANCH  14   4
ATOM      4  N   UNL     1      -4.484  -0.055  24.221  0.00  0.00    -0.308 NA
ATOM     32  H   UNL     1      -3.675   0.567  24.233  0.00  0.00    +0.122 HD
BRANCH   4  18
ATOM     18  C   UNL     1      -4.043  -1.436  24.074  0.00  0.00    +0.155 C 
BRANCH  18  21
ATOM      1  O   UNL     1      -2.285  -0.776  25.622  0.00  0.00    -0.467 OA
ATOM     21  C   UNL     1      -2.674  -1.653  24.660  0.00  0.00    +0.119 A 
ATOM     24  C   UNL     1      -1.687  -2.584  24.428  0.00  0.00    +0.046 A 
ATOM     28  C   UNL     1      -0.624  -2.257  25.303  0.00  0.00    +0.041 A 
ATOM     29  C   UNL     1      -1.037  -1.150  26.008  0.00  0.00    +0.195 A 
ENDBRANCH  18  21
ENDBRANCH   4  18
ENDBRANCH  14   4
ENDBRANCH   9  14
TORSDOF 7
ENDMDL
