MODEL 1
REMARK VINA RESULT:       0.4      0.000      0.000
REMARK  Name = 7164827
REMARK  15 active torsions:
REMARK  status: ('A' for Active; 'I' for Inactive)
REMARK    1  A    between atoms: O_4  and  C_20
REMARK    2  A    between atoms: O_4  and  C_29
REMARK    3  A    between atoms: O_5  and  C_23
REMARK    4  A    between atoms: O_5  and  C_33
REMARK    5  A    between atoms: O_7  and  C_32
REMARK    6  A    between atoms: O_7  and  C_34
REMARK    7  A    between atoms: N_10  and  C_19
REMARK    8  A    between atoms: N_11  and  C_22
REMARK    9  A    between atoms: C_12  and  C_16
REMARK   10  A    between atoms: C_17  and  C_20
REMARK   11  A    between atoms: C_19  and  C_21
REMARK   12  A    between atoms: C_19  and  C_23
REMARK   13  A    between atoms: C_21  and  C_24
REMARK   14  A    between atoms: C_22  and  C_25
REMARK   15  A    between atoms: C_22  and  C_26
REMARK                            x       y       z     vdW  Elec       q    Type
REMARK                         _______ _______ _______ _____ _____    ______ ____
ROOT
ATOM      2  O   UNL     1      -3.372  -1.634  26.440  0.00  0.00    -0.273 OA
ATOM      3  O   UNL     1       1.675   0.020  21.625  0.00  0.00    -0.253 OA
ATOM      8  N   UNL     1      -2.019  -0.897  24.697  0.00  0.00    -0.285 N 
ATOM      9  N   UNL     1       0.484  -1.015  23.324  0.00  0.00    -0.282 N 
ATOM     11  N   UNL     1       2.794  -0.561  23.540  0.00  0.00    -0.297 N 
ATOM     12  C   UNL     1      -0.783  -1.095  25.464  0.00  0.00    +0.179 C 
ATOM     13  C   UNL     1       0.369  -1.668  24.635  0.00  0.00    +0.141 C 
ATOM     14  C   UNL     1      -1.867  -0.295  23.362  0.00  0.00    +0.127 C 
ATOM     15  C   UNL     1      -0.766  -0.979  22.566  0.00  0.00    +0.128 C 
ATOM     17  C   UNL     1      -3.250  -1.129  25.321  0.00  0.00    +0.242 C 
ATOM     18  C   UNL     1       1.652  -0.483  22.753  0.00  0.00    +0.303 C 
ATOM     36  H   UNL     1       2.741  -0.830  24.512  0.00  0.00    +0.150 HD
ENDROOT
BRANCH  12  16
ATOM      1  O   UNL     1      -0.596   0.492  27.240  0.00  0.00    -0.274 OA
ATOM     10  N   UNL     1       0.070   1.114  25.097  0.00  0.00    -0.301 N 
ATOM     16  C   UNL     1      -0.428   0.241  26.049  0.00  0.00    +0.236 C 
ATOM     35  H   UNL     1       0.232   0.784  24.151  0.00  0.00    +0.150 HD
BRANCH  10  19
ATOM     19  C   UNL     1       0.464   2.471  25.399  0.00  0.00    +0.186 C 
BRANCH  19  23
ATOM      6  O   UNL     1      -0.635   3.064  27.469  0.00  0.00    -0.249 OA
ATOM     23  C   UNL     1       0.407   2.772  26.891  0.00  0.00    +0.328 C 
BRANCH  23   5
ATOM      5  O   UNL     1       1.635   2.694  27.478  0.00  0.00    -0.467 OA
ATOM     33  C   UNL     1       1.638   2.634  28.908  0.00  0.00    +0.280 C 
ENDBRANCH  23   5
ENDBRANCH  19  23
BRANCH  19  21
ATOM     21  C   UNL     1      -0.346   3.484  24.577  0.00  0.00    +0.069 C 
BRANCH  21  24
ATOM     24  C   UNL     1      -1.841   3.424  24.795  0.00  0.00    -0.045 A 
ATOM     27  C   UNL     1      -2.419   4.117  25.859  0.00  0.00    +0.007 A 
ATOM     28  C   UNL     1      -2.642   2.674  23.933  0.00  0.00    +0.007 A 
ATOM     30  C   UNL     1      -3.798   4.061  26.061  0.00  0.00    +0.046 A 
ATOM     31  C   UNL     1      -4.022   2.619  24.135  0.00  0.00    +0.046 A 
ATOM     32  C   UNL     1      -4.599   3.312  25.198  0.00  0.00    +0.120 A 
BRANCH  32   7
ATOM      7  O   UNL     1      -5.945   3.257  25.395  0.00  0.00    -0.495 OA
ATOM     34  C   UNL     1      -6.560   1.972  25.322  0.00  0.00    +0.277 C 
ENDBRANCH  32   7
ENDBRANCH  21  24
ENDBRANCH  19  21
ENDBRANCH  10  19
ENDBRANCH  12  16
BRANCH  11  22
ATOM     22  C   UNL     1       4.074  -0.061  23.089  0.00  0.00    +0.068 C 
ATOM     25  C   UNL     1       3.998   1.437  22.819  0.00  0.00    +0.027 C 
ATOM     26  C   UNL     1       5.158  -0.384  24.109  0.00  0.00    +0.027 C 
ENDBRANCH  11  22
BRANCH  17  20
ATOM     20  C   UNL     1      -4.484  -0.730  24.553  0.00  0.00    +0.255 C 
BRANCH  20   4
ATOM      4  O   UNL     1      -4.558  -1.586  23.439  0.00  0.00    -0.374 OA
ATOM     29  C   UNL     1      -4.297  -2.945  23.789  0.00  0.00    +0.194 C 
ENDBRANCH  20   4
ENDBRANCH  17  20
TORSDOF 10
ENDMDL
MODEL 2
REMARK VINA RESULT:       1.2      1.247      1.659
REMARK  Name = 7164827
REMARK  15 active torsions:
REMARK  status: ('A' for Active; 'I' for Inactive)
REMARK    1  A    between atoms: O_4  and  C_20
REMARK    2  A    between atoms: O_4  and  C_29
REMARK    3  A    between atoms: O_5  and  C_23
REMARK    4  A    between atoms: O_5  and  C_33
REMARK    5  A    between atoms: O_7  and  C_32
REMARK    6  A    between atoms: O_7  and  C_34
REMARK    7  A    between atoms: N_10  and  C_19
REMARK    8  A    between atoms: N_11  and  C_22
REMARK    9  A    between atoms: C_12  and  C_16
REMARK   10  A    between atoms: C_17  and  C_20
REMARK   11  A    between atoms: C_19  and  C_21
REMARK   12  A    between atoms: C_19  and  C_23
REMARK   13  A    between atoms: C_21  and  C_24
REMARK   14  A    between atoms: C_22  and  C_25
REMARK   15  A    between atoms: C_22  and  C_26
REMARK                            x       y       z     vdW  Elec       q    Type
REMARK                         _______ _______ _______ _____ _____    ______ ____
ROOT
ATOM      2  O   UNL     1      -3.415  -1.183  26.539  0.00  0.00    -0.273 OA
ATOM      3  O   UNL     1       1.520  -0.441  21.392  0.00  0.00    -0.253 OA
ATOM      8  N   UNL     1      -2.119  -0.880  24.631  0.00  0.00    -0.285 N 
ATOM      9  N   UNL     1       0.440  -1.001  23.365  0.00  0.00    -0.282 N 
ATOM     11  N   UNL     1       2.612  -0.065  23.373  0.00  0.00    -0.297 N 
ATOM     12  C   UNL     1      -0.915  -0.546  25.402  0.00  0.00    +0.179 C 
ATOM     13  C   UNL     1       0.370  -1.146  24.826  0.00  0.00    +0.141 C 
ATOM     14  C   UNL     1      -2.001  -0.783  23.166  0.00  0.00    +0.127 C 
ATOM     15  C   UNL     1      -0.747  -1.483  22.662  0.00  0.00    +0.128 C 
ATOM     17  C   UNL     1      -3.321  -1.103  25.311  0.00  0.00    +0.242 C 
ATOM     18  C   UNL     1       1.523  -0.498  22.626  0.00  0.00    +0.303 C 
ATOM     36  H   UNL     1       2.550   0.031  24.377  0.00  0.00    +0.150 HD
ENDROOT
BRANCH  12  16
ATOM      1  O   UNL     1      -0.897   1.568  26.516  0.00  0.00    -0.274 OA
ATOM     10  N   UNL     1      -0.747   1.517  24.193  0.00  0.00    -0.301 N 
ATOM     16  C   UNL     1      -0.847   0.954  25.453  0.00  0.00    +0.236 C 
ATOM     35  H   UNL     1      -0.645   0.914  23.382  0.00  0.00    +0.150 HD
BRANCH  10  19
ATOM     19  C   UNL     1      -0.689   2.943  23.967  0.00  0.00    +0.186 C 
BRANCH  19  23
ATOM      6  O   UNL     1       0.648   3.343  25.941  0.00  0.00    -0.249 OA
ATOM     23  C   UNL     1      -0.270   3.710  25.215  0.00  0.00    +0.328 C 
BRANCH  23   5
ATOM      5  O   UNL     1      -1.042   4.814  25.422  0.00  0.00    -0.467 OA
ATOM     33  C   UNL     1      -0.666   5.982  24.683  0.00  0.00    +0.280 C 
ENDBRANCH  23   5
ENDBRANCH  19  23
BRANCH  19  21
ATOM     21  C   UNL     1      -2.007   3.470  23.383  0.00  0.00    +0.069 C 
BRANCH  21  24
ATOM     24  C   UNL     1      -3.226   3.215  24.242  0.00  0.00    -0.045 A 
ATOM     27  C   UNL     1      -3.424   3.956  25.406  0.00  0.00    +0.007 A 
ATOM     28  C   UNL     1      -4.150   2.238  23.869  0.00  0.00    +0.007 A 
ATOM     30  C   UNL     1      -4.548   3.722  26.199  0.00  0.00    +0.046 A 
ATOM     31  C   UNL     1      -5.274   2.004  24.662  0.00  0.00    +0.046 A 
ATOM     32  C   UNL     1      -5.473   2.745  25.826  0.00  0.00    +0.120 A 
BRANCH  32   7
ATOM      7  O   UNL     1      -6.569   2.516  26.600  0.00  0.00    -0.495 OA
ATOM     34  C   UNL     1      -6.673   1.233  27.214  0.00  0.00    +0.277 C 
ENDBRANCH  32   7
ENDBRANCH  21  24
ENDBRANCH  19  21
ENDBRANCH  10  19
ENDBRANCH  12  16
BRANCH  11  22
ATOM     22  C   UNL     1       3.802   0.475  22.755  0.00  0.00    +0.068 C 
ATOM     25  C   UNL     1       3.711   1.993  22.655  0.00  0.00    +0.027 C 
ATOM     26  C   UNL     1       5.041   0.046  23.528  0.00  0.00    +0.027 C 
ENDBRANCH  11  22
BRANCH  17  20
ATOM     20  C   UNL     1      -4.560  -1.254  24.465  0.00  0.00    +0.255 C 
BRANCH  20   4
ATOM      4  O   UNL     1      -4.438  -2.483  23.792  0.00  0.00    -0.374 OA
ATOM     29  C   UNL     1      -3.645  -3.418  24.522  0.00  0.00    +0.194 C 
ENDBRANCH  20   4
ENDBRANCH  17  20
TORSDOF 10
ENDMDL
MODEL 3
REMARK VINA RESULT:       1.9      1.855      5.354
REMARK  Name = 7164827
REMARK  15 active torsions:
REMARK  status: ('A' for Active; 'I' for Inactive)
REMARK    1  A    between atoms: O_4  and  C_20
REMARK    2  A    between atoms: O_4  and  C_29
REMARK    3  A    between atoms: O_5  and  C_23
REMARK    4  A    between atoms: O_5  and  C_33
REMARK    5  A    between atoms: O_7  and  C_32
REMARK    6  A    between atoms: O_7  and  C_34
REMARK    7  A    between atoms: N_10  and  C_19
REMARK    8  A    between atoms: N_11  and  C_22
REMARK    9  A    between atoms: C_12  and  C_16
REMARK   10  A    between atoms: C_17  and  C_20
REMARK   11  A    between atoms: C_19  and  C_21
REMARK   12  A    between atoms: C_19  and  C_23
REMARK   13  A    between atoms: C_21  and  C_24
REMARK   14  A    between atoms: C_22  and  C_25
REMARK   15  A    between atoms: C_22  and  C_26
REMARK                            x       y       z     vdW  Elec       q    Type
REMARK                         _______ _______ _______ _____ _____    ______ ____
ROOT
ATOM      2  O   UNL     1       3.666   0.820  21.839  0.00  0.00    -0.273 OA
ATOM      3  O   UNL     1      -1.564  -2.461  25.484  0.00  0.00    -0.253 OA
ATOM      8  N   UNL     1       2.235  -0.280  23.308  0.00  0.00    -0.285 N 
ATOM      9  N   UNL     1      -0.273  -1.565  23.779  0.00  0.00    -0.282 N 
ATOM     11  N   UNL     1      -2.607  -1.201  23.878  0.00  0.00    -0.297 N 
ATOM     12  C   UNL     1       1.030   0.222  22.638  0.00  0.00    +0.179 C 
ATOM     13  C   UNL     1      -0.090  -0.816  22.528  0.00  0.00    +0.141 C 
ATOM     14  C   UNL     1       2.019  -1.077  24.526  0.00  0.00    +0.127 C 
ATOM     15  C   UNL     1       0.959  -2.147  24.310  0.00  0.00    +0.128 C 
ATOM     17  C   UNL     1       3.489   0.151  22.861  0.00  0.00    +0.242 C 
ATOM     18  C   UNL     1      -1.486  -1.787  24.451  0.00  0.00    +0.303 C 
ATOM     36  H   UNL     1      -2.518  -0.530  23.128  0.00  0.00    +0.150 HD
ENDROOT
BRANCH  12  16
ATOM      1  O   UNL     1       1.320   1.983  24.226  0.00  0.00    -0.274 OA
ATOM     10  N   UNL     1      -0.714   1.797  23.109  0.00  0.00    -0.301 N 
ATOM     16  C   UNL     1       0.585   1.429  23.412  0.00  0.00    +0.236 C 
ATOM     35  H   UNL     1      -1.213   1.311  22.369  0.00  0.00    +0.150 HD
BRANCH  10  19
ATOM     19  C   UNL     1      -1.386   2.913  23.734  0.00  0.00    +0.186 C 
BRANCH  19  23
ATOM      6  O   UNL     1      -1.628   1.710  25.817  0.00  0.00    -0.249 OA
ATOM     23  C   UNL     1      -1.437   2.782  25.251  0.00  0.00    +0.328 C 
BRANCH  23   5
ATOM      5  O   UNL     1      -1.264   3.980  25.876  0.00  0.00    -0.467 OA
ATOM     33  C   UNL     1      -0.872   5.070  25.035  0.00  0.00    +0.280 C 
ENDBRANCH  23   5
ENDBRANCH  19  23
BRANCH  19  21
ATOM     21  C   UNL     1      -2.780   3.136  23.130  0.00  0.00    +0.069 C 
BRANCH  21  24
ATOM     24  C   UNL     1      -3.929   2.880  24.079  0.00  0.00    -0.045 A 
ATOM     27  C   UNL     1      -4.337   3.878  24.963  0.00  0.00    +0.007 A 
ATOM     28  C   UNL     1      -4.580   1.646  24.070  0.00  0.00    +0.007 A 
ATOM     30  C   UNL     1      -5.397   3.643  25.840  0.00  0.00    +0.046 A 
ATOM     31  C   UNL     1      -5.640   1.411  24.946  0.00  0.00    +0.046 A 
ATOM     32  C   UNL     1      -6.048   2.409  25.831  0.00  0.00    +0.120 A 
BRANCH  32   7
ATOM      7  O   UNL     1      -7.082   2.179  26.686  0.00  0.00    -0.495 OA
ATOM     34  C   UNL     1      -6.890   1.175  27.681  0.00  0.00    +0.277 C 
ENDBRANCH  32   7
ENDBRANCH  21  24
ENDBRANCH  19  21
ENDBRANCH  10  19
ENDBRANCH  12  16
BRANCH  11  22
ATOM     22  C   UNL     1      -3.927  -1.343  24.451  0.00  0.00    +0.068 C 
ATOM     25  C   UNL     1      -4.595  -2.617  23.949  0.00  0.00    +0.027 C 
ATOM     26  C   UNL     1      -3.849  -1.322  25.972  0.00  0.00    +0.027 C 
ENDBRANCH  11  22
BRANCH  17  20
ATOM     20  C   UNL     1       4.679  -0.243  23.700  0.00  0.00    +0.255 C 
BRANCH  20   4
ATOM      4  O   UNL     1       5.793   0.416  23.150  0.00  0.00    -0.374 OA
ATOM     29  C   UNL     1       6.931  -0.441  23.059  0.00  0.00    +0.194 C 
ENDBRANCH  20   4
ENDBRANCH  17  20
TORSDOF 10
ENDMDL
MODEL 4
REMARK VINA RESULT:       2.0      1.430      4.987
REMARK  Name = 7164827
REMARK  15 active torsions:
REMARK  status: ('A' for Active; 'I' for Inactive)
REMARK    1  A    between atoms: O_4  and  C_20
REMARK    2  A    between atoms: O_4  and  C_29
REMARK    3  A    between atoms: O_5  and  C_23
REMARK    4  A    between atoms: O_5  and  C_33
REMARK    5  A    between atoms: O_7  and  C_32
REMARK    6  A    between atoms: O_7  and  C_34
REMARK    7  A    between atoms: N_10  and  C_19
REMARK    8  A    between atoms: N_11  and  C_22
REMARK    9  A    between atoms: C_12  and  C_16
REMARK   10  A    between atoms: C_17  and  C_20
REMARK   11  A    between atoms: C_19  and  C_21
REMARK   12  A    between atoms: C_19  and  C_23
REMARK   13  A    between atoms: C_21  and  C_24
REMARK   14  A    between atoms: C_22  and  C_25
REMARK   15  A    between atoms: C_22  and  C_26
REMARK                            x       y       z     vdW  Elec       q    Type
REMARK                         _______ _______ _______ _____ _____    ______ ____
ROOT
ATOM      2  O   UNL     1       3.355   1.517  22.543  0.00  0.00    -0.273 OA
ATOM      3  O   UNL     1      -2.049  -2.740  24.559  0.00  0.00    -0.253 OA
ATOM      8  N   UNL     1       1.871  -0.048  23.415  0.00  0.00    -0.285 N 
ATOM      9  N   UNL     1      -0.729  -1.234  23.392  0.00  0.00    -0.282 N 
ATOM     11  N   UNL     1      -3.018  -0.807  23.800  0.00  0.00    -0.297 N 
ATOM     12  C   UNL     1       0.697   0.789  23.137  0.00  0.00    +0.179 C 
ATOM     13  C   UNL     1      -0.513   0.002  22.627  0.00  0.00    +0.141 C 
ATOM     14  C   UNL     1       1.616  -1.309  24.130  0.00  0.00    +0.127 C 
ATOM     15  C   UNL     1       0.460  -2.078  23.508  0.00  0.00    +0.128 C 
ATOM     17  C   UNL     1       3.146   0.459  23.142  0.00  0.00    +0.242 C 
ATOM     18  C   UNL     1      -1.939  -1.666  23.959  0.00  0.00    +0.303 C 
ATOM     36  H   UNL     1      -2.890   0.132  23.448  0.00  0.00    +0.150 HD
ENDROOT
BRANCH  12  16
ATOM      1  O   UNL     1       0.007   0.921  25.421  0.00  0.00    -0.274 OA
ATOM     10  N   UNL     1       0.546   2.885  24.291  0.00  0.00    -0.301 N 
ATOM     16  C   UNL     1       0.382   1.515  24.414  0.00  0.00    +0.236 C 
ATOM     35  H   UNL     1       0.926   3.269  23.431  0.00  0.00    +0.150 HD
BRANCH  10  19
ATOM     19  C   UNL     1       0.285   3.811  25.369  0.00  0.00    +0.186 C 
BRANCH  19  23
ATOM      6  O   UNL     1      -0.977   2.866  27.201  0.00  0.00    -0.249 OA
ATOM     23  C   UNL     1       0.121   3.107  26.710  0.00  0.00    +0.328 C 
BRANCH  23   5
ATOM      5  O   UNL     1       1.321   2.807  27.282  0.00  0.00    -0.467 OA
ATOM     33  C   UNL     1       1.279   2.463  28.671  0.00  0.00    +0.280 C 
ENDBRANCH  23   5
ENDBRANCH  19  23
BRANCH  19  21
ATOM     21  C   UNL     1      -0.910   4.720  25.047  0.00  0.00    +0.069 C 
BRANCH  21  24
ATOM     24  C   UNL     1      -2.243   4.009  24.970  0.00  0.00    -0.045 A 
ATOM     27  C   UNL     1      -3.223   4.262  25.929  0.00  0.00    +0.007 A 
ATOM     28  C   UNL     1      -2.490   3.101  23.940  0.00  0.00    +0.007 A 
ATOM     30  C   UNL     1      -4.453   3.607  25.859  0.00  0.00    +0.046 A 
ATOM     31  C   UNL     1      -3.720   2.445  23.870  0.00  0.00    +0.046 A 
ATOM     32  C   UNL     1      -4.701   2.698  24.829  0.00  0.00    +0.120 A 
BRANCH  32   7
ATOM      7  O   UNL     1      -5.900   2.058  24.761  0.00  0.00    -0.495 OA
ATOM     34  C   UNL     1      -6.557   1.775  25.996  0.00  0.00    +0.277 C 
ENDBRANCH  32   7
ENDBRANCH  21  24
ENDBRANCH  19  21
ENDBRANCH  10  19
ENDBRANCH  12  16
BRANCH  11  22
ATOM     22  C   UNL     1      -4.330  -1.114  24.325  0.00  0.00    +0.068 C 
ATOM     25  C   UNL     1      -4.764  -2.511  23.897  0.00  0.00    +0.027 C 
ATOM     26  C   UNL     1      -4.340  -0.972  25.841  0.00  0.00    +0.027 C 
ENDBRANCH  11  22
BRANCH  17  20
ATOM     20  C   UNL     1       4.317  -0.362  23.620  0.00  0.00    +0.255 C 
BRANCH  20   4
ATOM      4  O   UNL     1       5.458   0.449  23.482  0.00  0.00    -0.374 OA
ATOM     29  C   UNL     1       6.606  -0.302  23.092  0.00  0.00    +0.194 C 
ENDBRANCH  20   4
ENDBRANCH  17  20
TORSDOF 10
ENDMDL
MODEL 5
REMARK VINA RESULT:       2.0      1.281      1.720
REMARK  Name = 7164827
REMARK  15 active torsions:
REMARK  status: ('A' for Active; 'I' for Inactive)
REMARK    1  A    between atoms: O_4  and  C_20
REMARK    2  A    between atoms: O_4  and  C_29
REMARK    3  A    between atoms: O_5  and  C_23
REMARK    4  A    between atoms: O_5  and  C_33
REMARK    5  A    between atoms: O_7  and  C_32
REMARK    6  A    between atoms: O_7  and  C_34
REMARK    7  A    between atoms: N_10  and  C_19
REMARK    8  A    between atoms: N_11  and  C_22
REMARK    9  A    between atoms: C_12  and  C_16
REMARK   10  A    between atoms: C_17  and  C_20
REMARK   11  A    between atoms: C_19  and  C_21
REMARK   12  A    between atoms: C_19  and  C_23
REMARK   13  A    between atoms: C_21  and  C_24
REMARK   14  A    between atoms: C_22  and  C_25
REMARK   15  A    between atoms: C_22  and  C_26
REMARK                            x       y       z     vdW  Elec       q    Type
REMARK                         _______ _______ _______ _____ _____    ______ ____
ROOT
ATOM      2  O   UNL     1      -3.141  -0.732  26.261  0.00  0.00    -0.273 OA
ATOM      3  O   UNL     1       1.953  -0.243  21.240  0.00  0.00    -0.253 OA
ATOM      8  N   UNL     1      -1.777  -0.445  24.399  0.00  0.00    -0.285 N 
ATOM      9  N   UNL     1       0.764  -0.820  23.145  0.00  0.00    -0.282 N 
ATOM     11  N   UNL     1       3.046  -0.213  23.254  0.00  0.00    -0.297 N 
ATOM     12  C   UNL     1      -0.554  -0.362  25.206  0.00  0.00    +0.179 C 
ATOM     13  C   UNL     1       0.644  -1.086  24.585  0.00  0.00    +0.141 C 
ATOM     14  C   UNL     1      -1.616  -0.233  22.951  0.00  0.00    +0.127 C 
ATOM     15  C   UNL     1      -0.466  -1.057  22.391  0.00  0.00    +0.128 C 
ATOM     17  C   UNL     1      -3.012  -0.554  25.047  0.00  0.00    +0.242 C 
ATOM     18  C   UNL     1       1.922  -0.412  22.463  0.00  0.00    +0.303 C 
ATOM     36  H   UNL     1       2.979  -0.202  24.263  0.00  0.00    +0.150 HD
ENDROOT
BRANCH  12  16
ATOM      1  O   UNL     1      -0.267   1.889  24.456  0.00  0.00    -0.274 OA
ATOM     10  N   UNL     1      -0.009   1.414  26.721  0.00  0.00    -0.301 N 
ATOM     16  C   UNL     1      -0.272   1.101  25.398  0.00  0.00    +0.236 C 
ATOM     35  H   UNL     1      -0.105   0.697  27.434  0.00  0.00    +0.150 HD
BRANCH  10  19
ATOM     19  C   UNL     1       0.315   2.749  27.168  0.00  0.00    +0.186 C 
BRANCH  19  23
ATOM      6  O   UNL     1       2.443   3.122  28.251  0.00  0.00    -0.249 OA
ATOM     23  C   UNL     1       1.279   2.747  28.347  0.00  0.00    +0.328 C 
BRANCH  23   5
ATOM      5  O   UNL     1       0.698   2.271  29.484  0.00  0.00    -0.467 OA
ATOM     33  C   UNL     1       1.589   2.005  30.573  0.00  0.00    +0.280 C 
ENDBRANCH  23   5
ENDBRANCH  19  23
BRANCH  19  21
ATOM     21  C   UNL     1      -0.954   3.562  27.463  0.00  0.00    +0.069 C 
BRANCH  21  24
ATOM     24  C   UNL     1      -1.915   3.678  26.301  0.00  0.00    -0.045 A 
ATOM     27  C   UNL     1      -1.587   4.470  25.202  0.00  0.00    +0.007 A 
ATOM     28  C   UNL     1      -3.129   2.991  26.330  0.00  0.00    +0.007 A 
ATOM     30  C   UNL     1      -2.473   4.577  24.129  0.00  0.00    +0.046 A 
ATOM     31  C   UNL     1      -4.015   3.098  25.257  0.00  0.00    +0.046 A 
ATOM     32  C   UNL     1      -3.688   3.891  24.158  0.00  0.00    +0.120 A 
BRANCH  32   7
ATOM      7  O   UNL     1      -4.553   3.995  23.112  0.00  0.00    -0.495 OA
ATOM     34  C   UNL     1      -4.066   3.617  21.826  0.00  0.00    +0.277 C 
ENDBRANCH  32   7
ENDBRANCH  21  24
ENDBRANCH  19  21
ENDBRANCH  10  19
ENDBRANCH  12  16
BRANCH  11  22
ATOM     22  C   UNL     1       4.314   0.204  22.698  0.00  0.00    +0.068 C 
ATOM     25  C   UNL     1       4.315   1.705  22.432  0.00  0.00    +0.027 C 
ATOM     26  C   UNL     1       5.455  -0.193  23.626  0.00  0.00    +0.027 C 
ENDBRANCH  11  22
BRANCH  17  20
ATOM     20  C   UNL     1      -4.242  -0.446  24.182  0.00  0.00    +0.255 C 
BRANCH  20   4
ATOM      4  O   UNL     1      -4.355  -1.665  23.491  0.00  0.00    -0.374 OA
ATOM     29  C   UNL     1      -3.957  -2.776  24.294  0.00  0.00    +0.194 C 
ENDBRANCH  20   4
ENDBRANCH  17  20
TORSDOF 10
ENDMDL
MODEL 6
REMARK VINA RESULT:       2.7      1.787      6.052
REMARK  Name = 7164827
REMARK  15 active torsions:
REMARK  status: ('A' for Active; 'I' for Inactive)
REMARK    1  A    between atoms: O_4  and  C_20
REMARK    2  A    between atoms: O_4  and  C_29
REMARK    3  A    between atoms: O_5  and  C_23
REMARK    4  A    between atoms: O_5  and  C_33
REMARK    5  A    between atoms: O_7  and  C_32
REMARK    6  A    between atoms: O_7  and  C_34
REMARK    7  A    between atoms: N_10  and  C_19
REMARK    8  A    between atoms: N_11  and  C_22
REMARK    9  A    between atoms: C_12  and  C_16
REMARK   10  A    between atoms: C_17  and  C_20
REMARK   11  A    between atoms: C_19  and  C_21
REMARK   12  A    between atoms: C_19  and  C_23
REMARK   13  A    between atoms: C_21  and  C_24
REMARK   14  A    between atoms: C_22  and  C_25
REMARK   15  A    between atoms: C_22  and  C_26
REMARK                            x       y       z     vdW  Elec       q    Type
REMARK                         _______ _______ _______ _____ _____    ______ ____
ROOT
ATOM      2  O   UNL     1       2.246   2.581  23.233  0.00  0.00    -0.273 OA
ATOM      3  O   UNL     1      -4.708   1.008  23.976  0.00  0.00    -0.253 OA
ATOM      8  N   UNL     1       0.111   1.700  23.511  0.00  0.00    -0.285 N 
ATOM      9  N   UNL     1      -2.720   2.081  23.456  0.00  0.00    -0.282 N 
ATOM     11  N   UNL     1      -4.504   3.230  24.497  0.00  0.00    -0.297 N 
ATOM     12  C   UNL     1      -0.453   2.985  23.939  0.00  0.00    +0.179 C 
ATOM     13  C   UNL     1      -1.849   3.262  23.377  0.00  0.00    +0.141 C 
ATOM     14  C   UNL     1      -0.801   0.545  23.544  0.00  0.00    +0.127 C 
ATOM     15  C   UNL     1      -2.133   0.870  22.885  0.00  0.00    +0.128 C 
ATOM     17  C   UNL     1       1.485   1.611  23.261  0.00  0.00    +0.242 C 
ATOM     18  C   UNL     1      -4.024   2.036  23.977  0.00  0.00    +0.303 C 
ATOM     36  H   UNL     1      -3.892   4.022  24.637  0.00  0.00    +0.150 HD
ENDROOT
BRANCH  12  16
ATOM      1  O   UNL     1      -0.520   4.001  26.101  0.00  0.00    -0.274 OA
ATOM     10  N   UNL     1      -0.366   1.682  25.949  0.00  0.00    -0.301 N 
ATOM     16  C   UNL     1      -0.458   2.967  25.441  0.00  0.00    +0.236 C 
ATOM     35  H   UNL     1      -0.387   0.890  25.314  0.00  0.00    +0.150 HD
BRANCH  10  19
ATOM     19  C   UNL     1      -0.328   1.394  27.364  0.00  0.00    +0.186 C 
BRANCH  19  23
ATOM      6  O   UNL     1       1.721   2.674  27.448  0.00  0.00    -0.249 OA
ATOM     23  C   UNL     1       0.854   2.057  28.059  0.00  0.00    +0.328 C 
BRANCH  23   5
ATOM      5  O   UNL     1       0.831   1.864  29.408  0.00  0.00    -0.467 OA
ATOM     33  C   UNL     1       2.008   2.272  30.115  0.00  0.00    +0.280 C 
ENDBRANCH  23   5
ENDBRANCH  19  23
BRANCH  19  21
ATOM     21  C   UNL     1      -0.376  -0.118  27.627  0.00  0.00    +0.069 C 
BRANCH  21  24
ATOM     24  C   UNL     1      -1.190  -0.909  26.627  0.00  0.00    -0.045 A 
ATOM     27  C   UNL     1      -0.553  -1.781  25.745  0.00  0.00    +0.007 A 
ATOM     28  C   UNL     1      -2.577  -0.764  26.587  0.00  0.00    +0.007 A 
ATOM     30  C   UNL     1      -1.303  -2.511  24.822  0.00  0.00    +0.046 A 
ATOM     31  C   UNL     1      -3.327  -1.493  25.664  0.00  0.00    +0.046 A 
ATOM     32  C   UNL     1      -2.690  -2.366  24.782  0.00  0.00    +0.120 A 
BRANCH  32   7
ATOM      7  O   UNL     1      -3.422  -3.077  23.881  0.00  0.00    -0.495 OA
ATOM     34  C   UNL     1      -4.660  -2.509  23.457  0.00  0.00    +0.277 C 
ENDBRANCH  32   7
ENDBRANCH  21  24
ENDBRANCH  19  21
ENDBRANCH  10  19
ENDBRANCH  12  16
BRANCH  11  22
ATOM     22  C   UNL     1      -5.829   3.344  25.066  0.00  0.00    +0.068 C 
ATOM     25  C   UNL     1      -6.013   2.340  26.198  0.00  0.00    +0.027 C 
ATOM     26  C   UNL     1      -6.080   4.768  25.544  0.00  0.00    +0.027 C 
ENDBRANCH  11  22
BRANCH  17  20
ATOM     20  C   UNL     1       2.040   0.231  23.009  0.00  0.00    +0.255 C 
BRANCH  20   4
ATOM      4  O   UNL     1       3.237   0.405  22.292  0.00  0.00    -0.374 OA
ATOM     29  C   UNL     1       4.387   0.173  23.104  0.00  0.00    +0.194 C 
ENDBRANCH  20   4
ENDBRANCH  17  20
TORSDOF 10
ENDMDL
MODEL 7
REMARK VINA RESULT:       3.1      2.238      6.546
REMARK  Name = 7164827
REMARK  15 active torsions:
REMARK  status: ('A' for Active; 'I' for Inactive)
REMARK    1  A    between atoms: O_4  and  C_20
REMARK    2  A    between atoms: O_4  and  C_29
REMARK    3  A    between atoms: O_5  and  C_23
REMARK    4  A    between atoms: O_5  and  C_33
REMARK    5  A    between atoms: O_7  and  C_32
REMARK    6  A    between atoms: O_7  and  C_34
REMARK    7  A    between atoms: N_10  and  C_19
REMARK    8  A    between atoms: N_11  and  C_22
REMARK    9  A    between atoms: C_12  and  C_16
REMARK   10  A    between atoms: C_17  and  C_20
REMARK   11  A    between atoms: C_19  and  C_21
REMARK   12  A    between atoms: C_19  and  C_23
REMARK   13  A    between atoms: C_21  and  C_24
REMARK   14  A    between atoms: C_22  and  C_25
REMARK   15  A    between atoms: C_22  and  C_26
REMARK                            x       y       z     vdW  Elec       q    Type
REMARK                         _______ _______ _______ _____ _____    ______ ____
ROOT
ATOM      2  O   UNL     1      -4.147  -2.163  22.707  0.00  0.00    -0.273 OA
ATOM      3  O   UNL     1      -3.488   3.834  26.579  0.00  0.00    -0.253 OA
ATOM      8  N   UNL     1      -3.836  -0.457  24.258  0.00  0.00    -0.285 N 
ATOM      9  N   UNL     1      -4.073   2.309  24.934  0.00  0.00    -0.282 N 
ATOM     11  N   UNL     1      -3.297   4.474  24.386  0.00  0.00    -0.297 N 
ATOM     12  C   UNL     1      -3.631   0.561  23.220  0.00  0.00    +0.179 C 
ATOM     13  C   UNL     1      -4.290   1.905  23.538  0.00  0.00    +0.141 C 
ATOM     14  C   UNL     1      -3.671  -0.008  25.650  0.00  0.00    +0.127 C 
ATOM     15  C   UNL     1      -4.430   1.283  25.913  0.00  0.00    +0.128 C 
ATOM     17  C   UNL     1      -4.008  -1.791  23.875  0.00  0.00    +0.242 C 
ATOM     18  C   UNL     1      -3.610   3.558  25.382  0.00  0.00    +0.303 C 
ATOM     36  H   UNL     1      -3.250   4.195  23.416  0.00  0.00    +0.150 HD
ENDROOT
BRANCH  12  16
ATOM      1  O   UNL     1      -1.633   0.914  21.957  0.00  0.00    -0.274 OA
ATOM     10  N   UNL     1      -1.466   0.546  24.250  0.00  0.00    -0.301 N 
ATOM     16  C   UNL     1      -2.145   0.703  23.053  0.00  0.00    +0.236 C 
ATOM     35  H   UNL     1      -1.991   0.440  25.113  0.00  0.00    +0.150 HD
BRANCH  10  19
ATOM     19  C   UNL     1      -0.027   0.614  24.356  0.00  0.00    +0.186 C 
BRANCH  19  23
ATOM      6  O   UNL     1       0.503   2.896  23.761  0.00  0.00    -0.249 OA
ATOM     23  C   UNL     1       0.468   2.028  24.628  0.00  0.00    +0.328 C 
BRANCH  23   5
ATOM      5  O   UNL     1       0.871   2.192  25.920  0.00  0.00    -0.467 OA
ATOM     33  C   UNL     1      -0.135   2.646  26.832  0.00  0.00    +0.280 C 
ENDBRANCH  23   5
ENDBRANCH  19  23
BRANCH  19  21
ATOM     21  C   UNL     1       0.654  -0.007  23.128  0.00  0.00    +0.069 C 
BRANCH  21  24
ATOM     24  C   UNL     1       2.166   0.012  23.165  0.00  0.00    -0.045 A 
ATOM     27  C   UNL     1       2.859   1.135  22.716  0.00  0.00    +0.007 A 
ATOM     28  C   UNL     1       2.866  -1.094  23.650  0.00  0.00    +0.007 A 
ATOM     30  C   UNL     1       4.254   1.154  22.751  0.00  0.00    +0.046 A 
ATOM     31  C   UNL     1       4.260  -1.075  23.684  0.00  0.00    +0.046 A 
ATOM     32  C   UNL     1       4.954   0.048  23.235  0.00  0.00    +0.120 A 
BRANCH  32   7
ATOM      7  O   UNL     1       6.314   0.066  23.268  0.00  0.00    -0.495 OA
ATOM     34  C   UNL     1       6.993  -1.050  22.694  0.00  0.00    +0.277 C 
ENDBRANCH  32   7
ENDBRANCH  21  24
ENDBRANCH  19  21
ENDBRANCH  10  19
ENDBRANCH  12  16
BRANCH  11  22
ATOM     22  C   UNL     1      -2.811   5.802  24.689  0.00  0.00    +0.068 C 
ATOM     25  C   UNL     1      -1.334   5.760  25.062  0.00  0.00    +0.027 C 
ATOM     26  C   UNL     1      -3.056   6.737  23.512  0.00  0.00    +0.027 C 
ENDBRANCH  11  22
BRANCH  17  20
ATOM     20  C   UNL     1      -4.025  -2.816  24.982  0.00  0.00    +0.255 C 
BRANCH  20   4
ATOM      4  O   UNL     1      -2.711  -2.896  25.475  0.00  0.00    -0.374 OA
ATOM     29  C   UNL     1      -1.741  -2.832  24.431  0.00  0.00    +0.194 C 
ENDBRANCH  20   4
ENDBRANCH  17  20
TORSDOF 10
ENDMDL
MODEL 8
REMARK VINA RESULT:       4.1      1.833      6.510
REMARK  Name = 7164827
REMARK  15 active torsions:
REMARK  status: ('A' for Active; 'I' for Inactive)
REMARK    1  A    between atoms: O_4  and  C_20
REMARK    2  A    between atoms: O_4  and  C_29
REMARK    3  A    between atoms: O_5  and  C_23
REMARK    4  A    between atoms: O_5  and  C_33
REMARK    5  A    between atoms: O_7  and  C_32
REMARK    6  A    between atoms: O_7  and  C_34
REMARK    7  A    between atoms: N_10  and  C_19
REMARK    8  A    between atoms: N_11  and  C_22
REMARK    9  A    between atoms: C_12  and  C_16
REMARK   10  A    between atoms: C_17  and  C_20
REMARK   11  A    between atoms: C_19  and  C_21
REMARK   12  A    between atoms: C_19  and  C_23
REMARK   13  A    between atoms: C_21  and  C_24
REMARK   14  A    between atoms: C_22  and  C_25
REMARK   15  A    between atoms: C_22  and  C_26
REMARK                            x       y       z     vdW  Elec       q    Type
REMARK                         _______ _______ _______ _____ _____    ______ ____
ROOT
ATOM      2  O   UNL     1      -2.934   2.465  22.308  0.00  0.00    -0.273 OA
ATOM      3  O   UNL     1      -0.440   3.211  28.988  0.00  0.00    -0.253 OA
ATOM      8  N   UNL     1      -2.498   2.656  24.585  0.00  0.00    -0.285 N 
ATOM      9  N   UNL     1      -0.659   3.282  26.681  0.00  0.00    -0.282 N 
ATOM     11  N   UNL     1       1.360   2.601  27.705  0.00  0.00    -0.297 N 
ATOM     12  C   UNL     1      -1.078   2.320  24.424  0.00  0.00    +0.179 C 
ATOM     13  C   UNL     1      -0.146   3.150  25.310  0.00  0.00    +0.141 C 
ATOM     14  C   UNL     1      -2.971   2.841  25.967  0.00  0.00    +0.127 C 
ATOM     15  C   UNL     1      -2.041   3.752  26.755  0.00  0.00    +0.128 C 
ATOM     17  C   UNL     1      -3.335   2.620  23.465  0.00  0.00    +0.242 C 
ATOM     18  C   UNL     1       0.053   3.042  27.867  0.00  0.00    +0.303 C 
ATOM     36  H   UNL     1       1.706   2.318  26.799  0.00  0.00    +0.150 HD
ENDROOT
BRANCH  12  16
ATOM      1  O   UNL     1      -0.648   0.440  25.834  0.00  0.00    -0.274 OA
ATOM     10  N   UNL     1      -1.200   0.072  23.603  0.00  0.00    -0.301 N 
ATOM     16  C   UNL     1      -0.954   0.853  24.719  0.00  0.00    +0.236 C 
ATOM     35  H   UNL     1      -1.512   0.512  22.742  0.00  0.00    +0.150 HD
BRANCH  10  19
ATOM     19  C   UNL     1      -1.121  -1.371  23.615  0.00  0.00    +0.186 C 
BRANCH  19  23
ATOM      6  O   UNL     1      -2.504  -3.227  24.312  0.00  0.00    -0.249 OA
ATOM     23  C   UNL     1      -2.388  -2.015  24.164  0.00  0.00    +0.328 C 
BRANCH  23   5
ATOM      5  O   UNL     1      -3.354  -1.093  24.442  0.00  0.00    -0.467 OA
ATOM     33  C   UNL     1      -3.801  -1.052  25.801  0.00  0.00    +0.280 C 
ENDBRANCH  23   5
ENDBRANCH  19  23
BRANCH  19  21
ATOM     21  C   UNL     1       0.135  -1.856  24.352  0.00  0.00    +0.069 C 
BRANCH  21  24
ATOM     24  C   UNL     1       1.432  -1.266  23.845  0.00  0.00    -0.045 A 
ATOM     27  C   UNL     1       2.651  -1.800  24.264  0.00  0.00    +0.007 A 
ATOM     28  C   UNL     1       1.409  -0.188  22.960  0.00  0.00    +0.007 A 
ATOM     30  C   UNL     1       3.848  -1.257  23.796  0.00  0.00    +0.046 A 
ATOM     31  C   UNL     1       2.607   0.355  22.493  0.00  0.00    +0.046 A 
ATOM     32  C   UNL     1       3.825  -0.179  22.911  0.00  0.00    +0.120 A 
BRANCH  32   7
ATOM      7  O   UNL     1       4.993   0.352  22.455  0.00  0.00    -0.495 OA
ATOM     34  C   UNL     1       6.179   0.029  23.179  0.00  0.00    +0.277 C 
ENDBRANCH  32   7
ENDBRANCH  21  24
ENDBRANCH  19  21
ENDBRANCH  10  19
ENDBRANCH  12  16
BRANCH  11  22
ATOM     22  C   UNL     1       2.220   2.314  28.832  0.00  0.00    +0.068 C 
ATOM     25  C   UNL     1       3.200   3.458  29.062  0.00  0.00    +0.027 C 
ATOM     26  C   UNL     1       1.388   2.041  30.077  0.00  0.00    +0.027 C 
ENDBRANCH  11  22
BRANCH  17  20
ATOM     20  C   UNL     1      -4.812   2.788  23.717  0.00  0.00    +0.255 C 
BRANCH  20   4
ATOM      4  O   UNL     1      -5.224   1.661  24.450  0.00  0.00    -0.374 OA
ATOM     29  C   UNL     1      -6.292   1.965  25.346  0.00  0.00    +0.194 C 
ENDBRANCH  20   4
ENDBRANCH  17  20
TORSDOF 10
ENDMDL
MODEL 9
REMARK VINA RESULT:       4.1      2.140      5.601
REMARK  Name = 7164827
REMARK  15 active torsions:
REMARK  status: ('A' for Active; 'I' for Inactive)
REMARK    1  A    between atoms: O_4  and  C_20
REMARK    2  A    between atoms: O_4  and  C_29
REMARK    3  A    between atoms: O_5  and  C_23
REMARK    4  A    between atoms: O_5  and  C_33
REMARK    5  A    between atoms: O_7  and  C_32
REMARK    6  A    between atoms: O_7  and  C_34
REMARK    7  A    between atoms: N_10  and  C_19
REMARK    8  A    between atoms: N_11  and  C_22
REMARK    9  A    between atoms: C_12  and  C_16
REMARK   10  A    between atoms: C_17  and  C_20
REMARK   11  A    between atoms: C_19  and  C_21
REMARK   12  A    between atoms: C_19  and  C_23
REMARK   13  A    between atoms: C_21  and  C_24
REMARK   14  A    between atoms: C_22  and  C_25
REMARK   15  A    between atoms: C_22  and  C_26
REMARK                            x       y       z     vdW  Elec       q    Type
REMARK                         _______ _______ _______ _____ _____    ______ ____
ROOT
ATOM      2  O   UNL     1      -1.419  -3.116  23.266  0.00  0.00    -0.273 OA
ATOM      3  O   UNL     1      -4.867   2.306  26.446  0.00  0.00    -0.253 OA
ATOM      8  N   UNL     1      -2.307  -1.434  24.606  0.00  0.00    -0.285 N 
ATOM      9  N   UNL     1      -4.304   0.568  25.019  0.00  0.00    -0.282 N 
ATOM     11  N   UNL     1      -5.140   2.619  24.192  0.00  0.00    -0.297 N 
ATOM     12  C   UNL     1      -2.820  -0.677  23.457  0.00  0.00    +0.179 C 
ATOM     13  C   UNL     1      -4.200  -0.059  23.694  0.00  0.00    +0.141 C 
ATOM     14  C   UNL     1      -2.479  -0.807  25.927  0.00  0.00    +0.127 C 
ATOM     15  C   UNL     1      -3.901  -0.302  26.122  0.00  0.00    +0.128 C 
ATOM     17  C   UNL     1      -1.560  -2.594  24.375  0.00  0.00    +0.242 C 
ATOM     18  C   UNL     1      -4.775   1.862  25.297  0.00  0.00    +0.303 C 
ATOM     36  H   UNL     1      -4.921   2.313  23.254  0.00  0.00    +0.150 HD
ENDROOT
BRANCH  12  16
ATOM      1  O   UNL     1      -2.110   1.530  22.878  0.00  0.00    -0.274 OA
ATOM     10  N   UNL     1      -0.502  -0.125  23.194  0.00  0.00    -0.301 N 
ATOM     16  C   UNL     1      -1.792   0.375  23.150  0.00  0.00    +0.236 C 
ATOM     35  H   UNL     1      -0.346  -1.081  23.496  0.00  0.00    +0.150 HD
BRANCH  10  19
ATOM     19  C   UNL     1       0.666   0.679  22.913  0.00  0.00    +0.186 C 
BRANCH  19  23
ATOM      6  O   UNL     1       1.649  -0.663  21.159  0.00  0.00    -0.249 OA
ATOM     23  C   UNL     1       1.778  -0.127  22.255  0.00  0.00    +0.328 C 
BRANCH  23   5
ATOM      5  O   UNL     1       2.897  -0.188  23.032  0.00  0.00    -0.467 OA
ATOM     33  C   UNL     1       4.045   0.498  22.522  0.00  0.00    +0.280 C 
ENDBRANCH  23   5
ENDBRANCH  19  23
BRANCH  19  21
ATOM     21  C   UNL     1       1.154   1.413  24.171  0.00  0.00    +0.069 C 
BRANCH  21  24
ATOM     24  C   UNL     1       0.162   2.395  24.754  0.00  0.00    -0.045 A 
ATOM     27  C   UNL     1      -0.061   3.617  24.121  0.00  0.00    +0.007 A 
ATOM     28  C   UNL     1      -0.528   2.077  25.924  0.00  0.00    +0.007 A 
ATOM     30  C   UNL     1      -0.976   4.524  24.658  0.00  0.00    +0.046 A 
ATOM     31  C   UNL     1      -1.443   2.984  26.461  0.00  0.00    +0.046 A 
ATOM     32  C   UNL     1      -1.666   4.206  25.829  0.00  0.00    +0.120 A 
BRANCH  32   7
ATOM      7  O   UNL     1      -2.558   5.091  26.353  0.00  0.00    -0.495 OA
ATOM     34  C   UNL     1      -3.382   4.627  27.421  0.00  0.00    +0.277 C 
ENDBRANCH  32   7
ENDBRANCH  21  24
ENDBRANCH  19  21
ENDBRANCH  10  19
ENDBRANCH  12  16
BRANCH  11  22
ATOM     22  C   UNL     1      -5.647   3.968  24.317  0.00  0.00    +0.068 C 
ATOM     25  C   UNL     1      -6.175   4.213  25.725  0.00  0.00    +0.027 C 
ATOM     26  C   UNL     1      -4.566   4.976  23.950  0.00  0.00    +0.027 C 
ENDBRANCH  11  22
BRANCH  17  20
ATOM     20  C   UNL     1      -0.901  -3.225  25.576  0.00  0.00    +0.255 C 
BRANCH  20   4
ATOM      4  O   UNL     1       0.112  -2.341  25.988  0.00  0.00    -0.374 OA
ATOM     29  C   UNL     1       1.254  -2.399  25.135  0.00  0.00    +0.194 C 
ENDBRANCH  20   4
ENDBRANCH  17  20
TORSDOF 10
ENDMDL
