MODEL 1
REMARK VINA RESULT:       2.5      0.000      0.000
REMARK  Name = 26763053
REMARK  9 active torsions:
REMARK  status: ('A' for Active; 'I' for Inactive)
REMARK    1  A    between atoms: N_7  and  C_12
REMARK    2  A    between atoms: N_8  and  C_21
REMARK    3  A    between atoms: N_8  and  C_22
REMARK    4  A    between atoms: N_9  and  C_23
REMARK    5  A    between atoms: C_11  and  C_16
REMARK    6  A    between atoms: C_16  and  C_18
REMARK    7  A    between atoms: C_18  and  C_20
REMARK    8  A    between atoms: C_21  and  C_24
REMARK    9  A    between atoms: C_22  and  C_25
REMARK                            x       y       z     vdW  Elec       q    Type
REMARK                         _______ _______ _______ _____ _____    ______ ____
ROOT
ATOM      2  O   UNL     1      -3.703  -1.766  25.612  0.00  0.00    -0.274 OA
ATOM      5  N   UNL     1      -3.530   1.478  24.214  0.00  0.00    -0.285 NA
ATOM      6  N   UNL     1      -4.913   0.113  26.137  0.00  0.00    -0.313 N 
ATOM     10  C   UNL     1      -3.704   0.035  24.021  0.00  0.00    +0.145 C 
ATOM     11  C   UNL     1      -4.804   2.093  24.591  0.00  0.00    +0.075 C 
ATOM     12  C   UNL     1      -1.897   0.859  22.658  0.00  0.00    +0.090 C 
ATOM     13  C   UNL     1      -2.369  -0.382  23.426  0.00  0.00    +0.052 C 
ATOM     14  C   UNL     1      -2.935   1.944  22.961  0.00  0.00    +0.107 C 
ATOM     15  C   UNL     1      -5.172   1.536  25.973  0.00  0.00    +0.123 C 
ATOM     17  C   UNL     1      -4.061  -0.621  25.335  0.00  0.00    +0.230 C 
ATOM     31  H   UNL     1      -5.238  -0.323  26.995  0.00  0.00    +0.149 HD
ENDROOT
BRANCH  12   7
ATOM      3  O   UNL     1       0.515  -0.653  22.342  0.00  0.00    -0.253 OA
ATOM      7  N   UNL     1      -0.573   1.253  23.069  0.00  0.00    -0.295 N 
ATOM      9  N   UNL     1       1.698   1.092  23.375  0.00  0.00    -0.269 N 
ATOM     19  C   UNL     1       0.559   0.452  22.877  0.00  0.00    +0.304 C 
ATOM     32  H   UNL     1      -0.466   2.121  23.587  0.00  0.00    +0.151 HD
ATOM     33  H   UNL     1       1.562   2.011  23.789  0.00  0.00    +0.156 HD
BRANCH   9  23
ATOM      1 CL   UNL     1       4.939  -2.842  23.999  0.00  0.00    -0.083 Cl
ATOM     23  C   UNL     1       3.031   0.618  23.372  0.00  0.00    +0.036 A 
ATOM     26  C   UNL     1       3.296  -0.722  23.655  0.00  0.00    +0.043 A 
ATOM     27  C   UNL     1       4.081   1.491  23.086  0.00  0.00    +0.023 A 
ATOM     28  C   UNL     1       4.611  -1.189  23.650  0.00  0.00    +0.043 A 
ATOM     29  C   UNL     1       5.395   1.025  23.082  0.00  0.00    +0.003 A 
ATOM     30  C   UNL     1       5.660  -0.315  23.364  0.00  0.00    +0.020 A 
ENDBRANCH   9  23
ENDBRANCH  12   7
BRANCH  11  16
ATOM     16  C   UNL     1      -4.737   3.620  24.656  0.00  0.00    +0.029 C 
BRANCH  16  18
ATOM     18  C   UNL     1      -3.835   4.084  25.795  0.00  0.00    +0.097 C 
BRANCH  18  20
ATOM      4  O   UNL     1      -2.602   5.853  24.749  0.00  0.00    -0.276 OA
ATOM      8  N   UNL     1      -1.376   4.023  25.473  0.00  0.00    -0.302 N 
ATOM     20  C   UNL     1      -2.559   4.745  25.288  0.00  0.00    +0.216 C 
BRANCH   8  21
ATOM     21  C   UNL     1      -1.276   2.709  26.104  0.00  0.00    +0.104 C 
ATOM     24  C   UNL     1       0.157   2.372  26.462  0.00  0.00    +0.024 C 
ENDBRANCH   8  21
BRANCH   8  22
ATOM     22  C   UNL     1      -0.114   4.583  25.006  0.00  0.00    +0.104 C 
ATOM     25  C   UNL     1      -0.044   4.609  23.494  0.00  0.00    +0.024 C 
ENDBRANCH   8  22
ENDBRANCH  18  20
ENDBRANCH  16  18
ENDBRANCH  11  16
TORSDOF 7
ENDMDL
MODEL 2
REMARK VINA RESULT:       2.9      2.049      4.380
REMARK  Name = 26763053
REMARK  9 active torsions:
REMARK  status: ('A' for Active; 'I' for Inactive)
REMARK    1  A    between atoms: N_7  and  C_12
REMARK    2  A    between atoms: N_8  and  C_21
REMARK    3  A    between atoms: N_8  and  C_22
REMARK    4  A    between atoms: N_9  and  C_23
REMARK    5  A    between atoms: C_11  and  C_16
REMARK    6  A    between atoms: C_16  and  C_18
REMARK    7  A    between atoms: C_18  and  C_20
REMARK    8  A    between atoms: C_21  and  C_24
REMARK    9  A    between atoms: C_22  and  C_25
REMARK                            x       y       z     vdW  Elec       q    Type
REMARK                         _______ _______ _______ _____ _____    ______ ____
ROOT
ATOM      2  O   UNL     1      -5.319   5.588  24.687  0.00  0.00    -0.274 OA
ATOM      5  N   UNL     1      -3.865   2.496  25.599  0.00  0.00    -0.285 NA
ATOM      6  N   UNL     1      -6.270   3.500  24.772  0.00  0.00    -0.313 N 
ATOM     10  C   UNL     1      -4.163   3.891  25.935  0.00  0.00    +0.145 C 
ATOM     11  C   UNL     1      -5.014   1.645  25.914  0.00  0.00    +0.075 C 
ATOM     12  C   UNL     1      -1.797   3.469  26.094  0.00  0.00    +0.090 C 
ATOM     13  C   UNL     1      -2.813   4.568  25.761  0.00  0.00    +0.052 C 
ATOM     14  C   UNL     1      -2.628   2.202  26.322  0.00  0.00    +0.107 C 
ATOM     15  C   UNL     1      -6.147   2.063  24.967  0.00  0.00    +0.123 C 
ATOM     17  C   UNL     1      -5.269   4.412  25.045  0.00  0.00    +0.230 C 
ATOM     31  H   UNL     1      -7.070   3.830  24.240  0.00  0.00    +0.149 HD
ENDROOT
BRANCH  12   7
ATOM      3  O   UNL     1      -0.195   1.151  25.578  0.00  0.00    -0.253 OA
ATOM      7  N   UNL     1      -0.844   3.301  25.026  0.00  0.00    -0.295 N 
ATOM      9  N   UNL     1       0.740   2.256  23.730  0.00  0.00    -0.269 N 
ATOM     19  C   UNL     1      -0.098   2.130  24.842  0.00  0.00    +0.304 C 
ATOM     32  H   UNL     1      -0.652   4.094  24.420  0.00  0.00    +0.151 HD
ATOM     33  H   UNL     1       0.699   3.138  23.225  0.00  0.00    +0.156 HD
BRANCH   9  23
ATOM      1 CL   UNL     1       5.577   0.568  23.368  0.00  0.00    -0.083 Cl
ATOM     23  C   UNL     1       1.647   1.301  23.214  0.00  0.00    +0.036 A 
ATOM     26  C   UNL     1       3.006   1.396  23.511  0.00  0.00    +0.043 A 
ATOM     27  C   UNL     1       1.180   0.262  22.408  0.00  0.00    +0.023 A 
ATOM     28  C   UNL     1       3.899   0.451  23.002  0.00  0.00    +0.043 A 
ATOM     29  C   UNL     1       2.072  -0.681  21.898  0.00  0.00    +0.003 A 
ATOM     30  C   UNL     1       3.431  -0.586  22.196  0.00  0.00    +0.020 A 
ENDBRANCH   9  23
ENDBRANCH  12   7
BRANCH  11  16
ATOM     16  C   UNL     1      -4.723   0.154  25.737  0.00  0.00    +0.029 C 
BRANCH  16  18
ATOM     18  C   UNL     1      -4.502  -0.194  24.269  0.00  0.00    +0.097 C 
BRANCH  18  20
ATOM      4  O   UNL     1      -2.437   0.547  23.305  0.00  0.00    -0.276 OA
ATOM      8  N   UNL     1      -2.406  -1.519  24.356  0.00  0.00    -0.302 N 
ATOM     20  C   UNL     1      -3.025  -0.340  23.927  0.00  0.00    +0.216 C 
BRANCH   8  21
ATOM     21  C   UNL     1      -3.060  -2.597  25.094  0.00  0.00    +0.104 C 
ATOM     24  C   UNL     1      -3.924  -3.447  24.186  0.00  0.00    +0.024 C 
ENDBRANCH   8  21
BRANCH   8  22
ATOM     22  C   UNL     1      -0.996  -1.739  24.059  0.00  0.00    +0.104 C 
ATOM     25  C   UNL     1      -0.204  -2.033  25.315  0.00  0.00    +0.024 C 
ENDBRANCH   8  22
ENDBRANCH  18  20
ENDBRANCH  16  18
ENDBRANCH  11  16
TORSDOF 7
ENDMDL
MODEL 3
REMARK VINA RESULT:       3.3      1.463      2.111
REMARK  Name = 26763053
REMARK  9 active torsions:
REMARK  status: ('A' for Active; 'I' for Inactive)
REMARK    1  A    between atoms: N_7  and  C_12
REMARK    2  A    between atoms: N_8  and  C_21
REMARK    3  A    between atoms: N_8  and  C_22
REMARK    4  A    between atoms: N_9  and  C_23
REMARK    5  A    between atoms: C_11  and  C_16
REMARK    6  A    between atoms: C_16  and  C_18
REMARK    7  A    between atoms: C_18  and  C_20
REMARK    8  A    between atoms: C_21  and  C_24
REMARK    9  A    between atoms: C_22  and  C_25
REMARK                            x       y       z     vdW  Elec       q    Type
REMARK                         _______ _______ _______ _____ _____    ______ ____
ROOT
ATOM      2  O   UNL     1      -6.062   0.521  26.808  0.00  0.00    -0.274 OA
ATOM      5  N   UNL     1      -4.059   2.180  24.411  0.00  0.00    -0.285 NA
ATOM      6  N   UNL     1      -5.832   2.771  26.407  0.00  0.00    -0.313 N 
ATOM     10  C   UNL     1      -5.091   1.183  24.711  0.00  0.00    +0.145 C 
ATOM     11  C   UNL     1      -4.661   3.511  24.309  0.00  0.00    +0.075 C 
ATOM     12  C   UNL     1      -3.269   0.178  23.497  0.00  0.00    +0.090 C 
ATOM     13  C   UNL     1      -4.337  -0.128  24.554  0.00  0.00    +0.052 C 
ATOM     14  C   UNL     1      -3.404   1.675  23.204  0.00  0.00    +0.107 C 
ATOM     15  C   UNL     1      -5.183   3.869  25.708  0.00  0.00    +0.123 C 
ATOM     17  C   UNL     1      -5.669   1.437  26.085  0.00  0.00    +0.230 C 
ATOM     31  H   UNL     1      -6.287   2.985  27.289  0.00  0.00    +0.149 HD
ENDROOT
BRANCH  12   7
ATOM      3  O   UNL     1      -0.774   0.875  22.276  0.00  0.00    -0.253 OA
ATOM      7  N   UNL     1      -1.951  -0.159  23.976  0.00  0.00    -0.295 N 
ATOM      9  N   UNL     1       0.344  -0.244  24.011  0.00  0.00    -0.269 N 
ATOM     19  C   UNL     1      -0.777   0.223  23.317  0.00  0.00    +0.304 C 
ATOM     32  H   UNL     1      -1.873  -0.762  24.790  0.00  0.00    +0.151 HD
ATOM     33  H   UNL     1       0.167  -0.772  24.862  0.00  0.00    +0.156 HD
BRANCH   9  23
ATOM      1 CL   UNL     1       5.082  -2.214  23.815  0.00  0.00    -0.083 Cl
ATOM     23  C   UNL     1       1.707  -0.070  23.675  0.00  0.00    +0.036 A 
ATOM     26  C   UNL     1       2.616  -1.107  23.887  0.00  0.00    +0.043 A 
ATOM     27  C   UNL     1       2.142   1.138  23.131  0.00  0.00    +0.023 A 
ATOM     28  C   UNL     1       3.960  -0.935  23.553  0.00  0.00    +0.043 A 
ATOM     29  C   UNL     1       3.486   1.310  22.797  0.00  0.00    +0.003 A 
ATOM     30  C   UNL     1       4.394   0.273  23.009  0.00  0.00    +0.020 A 
ENDBRANCH   9  23
ENDBRANCH  12   7
BRANCH  11  16
ATOM     16  C   UNL     1      -3.673   4.582  23.842  0.00  0.00    +0.029 C 
BRANCH  16  18
ATOM     18  C   UNL     1      -2.860   5.128  25.010  0.00  0.00    +0.097 C 
BRANCH  18  20
ATOM      4  O   UNL     1      -2.822   3.754  26.974  0.00  0.00    -0.276 OA
ATOM      8  N   UNL     1      -1.176   3.346  25.393  0.00  0.00    -0.302 N 
ATOM     20  C   UNL     1      -2.297   4.019  25.890  0.00  0.00    +0.216 C 
BRANCH   8  21
ATOM     21  C   UNL     1      -0.519   3.624  24.118  0.00  0.00    +0.104 C 
ATOM     24  C   UNL     1       0.053   5.026  24.082  0.00  0.00    +0.024 C 
ENDBRANCH   8  21
BRANCH   8  22
ATOM     22  C   UNL     1      -0.573   2.278  26.180  0.00  0.00    +0.104 C 
ATOM     25  C   UNL     1       0.662   2.760  26.913  0.00  0.00    +0.024 C 
ENDBRANCH   8  22
ENDBRANCH  18  20
ENDBRANCH  16  18
ENDBRANCH  11  16
TORSDOF 7
ENDMDL
MODEL 4
REMARK VINA RESULT:       4.6      1.834      4.416
REMARK  Name = 26763053
REMARK  9 active torsions:
REMARK  status: ('A' for Active; 'I' for Inactive)
REMARK    1  A    between atoms: N_7  and  C_12
REMARK    2  A    between atoms: N_8  and  C_21
REMARK    3  A    between atoms: N_8  and  C_22
REMARK    4  A    between atoms: N_9  and  C_23
REMARK    5  A    between atoms: C_11  and  C_16
REMARK    6  A    between atoms: C_16  and  C_18
REMARK    7  A    between atoms: C_18  and  C_20
REMARK    8  A    between atoms: C_21  and  C_24
REMARK    9  A    between atoms: C_22  and  C_25
REMARK                            x       y       z     vdW  Elec       q    Type
REMARK                         _______ _______ _______ _____ _____    ______ ____
ROOT
ATOM      2  O   UNL     1      -3.545   5.091  22.754  0.00  0.00    -0.274 OA
ATOM      5  N   UNL     1      -3.570   2.936  25.558  0.00  0.00    -0.285 NA
ATOM      6  N   UNL     1      -5.109   3.531  23.378  0.00  0.00    -0.313 N 
ATOM     10  C   UNL     1      -3.479   4.297  25.021  0.00  0.00    +0.145 C 
ATOM     11  C   UNL     1      -4.973   2.538  25.683  0.00  0.00    +0.075 C 
ATOM     12  C   UNL     1      -1.568   3.803  26.402  0.00  0.00    +0.090 C 
ATOM     13  C   UNL     1      -2.000   4.614  25.175  0.00  0.00    +0.052 C 
ATOM     14  C   UNL     1      -2.799   2.982  26.801  0.00  0.00    +0.107 C 
ATOM     15  C   UNL     1      -5.539   2.456  24.259  0.00  0.00    +0.123 C 
ATOM     17  C   UNL     1      -4.004   4.330  23.604  0.00  0.00    +0.230 C 
ATOM     31  H   UNL     1      -5.540   3.580  22.459  0.00  0.00    +0.149 HD
ENDROOT
BRANCH  12   7
ATOM      3  O   UNL     1      -0.881   2.717  23.842  0.00  0.00    -0.253 OA
ATOM      7  N   UNL     1      -0.438   2.961  26.099  0.00  0.00    -0.295 N 
ATOM      9  N   UNL     1       0.986   1.686  24.824  0.00  0.00    -0.269 N 
ATOM     19  C   UNL     1      -0.171   2.470  24.815  0.00  0.00    +0.304 C 
ATOM     32  H   UNL     1       0.153   2.651  26.865  0.00  0.00    +0.151 HD
ATOM     33  H   UNL     1       1.460   1.582  25.718  0.00  0.00    +0.156 HD
BRANCH   9  23
ATOM      1 CL   UNL     1       5.281   0.355  22.344  0.00  0.00    -0.083 Cl
ATOM     23  C   UNL     1       1.588   1.014  23.735  0.00  0.00    +0.036 A 
ATOM     26  C   UNL     1       2.976   1.017  23.593  0.00  0.00    +0.043 A 
ATOM     27  C   UNL     1       0.794   0.348  22.802  0.00  0.00    +0.023 A 
ATOM     28  C   UNL     1       3.569   0.352  22.519  0.00  0.00    +0.043 A 
ATOM     29  C   UNL     1       1.386  -0.317  21.728  0.00  0.00    +0.003 A 
ATOM     30  C   UNL     1       2.774  -0.314  21.587  0.00  0.00    +0.020 A 
ENDBRANCH   9  23
ENDBRANCH  12   7
BRANCH  11  16
ATOM     16  C   UNL     1      -5.153   1.189  26.384  0.00  0.00    +0.029 C 
BRANCH  16  18
ATOM     18  C   UNL     1      -5.096   0.038  25.386  0.00  0.00    +0.097 C 
BRANCH  18  20
ATOM      4  O   UNL     1      -3.604  -1.271  26.729  0.00  0.00    -0.276 OA
ATOM      8  N   UNL     1      -3.123  -1.150  24.464  0.00  0.00    -0.302 N 
ATOM     20  C   UNL     1      -3.879  -0.853  25.602  0.00  0.00    +0.216 C 
BRANCH   8  21
ATOM     21  C   UNL     1      -3.408  -0.677  23.111  0.00  0.00    +0.104 C 
ATOM     24  C   UNL     1      -2.869   0.720  22.885  0.00  0.00    +0.024 C 
ENDBRANCH   8  21
BRANCH   8  22
ATOM     22  C   UNL     1      -1.937  -1.988  24.589  0.00  0.00    +0.104 C 
ATOM     25  C   UNL     1      -0.836  -1.280  25.350  0.00  0.00    +0.024 C 
ENDBRANCH   8  22
ENDBRANCH  18  20
ENDBRANCH  16  18
ENDBRANCH  11  16
TORSDOF 7
ENDMDL
MODEL 5
REMARK VINA RESULT:       5.4      2.134      4.725
REMARK  Name = 26763053
REMARK  9 active torsions:
REMARK  status: ('A' for Active; 'I' for Inactive)
REMARK    1  A    between atoms: N_7  and  C_12
REMARK    2  A    between atoms: N_8  and  C_21
REMARK    3  A    between atoms: N_8  and  C_22
REMARK    4  A    between atoms: N_9  and  C_23
REMARK    5  A    between atoms: C_11  and  C_16
REMARK    6  A    between atoms: C_16  and  C_18
REMARK    7  A    between atoms: C_18  and  C_20
REMARK    8  A    between atoms: C_21  and  C_24
REMARK    9  A    between atoms: C_22  and  C_25
REMARK                            x       y       z     vdW  Elec       q    Type
REMARK                         _______ _______ _______ _____ _____    ______ ____
ROOT
ATOM      2  O   UNL     1      -2.365   6.310  23.518  0.00  0.00    -0.274 OA
ATOM      5  N   UNL     1      -3.090   3.260  25.157  0.00  0.00    -0.285 NA
ATOM      6  N   UNL     1      -4.084   4.832  23.153  0.00  0.00    -0.313 N 
ATOM     10  C   UNL     1      -2.833   4.701  25.241  0.00  0.00    +0.145 C 
ATOM     11  C   UNL     1      -4.499   3.017  24.843  0.00  0.00    +0.075 C 
ATOM     12  C   UNL     1      -1.296   3.483  26.641  0.00  0.00    +0.090 C 
ATOM     13  C   UNL     1      -1.415   4.751  25.787  0.00  0.00    +0.052 C 
ATOM     14  C   UNL     1      -2.613   2.729  26.434  0.00  0.00    +0.107 C 
ATOM     15  C   UNL     1      -4.737   3.561  23.427  0.00  0.00    +0.123 C 
ATOM     17  C   UNL     1      -3.029   5.341  23.886  0.00  0.00    +0.230 C 
ATOM     31  H   UNL     1      -4.298   5.284  22.268  0.00  0.00    +0.149 HD
ENDROOT
BRANCH  12   7
ATOM      3  O   UNL     1      -0.627   2.659  23.980  0.00  0.00    -0.253 OA
ATOM      7  N   UNL     1      -0.157   2.693  26.244  0.00  0.00    -0.295 N 
ATOM      9  N   UNL     1       1.268   1.570  24.836  0.00  0.00    -0.269 N 
ATOM     19  C   UNL     1       0.099   2.332  24.916  0.00  0.00    +0.304 C 
ATOM     32  H   UNL     1       0.449   2.321  26.969  0.00  0.00    +0.151 HD
ATOM     33  H   UNL     1       1.756   1.388  25.710  0.00  0.00    +0.156 HD
BRANCH   9  23
ATOM      1 CL   UNL     1       0.765  -1.286  20.597  0.00  0.00    -0.083 Cl
ATOM     23  C   UNL     1       1.866   1.015  23.679  0.00  0.00    +0.036 A 
ATOM     26  C   UNL     1       1.108   0.229  22.811  0.00  0.00    +0.043 A 
ATOM     27  C   UNL     1       3.212   1.256  23.407  0.00  0.00    +0.023 A 
ATOM     28  C   UNL     1       1.698  -0.315  21.669  0.00  0.00    +0.043 A 
ATOM     29  C   UNL     1       3.803   0.711  22.267  0.00  0.00    +0.003 A 
ATOM     30  C   UNL     1       3.045  -0.075  21.398  0.00  0.00    +0.020 A 
ENDBRANCH   9  23
ENDBRANCH  12   7
BRANCH  11  16
ATOM     16  C   UNL     1      -4.879   1.536  24.893  0.00  0.00    +0.029 C 
BRANCH  16  18
ATOM     18  C   UNL     1      -3.967   0.703  23.998  0.00  0.00    +0.097 C 
BRANCH  18  20
ATOM      4  O   UNL     1      -5.035  -1.439  23.888  0.00  0.00    -0.276 OA
ATOM      8  N   UNL     1      -3.028  -1.342  25.043  0.00  0.00    -0.302 N 
ATOM     20  C   UNL     1      -4.072  -0.787  24.296  0.00  0.00    +0.216 C 
BRANCH   8  21
ATOM     21  C   UNL     1      -1.868  -0.611  25.549  0.00  0.00    +0.104 C 
ATOM     24  C   UNL     1      -0.608  -1.449  25.478  0.00  0.00    +0.024 C 
ENDBRANCH   8  21
BRANCH   8  22
ATOM     22  C   UNL     1      -3.059  -2.760  25.378  0.00  0.00    +0.104 C 
ATOM     25  C   UNL     1      -3.320  -3.613  24.154  0.00  0.00    +0.024 C 
ENDBRANCH   8  22
ENDBRANCH  18  20
ENDBRANCH  16  18
ENDBRANCH  11  16
TORSDOF 7
ENDMDL
MODEL 6
REMARK VINA RESULT:       5.7      3.485      4.647
REMARK  Name = 26763053
REMARK  9 active torsions:
REMARK  status: ('A' for Active; 'I' for Inactive)
REMARK    1  A    between atoms: N_7  and  C_12
REMARK    2  A    between atoms: N_8  and  C_21
REMARK    3  A    between atoms: N_8  and  C_22
REMARK    4  A    between atoms: N_9  and  C_23
REMARK    5  A    between atoms: C_11  and  C_16
REMARK    6  A    between atoms: C_16  and  C_18
REMARK    7  A    between atoms: C_18  and  C_20
REMARK    8  A    between atoms: C_21  and  C_24
REMARK    9  A    between atoms: C_22  and  C_25
REMARK                            x       y       z     vdW  Elec       q    Type
REMARK                         _______ _______ _______ _____ _____    ______ ____
ROOT
ATOM      2  O   UNL     1      -0.739  -2.899  24.717  0.00  0.00    -0.274 OA
ATOM      5  N   UNL     1      -2.630   0.031  24.125  0.00  0.00    -0.285 NA
ATOM      6  N   UNL     1      -2.984  -2.527  25.025  0.00  0.00    -0.313 N 
ATOM     10  C   UNL     1      -1.710  -0.993  23.621  0.00  0.00    +0.145 C 
ATOM     11  C   UNL     1      -4.011  -0.450  24.047  0.00  0.00    +0.075 C 
ATOM     12  C   UNL     1      -0.786   1.208  23.299  0.00  0.00    +0.090 C 
ATOM     13  C   UNL     1      -0.386  -0.248  23.566  0.00  0.00    +0.052 C 
ATOM     14  C   UNL     1      -2.317   1.222  23.336  0.00  0.00    +0.107 C 
ATOM     15  C   UNL     1      -4.126  -1.625  25.028  0.00  0.00    +0.123 C 
ATOM     17  C   UNL     1      -1.736  -2.202  24.528  0.00  0.00    +0.230 C 
ATOM     31  H   UNL     1      -3.060  -3.375  25.578  0.00  0.00    +0.149 HD
ENDROOT
BRANCH  12   7
ATOM      3  O   UNL     1       0.064   0.507  25.943  0.00  0.00    -0.253 OA
ATOM      7  N   UNL     1      -0.216   2.093  24.284  0.00  0.00    -0.295 N 
ATOM      9  N   UNL     1       0.690   2.742  26.292  0.00  0.00    -0.269 N 
ATOM     19  C   UNL     1       0.176   1.669  25.559  0.00  0.00    +0.304 C 
ATOM     32  H   UNL     1      -0.162   3.084  24.068  0.00  0.00    +0.151 HD
ATOM     33  H   UNL     1       0.713   3.645  25.825  0.00  0.00    +0.156 HD
BRANCH   9  23
ATOM      1 CL   UNL     1      -0.281   2.534  31.330  0.00  0.00    -0.083 Cl
ATOM     23  C   UNL     1       1.191   2.729  27.615  0.00  0.00    +0.036 A 
ATOM     26  C   UNL     1       0.310   2.648  28.694  0.00  0.00    +0.043 A 
ATOM     27  C   UNL     1       2.566   2.796  27.841  0.00  0.00    +0.023 A 
ATOM     28  C   UNL     1       0.805   2.633  29.999  0.00  0.00    +0.043 A 
ATOM     29  C   UNL     1       3.061   2.782  29.145  0.00  0.00    +0.003 A 
ATOM     30  C   UNL     1       2.180   2.701  30.223  0.00  0.00    +0.020 A 
ENDBRANCH   9  23
ENDBRANCH  12   7
BRANCH  11  16
ATOM     16  C   UNL     1      -5.041   0.622  24.408  0.00  0.00    +0.029 C 
BRANCH  16  18
ATOM     18  C   UNL     1      -4.914   1.038  25.869  0.00  0.00    +0.097 C 
BRANCH  18  20
ATOM      4  O   UNL     1      -6.563   2.667  26.477  0.00  0.00    -0.276 OA
ATOM      8  N   UNL     1      -4.473   3.479  25.888  0.00  0.00    -0.302 N 
ATOM     20  C   UNL     1      -5.405   2.460  26.109  0.00  0.00    +0.216 C 
BRANCH   8  21
ATOM     21  C   UNL     1      -3.092   3.283  25.452  0.00  0.00    +0.104 C 
ATOM     24  C   UNL     1      -2.348   4.599  25.358  0.00  0.00    +0.024 C 
ENDBRANCH   8  21
BRANCH   8  22
ATOM     22  C   UNL     1      -4.868   4.868  26.085  0.00  0.00    +0.104 C 
ATOM     25  C   UNL     1      -6.113   5.208  25.293  0.00  0.00    +0.024 C 
ENDBRANCH   8  22
ENDBRANCH  18  20
ENDBRANCH  16  18
ENDBRANCH  11  16
TORSDOF 7
ENDMDL
