MODEL 1
REMARK VINA RESULT:       0.5      0.000      0.000
REMARK  Name = 45360664
REMARK  13 active torsions:
REMARK  status: ('A' for Active; 'I' for Inactive)
REMARK    1  A    between atoms: O_3  and  C_34
REMARK    2  A    between atoms: O_3  and  C_35
REMARK    3  A    between atoms: N_6  and  C_10
REMARK    4  A    between atoms: N_6  and  C_18
REMARK    5  A    between atoms: N_7  and  C_23
REMARK    6  A    between atoms: N_8  and  C_26
REMARK    7  A    between atoms: N_8  and  C_30
REMARK    8  A    between atoms: N_8  and  C_31
REMARK    9  A    between atoms: C_12  and  C_16
REMARK   10  A    between atoms: C_16  and  C_17
REMARK   11  A    between atoms: C_17  and  C_19
REMARK   12  A    between atoms: C_18  and  C_20
REMARK   13  A    between atoms: C_23  and  C_27
REMARK                            x       y       z     vdW  Elec       q    Type
REMARK                         _______ _______ _______ _____ _____    ______ ____
ROOT
ATOM      1  O   UNL     1       0.983   2.713  26.649  0.00  0.00    -0.274 OA
ATOM      4  N   UNL     1      -2.169   2.366  24.841  0.00  0.00    -0.286 NA
ATOM      5  N   UNL     1      -0.494   4.308  25.979  0.00  0.00    -0.313 N 
ATOM      9  C   UNL     1      -1.060   1.902  25.684  0.00  0.00    +0.145 C 
ATOM     10  C   UNL     1      -1.094   0.848  23.497  0.00  0.00    +0.070 C 
ATOM     11  C   UNL     1      -0.335   0.856  24.824  0.00  0.00    +0.048 C 
ATOM     12  C   UNL     1      -2.740   3.645  25.249  0.00  0.00    +0.075 C 
ATOM     13  C   UNL     1      -1.743   2.224  23.451  0.00  0.00    +0.104 C 
ATOM     14  C   UNL     1      -1.677   4.731  25.266  0.00  0.00    +0.123 C 
ATOM     15  C   UNL     1      -0.096   3.001  26.122  0.00  0.00    +0.230 C 
ATOM     36  H   UNL     1       0.148   5.030  26.294  0.00  0.00    +0.149 HD
ENDROOT
BRANCH  10   6
ATOM      6  N   UNL     1      -0.242   0.570  22.353  0.00  0.00    -0.308 NA
ATOM     37  H   UNL     1      -0.821   0.498  21.516  0.00  0.00    +0.123 HD
BRANCH   6  18
ATOM     18  C   UNL     1       0.487  -0.680  22.534  0.00  0.00    +0.116 C 
BRANCH  18  20
ATOM     20  C   UNL     1       1.951  -0.443  22.794  0.00  0.00    -0.033 A 
ATOM     21  C   UNL     1       2.552   0.742  22.367  0.00  0.00    +0.007 A 
ATOM     22  C   UNL     1       2.706  -1.407  23.462  0.00  0.00    +0.007 A 
ATOM     24  C   UNL     1       3.908   0.961  22.607  0.00  0.00    +0.023 A 
ATOM     25  C   UNL     1       4.062  -1.187  23.703  0.00  0.00    +0.023 A 
ATOM     26  C   UNL     1       4.663  -0.003  23.276  0.00  0.00    +0.029 A 
BRANCH  26   8
ATOM      8  N   UNL     1       6.035   0.219  23.519  0.00  0.00    -0.336 N 
ATOM     30  C   UNL     1       6.461   1.299  24.386  0.00  0.00    +0.129 C 
ATOM     31  C   UNL     1       7.036  -0.625  22.897  0.00  0.00    +0.129 C 
ENDBRANCH  26   8
ENDBRANCH  18  20
ENDBRANCH   6  18
ENDBRANCH  10   6
BRANCH  12  16
ATOM     16  C   UNL     1      -3.937   4.061  24.393  0.00  0.00    +0.029 C 
BRANCH  16  17
ATOM     17  C   UNL     1      -5.214   4.112  25.221  0.00  0.00    +0.097 C 
BRANCH  17  19
ATOM      2  O   UNL     1      -6.195   2.477  26.714  0.00  0.00    -0.276 OA
ATOM      7  N   UNL     1      -5.481   1.801  24.612  0.00  0.00    -0.311 N 
ATOM     19  C   UNL     1      -5.691   2.726  25.623  0.00  0.00    +0.213 C 
ATOM     38  H   UNL     1      -5.031   2.085  23.747  0.00  0.00    +0.149 HD
BRANCH   7  23
ATOM     23  C   UNL     1      -5.849   0.411  24.751  0.00  0.00    +0.139 C 
BRANCH  23  27
ATOM     27  C   UNL     1      -4.641  -0.485  24.807  0.00  0.00    -0.030 A 
ATOM     28  C   UNL     1      -3.788  -0.438  25.909  0.00  0.00    +0.009 A 
ATOM     29  C   UNL     1      -4.374  -1.362  23.755  0.00  0.00    +0.009 A 
ATOM     32  C   UNL     1      -2.668  -1.269  25.961  0.00  0.00    +0.046 A 
ATOM     33  C   UNL     1      -3.255  -2.193  23.807  0.00  0.00    +0.046 A 
ATOM     34  C   UNL     1      -2.402  -2.147  24.909  0.00  0.00    +0.120 A 
BRANCH  34   3
ATOM      3  O   UNL     1      -1.310  -2.958  24.960  0.00  0.00    -0.495 OA
ATOM     35  C   UNL     1      -0.123  -2.412  25.534  0.00  0.00    +0.277 C 
ENDBRANCH  34   3
ENDBRANCH  23  27
ENDBRANCH   7  23
ENDBRANCH  17  19
ENDBRANCH  16  17
ENDBRANCH  12  16
TORSDOF 10
ENDMDL
MODEL 2
REMARK VINA RESULT:       4.1      1.857      6.567
REMARK  Name = 45360664
REMARK  13 active torsions:
REMARK  status: ('A' for Active; 'I' for Inactive)
REMARK    1  A    between atoms: O_3  and  C_34
REMARK    2  A    between atoms: O_3  and  C_35
REMARK    3  A    between atoms: N_6  and  C_10
REMARK    4  A    between atoms: N_6  and  C_18
REMARK    5  A    between atoms: N_7  and  C_23
REMARK    6  A    between atoms: N_8  and  C_26
REMARK    7  A    between atoms: N_8  and  C_30
REMARK    8  A    between atoms: N_8  and  C_31
REMARK    9  A    between atoms: C_12  and  C_16
REMARK   10  A    between atoms: C_16  and  C_17
REMARK   11  A    between atoms: C_17  and  C_19
REMARK   12  A    between atoms: C_18  and  C_20
REMARK   13  A    between atoms: C_23  and  C_27
REMARK                            x       y       z     vdW  Elec       q    Type
REMARK                         _______ _______ _______ _____ _____    ______ ____
ROOT
ATOM      1  O   UNL     1      -3.591   4.225  28.201  0.00  0.00    -0.274 OA
ATOM      4  N   UNL     1      -2.633   3.968  24.688  0.00  0.00    -0.286 NA
ATOM      5  N   UNL     1      -1.690   3.395  27.267  0.00  0.00    -0.313 N 
ATOM      9  C   UNL     1      -3.386   4.510  25.826  0.00  0.00    +0.145 C 
ATOM     10  C   UNL     1      -4.778   3.262  24.278  0.00  0.00    +0.070 C 
ATOM     11  C   UNL     1      -4.838   4.082  25.567  0.00  0.00    +0.048 C 
ATOM     12  C   UNL     1      -1.196   3.867  24.912  0.00  0.00    +0.075 C 
ATOM     13  C   UNL     1      -3.338   2.771  24.236  0.00  0.00    +0.104 C 
ATOM     14  C   UNL     1      -0.896   3.002  26.125  0.00  0.00    +0.123 C 
ATOM     15  C   UNL     1      -2.914   4.014  27.190  0.00  0.00    +0.230 C 
ATOM     36  H   UNL     1      -1.377   3.088  28.184  0.00  0.00    +0.149 HD
ENDROOT
BRANCH  10   6
ATOM      6  N   UNL     1      -5.758   2.189  24.237  0.00  0.00    -0.308 NA
ATOM     37  H   UNL     1      -6.694   2.593  24.244  0.00  0.00    +0.123 HD
BRANCH   6  18
ATOM     18  C   UNL     1      -5.615   1.306  25.389  0.00  0.00    +0.116 C 
BRANCH  18  20
ATOM     20  C   UNL     1      -4.603   0.219  25.140  0.00  0.00    -0.033 A 
ATOM     21  C   UNL     1      -3.696  -0.132  26.140  0.00  0.00    +0.007 A 
ATOM     22  C   UNL     1      -4.571  -0.435  23.909  0.00  0.00    +0.007 A 
ATOM     24  C   UNL     1      -2.759  -1.138  25.910  0.00  0.00    +0.023 A 
ATOM     25  C   UNL     1      -3.634  -1.442  23.678  0.00  0.00    +0.023 A 
ATOM     26  C   UNL     1      -2.728  -1.793  24.679  0.00  0.00    +0.029 A 
BRANCH  26   8
ATOM      8  N   UNL     1      -1.779  -2.811  24.445  0.00  0.00    -0.336 N 
ATOM     30  C   UNL     1      -0.516  -2.815  25.156  0.00  0.00    +0.129 C 
ATOM     31  C   UNL     1      -2.052  -3.861  23.485  0.00  0.00    +0.129 C 
ENDBRANCH  26   8
ENDBRANCH  18  20
ENDBRANCH   6  18
ENDBRANCH  10   6
BRANCH  12  16
ATOM     16  C   UNL     1      -0.438   3.367  23.682  0.00  0.00    +0.029 C 
BRANCH  16  17
ATOM     17  C   UNL     1      -1.072   2.101  23.121  0.00  0.00    +0.097 C 
BRANCH  17  19
ATOM      2  O   UNL     1      -0.259   0.368  24.604  0.00  0.00    -0.276 OA
ATOM      7  N   UNL     1       0.409   0.357  22.381  0.00  0.00    -0.311 N 
ATOM     19  C   UNL     1      -0.278   0.856  23.478  0.00  0.00    +0.213 C 
ATOM     38  H   UNL     1       0.361   0.838  21.489  0.00  0.00    +0.149 HD
BRANCH   7  23
ATOM     23  C   UNL     1       1.239  -0.822  22.464  0.00  0.00    +0.139 C 
BRANCH  23  27
ATOM     27  C   UNL     1       2.657  -0.484  22.836  0.00  0.00    -0.030 A 
ATOM     28  C   UNL     1       3.425  -1.394  23.561  0.00  0.00    +0.009 A 
ATOM     29  C   UNL     1       3.205   0.742  22.454  0.00  0.00    +0.009 A 
ATOM     32  C   UNL     1       4.740  -1.080  23.906  0.00  0.00    +0.046 A 
ATOM     33  C   UNL     1       4.519   1.056  22.798  0.00  0.00    +0.046 A 
ATOM     34  C   UNL     1       5.287   0.146  23.524  0.00  0.00    +0.120 A 
BRANCH  34   3
ATOM      3  O   UNL     1       6.570   0.453  23.860  0.00  0.00    -0.495 OA
ATOM     35  C   UNL     1       7.605  -0.267  23.191  0.00  0.00    +0.277 C 
ENDBRANCH  34   3
ENDBRANCH  23  27
ENDBRANCH   7  23
ENDBRANCH  17  19
ENDBRANCH  16  17
ENDBRANCH  12  16
TORSDOF 10
ENDMDL
MODEL 3
REMARK VINA RESULT:       4.5      2.066      6.856
REMARK  Name = 45360664
REMARK  13 active torsions:
REMARK  status: ('A' for Active; 'I' for Inactive)
REMARK    1  A    between atoms: O_3  and  C_34
REMARK    2  A    between atoms: O_3  and  C_35
REMARK    3  A    between atoms: N_6  and  C_10
REMARK    4  A    between atoms: N_6  and  C_18
REMARK    5  A    between atoms: N_7  and  C_23
REMARK    6  A    between atoms: N_8  and  C_26
REMARK    7  A    between atoms: N_8  and  C_30
REMARK    8  A    between atoms: N_8  and  C_31
REMARK    9  A    between atoms: C_12  and  C_16
REMARK   10  A    between atoms: C_16  and  C_17
REMARK   11  A    between atoms: C_17  and  C_19
REMARK   12  A    between atoms: C_18  and  C_20
REMARK   13  A    between atoms: C_23  and  C_27
REMARK                            x       y       z     vdW  Elec       q    Type
REMARK                         _______ _______ _______ _____ _____    ______ ____
ROOT
ATOM      1  O   UNL     1      -3.264   6.483  23.467  0.00  0.00    -0.274 OA
ATOM      4  N   UNL     1      -2.318   3.130  24.556  0.00  0.00    -0.286 NA
ATOM      5  N   UNL     1      -1.802   5.836  25.085  0.00  0.00    -0.313 N 
ATOM      9  C   UNL     1      -2.850   4.123  23.614  0.00  0.00    +0.145 C 
ATOM     10  C   UNL     1      -4.546   2.590  24.431  0.00  0.00    +0.070 C 
ATOM     11  C   UNL     1      -4.339   3.771  23.481  0.00  0.00    +0.048 C 
ATOM     12  C   UNL     1      -1.050   3.503  25.170  0.00  0.00    +0.075 C 
ATOM     13  C   UNL     1      -3.416   2.744  25.439  0.00  0.00    +0.104 C 
ATOM     14  C   UNL     1      -1.174   4.827  25.906  0.00  0.00    +0.123 C 
ATOM     15  C   UNL     1      -2.678   5.573  24.059  0.00  0.00    +0.230 C 
ATOM     36  H   UNL     1      -1.680   6.807  25.359  0.00  0.00    +0.149 HD
ENDROOT
BRANCH  10   6
ATOM      6  N   UNL     1      -5.866   2.571  25.039  0.00  0.00    -0.308 NA
ATOM     37  H   UNL     1      -5.844   3.115  25.901  0.00  0.00    +0.123 HD
BRANCH   6  18
ATOM     18  C   UNL     1      -6.279   1.207  25.350  0.00  0.00    +0.116 C 
BRANCH  18  20
ATOM     20  C   UNL     1      -5.159   0.222  25.144  0.00  0.00    -0.033 A 
ATOM     21  C   UNL     1      -4.948  -0.342  23.886  0.00  0.00    +0.007 A 
ATOM     22  C   UNL     1      -4.334  -0.129  26.212  0.00  0.00    +0.007 A 
ATOM     24  C   UNL     1      -3.912  -1.255  23.695  0.00  0.00    +0.023 A 
ATOM     25  C   UNL     1      -3.297  -1.042  26.022  0.00  0.00    +0.023 A 
ATOM     26  C   UNL     1      -3.086  -1.604  24.763  0.00  0.00    +0.029 A 
BRANCH  26   8
ATOM      8  N   UNL     1      -2.037  -2.529  24.570  0.00  0.00    -0.336 N 
ATOM     30  C   UNL     1      -0.824  -2.436  25.357  0.00  0.00    +0.129 C 
ATOM     31  C   UNL     1      -2.157  -3.578  23.578  0.00  0.00    +0.129 C 
ENDBRANCH  26   8
ENDBRANCH  18  20
ENDBRANCH   6  18
ENDBRANCH  10   6
BRANCH  12  16
ATOM     16  C   UNL     1      -0.492   2.415  26.089  0.00  0.00    +0.029 C 
BRANCH  16  17
ATOM     17  C   UNL     1      -0.427   1.071  25.374  0.00  0.00    +0.097 C 
BRANCH  17  19
ATOM      2  O   UNL     1       1.255   2.058  23.939  0.00  0.00    -0.276 OA
ATOM      7  N   UNL     1       0.597  -0.136  23.564  0.00  0.00    -0.311 N 
ATOM     19  C   UNL     1       0.569   1.082  24.227  0.00  0.00    +0.213 C 
ATOM     38  H   UNL     1      -0.025  -0.886  23.851  0.00  0.00    +0.149 HD
BRANCH   7  23
ATOM     23  C   UNL     1       1.464  -0.379  22.435  0.00  0.00    +0.139 C 
BRANCH  23  27
ATOM     27  C   UNL     1       2.917  -0.318  22.820  0.00  0.00    -0.030 A 
ATOM     28  C   UNL     1       3.703   0.760  22.414  0.00  0.00    +0.009 A 
ATOM     29  C   UNL     1       3.479  -1.341  23.585  0.00  0.00    +0.009 A 
ATOM     32  C   UNL     1       5.050   0.816  22.771  0.00  0.00    +0.046 A 
ATOM     33  C   UNL     1       4.826  -1.285  23.942  0.00  0.00    +0.046 A 
ATOM     34  C   UNL     1       5.612  -0.207  23.536  0.00  0.00    +0.120 A 
BRANCH  34   3
ATOM      3  O   UNL     1       6.926  -0.152  23.885  0.00  0.00    -0.495 OA
ATOM     35  C   UNL     1       7.878  -0.524  22.889  0.00  0.00    +0.277 C 
ENDBRANCH  34   3
ENDBRANCH  23  27
ENDBRANCH   7  23
ENDBRANCH  17  19
ENDBRANCH  16  17
ENDBRANCH  12  16
TORSDOF 10
ENDMDL
