MODEL 1
REMARK VINA RESULT:      -5.3      0.000      0.000
REMARK  Name = 56775618
REMARK  10 active torsions:
REMARK  status: ('A' for Active; 'I' for Inactive)
REMARK    1  A    between atoms: N_4  and  C_7
REMARK    2  A    between atoms: N_4  and  C_12
REMARK    3  A    between atoms: N_6  and  C_16
REMARK    4  A    between atoms: N_6  and  C_19
REMARK    5  A    between atoms: N_6  and  C_22
REMARK    6  A    between atoms: C_7  and  C_10
REMARK    7  A    between atoms: C_10  and  C_11
REMARK    8  A    between atoms: C_12  and  C_14
REMARK    9  A    between atoms: C_15  and  C_16
REMARK   10  A    between atoms: C_19  and  C_23
REMARK                            x       y       z     vdW  Elec       q    Type
REMARK                         _______ _______ _______ _____ _____    ______ ____
ROOT
ATOM     10  C   UNL     1      -2.607   3.869  26.013  0.00  0.00    +0.085 C 
ENDROOT
BRANCH  10  11
ATOM      3  O   UNL     1       0.532   2.178  25.805  0.00  0.00    -0.358 OA
ATOM      5  N   UNL     1      -0.502   2.766  26.524  0.00  0.00    -0.083 NA
ATOM     11  C   UNL     1      -1.369   3.188  25.600  0.00  0.00    +0.086 A 
ATOM     13  C   UNL     1      -0.940   2.897  24.293  0.00  0.00    +0.072 A 
ATOM     15  C   UNL     1       0.260   2.262  24.479  0.00  0.00    +0.151 A 
BRANCH  15  16
ATOM     16  C   UNL     1       1.281   1.672  23.543  0.00  0.00    +0.161 C 
BRANCH  16   6
ATOM      6  N   UNL     1       1.058   0.243  23.326  0.00  0.00    -0.294 NA
ATOM     22  C   UNL     1      -0.298   0.006  22.832  0.00  0.00    +0.105 C 
BRANCH   6  19
ATOM     19  C   UNL     1       2.045  -0.292  22.387  0.00  0.00    +0.119 C 
BRANCH  19  23
ATOM     23  C   UNL     1       3.429  -0.310  22.979  0.00  0.00    -0.033 A 
ATOM     25  C   UNL     1       4.241   0.821  22.889  0.00  0.00    +0.005 A 
ATOM     26  C   UNL     1       3.900  -1.458  23.617  0.00  0.00    +0.005 A 
ATOM     27  C   UNL     1       5.524   0.803  23.438  0.00  0.00    +0.000 A 
ATOM     28  C   UNL     1       5.182  -1.476  24.165  0.00  0.00    +0.000 A 
ATOM     29  C   UNL     1       5.995  -0.344  24.075  0.00  0.00    +0.000 A 
ENDBRANCH  19  23
ENDBRANCH   6  19
ENDBRANCH  16   6
ENDBRANCH  15  16
ENDBRANCH  10  11
BRANCH  10   7
ATOM      2  O   UNL     1      -5.886   3.797  25.192  0.00  0.00    -0.376 OA
ATOM      7  C   UNL     1      -3.839   3.218  25.368  0.00  0.00    +0.072 C 
ATOM      8  C   UNL     1      -4.693   4.041  24.411  0.00  0.00    +0.184 C 
ATOM      9  C   UNL     1      -5.117   3.084  26.187  0.00  0.00    +0.184 C 
BRANCH   7   4
ATOM      4  N   UNL     1      -3.542   1.934  24.746  0.00  0.00    -0.302 NA
ATOM     30  H   UNL     1      -3.867   1.822  23.788  0.00  0.00    +0.123 HD
BRANCH   4  12
ATOM     12  C   UNL     1      -4.048   0.851  25.586  0.00  0.00    +0.118 C 
BRANCH  12  14
ATOM      1 CL   UNL     1      -1.367  -0.443  26.406  0.00  0.00    -0.083 Cl
ATOM     14  C   UNL     1      -3.712  -0.502  25.018  0.00  0.00    -0.015 A 
ATOM     17  C   UNL     1      -2.521  -1.154  25.338  0.00  0.00    +0.045 A 
ATOM     18  C   UNL     1      -4.625  -1.103  24.152  0.00  0.00    +0.006 A 
ATOM     20  C   UNL     1      -2.244  -2.407  24.791  0.00  0.00    +0.020 A 
ATOM     21  C   UNL     1      -4.348  -2.355  23.606  0.00  0.00    +0.000 A 
ATOM     24  C   UNL     1      -3.158  -3.008  23.925  0.00  0.00    +0.001 A 
ENDBRANCH  12  14
ENDBRANCH   4  12
ENDBRANCH   7   4
ENDBRANCH  10   7
TORSDOF 9
ENDMDL
MODEL 2
REMARK VINA RESULT:      -3.7      1.944      6.974
REMARK  Name = 56775618
REMARK  10 active torsions:
REMARK  status: ('A' for Active; 'I' for Inactive)
REMARK    1  A    between atoms: N_4  and  C_7
REMARK    2  A    between atoms: N_4  and  C_12
REMARK    3  A    between atoms: N_6  and  C_16
REMARK    4  A    between atoms: N_6  and  C_19
REMARK    5  A    between atoms: N_6  and  C_22
REMARK    6  A    between atoms: C_7  and  C_10
REMARK    7  A    between atoms: C_10  and  C_11
REMARK    8  A    between atoms: C_12  and  C_14
REMARK    9  A    between atoms: C_15  and  C_16
REMARK   10  A    between atoms: C_19  and  C_23
REMARK                            x       y       z     vdW  Elec       q    Type
REMARK                         _______ _______ _______ _____ _____    ______ ____
ROOT
ATOM     10  C   UNL     1      -0.273   3.235  23.926  0.00  0.00    +0.085 C 
ENDROOT
BRANCH  10  11
ATOM      3  O   UNL     1      -2.915   4.189  26.131  0.00  0.00    -0.358 OA
ATOM      5  N   UNL     1      -1.586   4.210  25.724  0.00  0.00    -0.083 NA
ATOM     11  C   UNL     1      -1.547   3.439  24.634  0.00  0.00    +0.086 A 
ATOM     13  C   UNL     1      -2.808   2.909  24.309  0.00  0.00    +0.072 A 
ATOM     15  C   UNL     1      -3.632   3.411  25.282  0.00  0.00    +0.151 A 
BRANCH  15  16
ATOM     16  C   UNL     1      -5.102   3.273  25.574  0.00  0.00    +0.161 C 
BRANCH  16   6
ATOM      6  N   UNL     1      -5.467   1.893  25.889  0.00  0.00    -0.294 NA
ATOM     22  C   UNL     1      -6.774   1.846  26.544  0.00  0.00    +0.105 C 
BRANCH   6  19
ATOM     19  C   UNL     1      -5.476   1.076  24.675  0.00  0.00    +0.119 C 
BRANCH  19  23
ATOM     23  C   UNL     1      -4.641  -0.168  24.831  0.00  0.00    -0.033 A 
ATOM     25  C   UNL     1      -4.618  -1.124  23.815  0.00  0.00    +0.005 A 
ATOM     26  C   UNL     1      -3.893  -0.364  25.991  0.00  0.00    +0.005 A 
ATOM     27  C   UNL     1      -3.845  -2.276  23.960  0.00  0.00    +0.000 A 
ATOM     28  C   UNL     1      -3.119  -1.516  26.136  0.00  0.00    +0.000 A 
ATOM     29  C   UNL     1      -3.096  -2.473  25.119  0.00  0.00    +0.000 A 
ENDBRANCH  19  23
ENDBRANCH   6  19
ENDBRANCH  16   6
ENDBRANCH  15  16
ENDBRANCH  10  11
BRANCH  10   7
ATOM      2  O   UNL     1      -0.873  -0.076  24.256  0.00  0.00    -0.376 OA
ATOM      7  C   UNL     1       0.172   1.767  23.999  0.00  0.00    +0.072 C 
ATOM      8  C   UNL     1      -0.523   0.739  23.115  0.00  0.00    +0.184 C 
ATOM      9  C   UNL     1      -0.314   0.906  25.159  0.00  0.00    +0.184 C 
BRANCH   7   4
ATOM      4  N   UNL     1       1.613   1.603  23.865  0.00  0.00    -0.302 NA
ATOM     30  H   UNL     1       2.121   2.420  23.533  0.00  0.00    +0.123 HD
BRANCH   4  12
ATOM     12  C   UNL     1       1.903   0.445  23.023  0.00  0.00    +0.118 C 
BRANCH  12  14
ATOM      1 CL   UNL     1       4.294   2.278  22.344  0.00  0.00    -0.083 Cl
ATOM     14  C   UNL     1       3.291  -0.086  23.259  0.00  0.00    -0.015 A 
ATOM     17  C   UNL     1       4.424   0.678  22.977  0.00  0.00    +0.045 A 
ATOM     18  C   UNL     1       3.429  -1.376  23.771  0.00  0.00    +0.006 A 
ATOM     20  C   UNL     1       5.696   0.151  23.209  0.00  0.00    +0.020 A 
ATOM     21  C   UNL     1       4.700  -1.902  24.002  0.00  0.00    +0.000 A 
ATOM     24  C   UNL     1       5.833  -1.139  23.722  0.00  0.00    +0.001 A 
ENDBRANCH  12  14
ENDBRANCH   4  12
ENDBRANCH   7   4
ENDBRANCH  10   7
TORSDOF 9
ENDMDL
MODEL 3
REMARK VINA RESULT:      -3.0      2.307      6.973
REMARK  Name = 56775618
REMARK  10 active torsions:
REMARK  status: ('A' for Active; 'I' for Inactive)
REMARK    1  A    between atoms: N_4  and  C_7
REMARK    2  A    between atoms: N_4  and  C_12
REMARK    3  A    between atoms: N_6  and  C_16
REMARK    4  A    between atoms: N_6  and  C_19
REMARK    5  A    between atoms: N_6  and  C_22
REMARK    6  A    between atoms: C_7  and  C_10
REMARK    7  A    between atoms: C_10  and  C_11
REMARK    8  A    between atoms: C_12  and  C_14
REMARK    9  A    between atoms: C_15  and  C_16
REMARK   10  A    between atoms: C_19  and  C_23
REMARK                            x       y       z     vdW  Elec       q    Type
REMARK                         _______ _______ _______ _____ _____    ______ ____
ROOT
ATOM     10  C   UNL     1      -1.621   0.041  23.072  0.00  0.00    +0.085 C 
ENDROOT
BRANCH  10  11
ATOM      3  O   UNL     1      -4.637   0.274  24.970  0.00  0.00    -0.358 OA
ATOM      5  N   UNL     1      -3.577  -0.445  24.432  0.00  0.00    -0.083 NA
ATOM     11  C   UNL     1      -2.845   0.460  23.775  0.00  0.00    +0.086 A 
ATOM     13  C   UNL     1      -3.390   1.753  23.861  0.00  0.00    +0.072 A 
ATOM     15  C   UNL     1      -4.515   1.580  24.624  0.00  0.00    +0.151 A 
BRANCH  15  16
ATOM     16  C   UNL     1      -5.586   2.512  25.124  0.00  0.00    +0.161 C 
BRANCH  16   6
ATOM      6  N   UNL     1      -5.073   3.864  25.342  0.00  0.00    -0.294 NA
ATOM     22  C   UNL     1      -6.171   4.788  25.626  0.00  0.00    +0.105 C 
BRANCH   6  19
ATOM     19  C   UNL     1      -4.103   3.873  26.437  0.00  0.00    +0.119 C 
BRANCH  19  23
ATOM     23  C   UNL     1      -2.692   4.035  25.934  0.00  0.00    -0.033 A 
ATOM     25  C   UNL     1      -2.342   5.162  25.191  0.00  0.00    +0.005 A 
ATOM     26  C   UNL     1      -1.737   3.058  26.213  0.00  0.00    +0.005 A 
ATOM     27  C   UNL     1      -1.035   5.312  24.726  0.00  0.00    +0.000 A 
ATOM     28  C   UNL     1      -0.430   3.207  25.748  0.00  0.00    +0.000 A 
ATOM     29  C   UNL     1      -0.080   4.335  25.004  0.00  0.00    +0.000 A 
ENDBRANCH  19  23
ENDBRANCH   6  19
ENDBRANCH  16   6
ENDBRANCH  15  16
ENDBRANCH  10  11
BRANCH  10   7
ATOM      2  O   UNL     1      -0.367  -1.627  25.732  0.00  0.00    -0.376 OA
ATOM      7  C   UNL     1      -0.502  -0.300  24.066  0.00  0.00    +0.072 C 
ATOM      8  C   UNL     1      -0.150  -1.763  24.309  0.00  0.00    +0.184 C 
ATOM      9  C   UNL     1      -0.803  -0.260  25.559  0.00  0.00    +0.184 C 
BRANCH   7   4
ATOM      4  N   UNL     1       0.726   0.443  23.814  0.00  0.00    -0.302 NA
ATOM     30  H   UNL     1       0.606   1.424  23.574  0.00  0.00    +0.123 HD
BRANCH   4  12
ATOM     12  C   UNL     1       1.516  -0.241  22.792  0.00  0.00    +0.118 C 
BRANCH  12  14
ATOM      1 CL   UNL     1       3.221   2.322  22.537  0.00  0.00    -0.083 Cl
ATOM     14  C   UNL     1       2.972  -0.318  23.168  0.00  0.00    -0.015 A 
ATOM     17  C   UNL     1       3.810   0.794  23.080  0.00  0.00    +0.045 A 
ATOM     18  C   UNL     1       3.477  -1.540  23.612  0.00  0.00    +0.006 A 
ATOM     20  C   UNL     1       5.154   0.683  23.437  0.00  0.00    +0.020 A 
ATOM     21  C   UNL     1       4.821  -1.650  23.969  0.00  0.00    +0.000 A 
ATOM     24  C   UNL     1       5.660  -0.539  23.882  0.00  0.00    +0.001 A 
ENDBRANCH  12  14
ENDBRANCH   4  12
ENDBRANCH   7   4
ENDBRANCH  10   7
TORSDOF 9
ENDMDL
MODEL 4
REMARK VINA RESULT:      -2.9      1.128      1.544
REMARK  Name = 56775618
REMARK  10 active torsions:
REMARK  status: ('A' for Active; 'I' for Inactive)
REMARK    1  A    between atoms: N_4  and  C_7
REMARK    2  A    between atoms: N_4  and  C_12
REMARK    3  A    between atoms: N_6  and  C_16
REMARK    4  A    between atoms: N_6  and  C_19
REMARK    5  A    between atoms: N_6  and  C_22
REMARK    6  A    between atoms: C_7  and  C_10
REMARK    7  A    between atoms: C_10  and  C_11
REMARK    8  A    between atoms: C_12  and  C_14
REMARK    9  A    between atoms: C_15  and  C_16
REMARK   10  A    between atoms: C_19  and  C_23
REMARK                            x       y       z     vdW  Elec       q    Type
REMARK                         _______ _______ _______ _____ _____    ______ ____
ROOT
ATOM     10  C   UNL     1      -2.626   4.097  25.747  0.00  0.00    +0.085 C 
ENDROOT
BRANCH  10  11
ATOM      3  O   UNL     1      -0.306   1.399  25.451  0.00  0.00    -0.358 OA
ATOM      5  N   UNL     1      -1.392   2.025  26.051  0.00  0.00    -0.083 NA
ATOM     11  C   UNL     1      -1.547   3.167  25.376  0.00  0.00    +0.086 A 
ATOM     13  C   UNL     1      -0.598   3.314  24.349  0.00  0.00    +0.072 A 
ATOM     15  C   UNL     1       0.157   2.175  24.440  0.00  0.00    +0.151 A 
BRANCH  15  16
ATOM     16  C   UNL     1       1.341   1.647  23.674  0.00  0.00    +0.161 C 
BRANCH  16   6
ATOM      6  N   UNL     1       1.117   0.281  23.200  0.00  0.00    -0.294 NA
ATOM     22  C   UNL     1      -0.196   0.169  22.566  0.00  0.00    +0.105 C 
BRANCH   6  19
ATOM     19  C   UNL     1       2.170  -0.115  22.264  0.00  0.00    +0.119 C 
BRANCH  19  23
ATOM     23  C   UNL     1       3.509  -0.233  22.945  0.00  0.00    -0.033 A 
ATOM     25  C   UNL     1       3.873  -1.428  23.564  0.00  0.00    +0.005 A 
ATOM     26  C   UNL     1       4.383   0.854  22.955  0.00  0.00    +0.005 A 
ATOM     27  C   UNL     1       5.113  -1.537  24.193  0.00  0.00    +0.000 A 
ATOM     28  C   UNL     1       5.623   0.745  23.585  0.00  0.00    +0.000 A 
ATOM     29  C   UNL     1       5.988  -0.451  24.205  0.00  0.00    +0.000 A 
ENDBRANCH  19  23
ENDBRANCH   6  19
ENDBRANCH  16   6
ENDBRANCH  15  16
ENDBRANCH  10  11
BRANCH  10   7
ATOM      2  O   UNL     1      -6.006   4.145  25.726  0.00  0.00    -0.376 OA
ATOM      7  C   UNL     1      -3.996   3.557  25.315  0.00  0.00    +0.072 C 
ATOM      8  C   UNL     1      -5.023   4.522  24.735  0.00  0.00    +0.184 C 
ATOM      9  C   UNL     1      -5.050   3.282  26.382  0.00  0.00    +0.184 C 
BRANCH   7   4
ATOM      4  N   UNL     1      -3.898   2.395  24.442  0.00  0.00    -0.302 NA
ATOM     30  H   UNL     1      -4.112   2.561  23.461  0.00  0.00    +0.123 HD
BRANCH   4  12
ATOM     12  C   UNL     1      -4.725   1.310  24.967  0.00  0.00    +0.118 C 
BRANCH  12  14
ATOM      1 CL   UNL     1      -3.279   0.507  22.359  0.00  0.00    -0.083 Cl
ATOM     14  C   UNL     1      -4.003  -0.010  24.936  0.00  0.00    -0.015 A 
ATOM     17  C   UNL     1      -3.326  -0.446  23.796  0.00  0.00    +0.045 A 
ATOM     18  C   UNL     1      -4.022  -0.803  26.083  0.00  0.00    +0.006 A 
ATOM     20  C   UNL     1      -2.668  -1.677  23.805  0.00  0.00    +0.020 A 
ATOM     21  C   UNL     1      -3.364  -2.033  26.091  0.00  0.00    +0.000 A 
ATOM     24  C   UNL     1      -2.687  -2.470  24.953  0.00  0.00    +0.001 A 
ENDBRANCH  12  14
ENDBRANCH   4  12
ENDBRANCH   7   4
ENDBRANCH  10   7
TORSDOF 9
ENDMDL
MODEL 5
REMARK VINA RESULT:      -1.7      2.210      6.691
REMARK  Name = 56775618
REMARK  10 active torsions:
REMARK  status: ('A' for Active; 'I' for Inactive)
REMARK    1  A    between atoms: N_4  and  C_7
REMARK    2  A    between atoms: N_4  and  C_12
REMARK    3  A    between atoms: N_6  and  C_16
REMARK    4  A    between atoms: N_6  and  C_19
REMARK    5  A    between atoms: N_6  and  C_22
REMARK    6  A    between atoms: C_7  and  C_10
REMARK    7  A    between atoms: C_10  and  C_11
REMARK    8  A    between atoms: C_12  and  C_14
REMARK    9  A    between atoms: C_15  and  C_16
REMARK   10  A    between atoms: C_19  and  C_23
REMARK                            x       y       z     vdW  Elec       q    Type
REMARK                         _______ _______ _______ _____ _____    ______ ____
ROOT
ATOM     10  C   UNL     1      -3.043  -2.252  24.983  0.00  0.00    +0.085 C 
ENDROOT
BRANCH  10  11
ATOM      3  O   UNL     1      -5.069   0.514  23.985  0.00  0.00    -0.358 OA
ATOM      5  N   UNL     1      -4.328  -0.629  23.709  0.00  0.00    -0.083 NA
ATOM     11  C   UNL     1      -3.879  -1.043  24.897  0.00  0.00    +0.086 A 
ATOM     13  C   UNL     1      -4.299  -0.210  25.948  0.00  0.00    +0.072 A 
ATOM     15  C   UNL     1      -5.045   0.753  25.320  0.00  0.00    +0.151 A 
BRANCH  15  16
ATOM     16  C   UNL     1      -5.802   1.962  25.801  0.00  0.00    +0.161 C 
BRANCH  16   6
ATOM      6  N   UNL     1      -5.154   3.208  25.395  0.00  0.00    -0.294 NA
ATOM     22  C   UNL     1      -6.080   4.332  25.522  0.00  0.00    +0.105 C 
BRANCH   6  19
ATOM     19  C   UNL     1      -3.952   3.444  26.195  0.00  0.00    +0.119 C 
BRANCH  19  23
ATOM     23  C   UNL     1      -2.772   3.820  25.338  0.00  0.00    -0.033 A 
ATOM     25  C   UNL     1      -2.479   3.081  24.192  0.00  0.00    +0.005 A 
ATOM     26  C   UNL     1      -1.973   4.907  25.691  0.00  0.00    +0.005 A 
ATOM     27  C   UNL     1      -1.386   3.430  23.399  0.00  0.00    +0.000 A 
ATOM     28  C   UNL     1      -0.880   5.256  24.898  0.00  0.00    +0.000 A 
ATOM     29  C   UNL     1      -0.586   4.516  23.751  0.00  0.00    +0.000 A 
ENDBRANCH  19  23
ENDBRANCH   6  19
ENDBRANCH  16   6
ENDBRANCH  15  16
ENDBRANCH  10  11
BRANCH  10   7
ATOM      2  O   UNL     1       0.168  -2.070  26.025  0.00  0.00    -0.376 OA
ATOM      7  C   UNL     1      -1.559  -1.915  24.781  0.00  0.00    +0.072 C 
ATOM      8  C   UNL     1      -0.509  -2.968  25.116  0.00  0.00    +0.184 C 
ATOM      9  C   UNL     1      -0.848  -1.061  25.824  0.00  0.00    +0.184 C 
BRANCH   7   4
ATOM      4  N   UNL     1      -1.276  -1.373  23.458  0.00  0.00    -0.302 NA
ATOM     30  H   UNL     1      -0.589  -1.886  22.909  0.00  0.00    +0.123 HD
BRANCH   4  12
ATOM     12  C   UNL     1      -0.892   0.032  23.572  0.00  0.00    +0.118 C 
BRANCH  12  14
ATOM      1 CL   UNL     1       0.767   2.037  25.236  0.00  0.00    -0.083 Cl
ATOM     14  C   UNL     1       0.547   0.253  23.187  0.00  0.00    -0.015 A 
ATOM     17  C   UNL     1       1.363   1.142  23.887  0.00  0.00    +0.045 A 
ATOM     18  C   UNL     1       1.058  -0.456  22.100  0.00  0.00    +0.006 A 
ATOM     20  C   UNL     1       2.692   1.320  23.498  0.00  0.00    +0.020 A 
ATOM     21  C   UNL     1       2.385  -0.278  21.713  0.00  0.00    +0.000 A 
ATOM     24  C   UNL     1       3.203   0.610  22.412  0.00  0.00    +0.001 A 
ENDBRANCH  12  14
ENDBRANCH   4  12
ENDBRANCH   7   4
ENDBRANCH  10   7
TORSDOF 9
ENDMDL
MODEL 6
REMARK VINA RESULT:      -1.7      2.127      2.962
REMARK  Name = 56775618
REMARK  10 active torsions:
REMARK  status: ('A' for Active; 'I' for Inactive)
REMARK    1  A    between atoms: N_4  and  C_7
REMARK    2  A    between atoms: N_4  and  C_12
REMARK    3  A    between atoms: N_6  and  C_16
REMARK    4  A    between atoms: N_6  and  C_19
REMARK    5  A    between atoms: N_6  and  C_22
REMARK    6  A    between atoms: C_7  and  C_10
REMARK    7  A    between atoms: C_10  and  C_11
REMARK    8  A    between atoms: C_12  and  C_14
REMARK    9  A    between atoms: C_15  and  C_16
REMARK   10  A    between atoms: C_19  and  C_23
REMARK                            x       y       z     vdW  Elec       q    Type
REMARK                         _______ _______ _______ _____ _____    ______ ____
ROOT
ATOM     10  C   UNL     1      -0.793   2.722  26.162  0.00  0.00    +0.085 C 
ENDROOT
BRANCH  10  11
ATOM      3  O   UNL     1      -0.769  -0.752  25.335  0.00  0.00    -0.358 OA
ATOM      5  N   UNL     1      -1.074   0.308  26.181  0.00  0.00    -0.083 NA
ATOM     11  C   UNL     1      -0.632   1.396  25.544  0.00  0.00    +0.086 A 
ATOM     13  C   UNL     1      -0.045   1.088  24.304  0.00  0.00    +0.072 A 
ATOM     15  C   UNL     1      -0.158  -0.275  24.221  0.00  0.00    +0.151 A 
BRANCH  15  16
ATOM     16  C   UNL     1       0.245  -1.292  23.187  0.00  0.00    +0.161 C 
BRANCH  16   6
ATOM      6  N   UNL     1       1.271  -0.772  22.284  0.00  0.00    -0.294 NA
ATOM     22  C   UNL     1       0.671  -0.353  21.017  0.00  0.00    +0.105 C 
BRANCH   6  19
ATOM     19  C   UNL     1       1.982   0.345  22.906  0.00  0.00    +0.119 C 
BRANCH  19  23
ATOM     23  C   UNL     1       3.399  -0.021  23.261  0.00  0.00    -0.033 A 
ATOM     25  C   UNL     1       3.699  -1.313  23.691  0.00  0.00    +0.005 A 
ATOM     26  C   UNL     1       4.411   0.934  23.159  0.00  0.00    +0.005 A 
ATOM     27  C   UNL     1       5.012  -1.651  24.020  0.00  0.00    +0.000 A 
ATOM     28  C   UNL     1       5.724   0.596  23.487  0.00  0.00    +0.000 A 
ATOM     29  C   UNL     1       6.024  -0.697  23.918  0.00  0.00    +0.000 A 
ENDBRANCH  19  23
ENDBRANCH   6  19
ENDBRANCH  16   6
ENDBRANCH  15  16
ENDBRANCH  10  11
BRANCH  10   7
ATOM      2  O   UNL     1      -0.401   4.923  23.626  0.00  0.00    -0.376 OA
ATOM      7  C   UNL     1      -1.324   3.745  25.148  0.00  0.00    +0.072 C 
ATOM      8  C   UNL     1      -0.954   3.588  23.677  0.00  0.00    +0.184 C 
ATOM      9  C   UNL     1      -0.638   5.102  25.041  0.00  0.00    +0.184 C 
BRANCH   7   4
ATOM      4  N   UNL     1      -2.762   3.952  25.251  0.00  0.00    -0.302 NA
ATOM     30  H   UNL     1      -3.206   3.564  26.080  0.00  0.00    +0.123 HD
BRANCH   4  12
ATOM     12  C   UNL     1      -3.420   3.459  24.042  0.00  0.00    +0.118 C 
BRANCH  12  14
ATOM      1 CL   UNL     1      -5.482   2.736  26.225  0.00  0.00    -0.083 Cl
ATOM     14  C   UNL     1      -3.832   2.018  24.177  0.00  0.00    -0.015 A 
ATOM     17  C   UNL     1      -4.757   1.609  25.138  0.00  0.00    +0.045 A 
ATOM     18  C   UNL     1      -3.265   1.083  23.312  0.00  0.00    +0.006 A 
ATOM     20  C   UNL     1      -5.114   0.262  25.233  0.00  0.00    +0.020 A 
ATOM     21  C   UNL     1      -3.622  -0.262  23.407  0.00  0.00    +0.000 A 
ATOM     24  C   UNL     1      -4.547  -0.673  24.367  0.00  0.00    +0.001 A 
ENDBRANCH  12  14
ENDBRANCH   4  12
ENDBRANCH   7   4
ENDBRANCH  10   7
TORSDOF 9
ENDMDL
MODEL 7
REMARK VINA RESULT:      -1.5      2.457      4.216
REMARK  Name = 56775618
REMARK  10 active torsions:
REMARK  status: ('A' for Active; 'I' for Inactive)
REMARK    1  A    between atoms: N_4  and  C_7
REMARK    2  A    between atoms: N_4  and  C_12
REMARK    3  A    between atoms: N_6  and  C_16
REMARK    4  A    between atoms: N_6  and  C_19
REMARK    5  A    between atoms: N_6  and  C_22
REMARK    6  A    between atoms: C_7  and  C_10
REMARK    7  A    between atoms: C_10  and  C_11
REMARK    8  A    between atoms: C_12  and  C_14
REMARK    9  A    between atoms: C_15  and  C_16
REMARK   10  A    between atoms: C_19  and  C_23
REMARK                            x       y       z     vdW  Elec       q    Type
REMARK                         _______ _______ _______ _____ _____    ______ ____
ROOT
ATOM     10  C   UNL     1      -2.226   3.547  26.480  0.00  0.00    +0.085 C 
ENDROOT
BRANCH  10  11
ATOM      3  O   UNL     1       0.945   2.024  25.865  0.00  0.00    -0.358 OA
ATOM      5  N   UNL     1       0.044   2.701  26.679  0.00  0.00    -0.083 NA
ATOM     11  C   UNL     1      -1.049   2.859  25.926  0.00  0.00    +0.086 A 
ATOM     13  C   UNL     1      -0.898   2.308  24.642  0.00  0.00    +0.072 A 
ATOM     15  C   UNL     1       0.373   1.796  24.656  0.00  0.00    +0.151 A 
BRANCH  15  16
ATOM     16  C   UNL     1       1.213   1.067  23.641  0.00  0.00    +0.161 C 
BRANCH  16   6
ATOM      6  N   UNL     1       0.563  -0.157  23.174  0.00  0.00    -0.294 NA
ATOM     22  C   UNL     1       1.160  -0.605  21.917  0.00  0.00    +0.105 C 
BRANCH   6  19
ATOM     19  C   UNL     1       0.661  -1.207  24.189  0.00  0.00    +0.119 C 
BRANCH  19  23
ATOM     23  C   UNL     1      -0.691  -1.594  24.728  0.00  0.00    -0.033 A 
ATOM     25  C   UNL     1      -1.436  -2.588  24.094  0.00  0.00    +0.005 A 
ATOM     26  C   UNL     1      -1.198  -0.957  25.860  0.00  0.00    +0.005 A 
ATOM     27  C   UNL     1      -2.688  -2.946  24.594  0.00  0.00    +0.000 A 
ATOM     28  C   UNL     1      -2.450  -1.315  26.360  0.00  0.00    +0.000 A 
ATOM     29  C   UNL     1      -3.196  -2.310  25.725  0.00  0.00    +0.000 A 
ENDBRANCH  19  23
ENDBRANCH   6  19
ENDBRANCH  16   6
ENDBRANCH  15  16
ENDBRANCH  10  11
BRANCH  10   7
ATOM      2  O   UNL     1      -1.713   6.366  24.685  0.00  0.00    -0.376 OA
ATOM      7  C   UNL     1      -2.691   4.680  25.554  0.00  0.00    +0.072 C 
ATOM      8  C   UNL     1      -1.887   4.984  24.296  0.00  0.00    +0.184 C 
ATOM      9  C   UNL     1      -2.386   6.122  25.941  0.00  0.00    +0.184 C 
BRANCH   7   4
ATOM      4  N   UNL     1      -4.100   4.578  25.198  0.00  0.00    -0.302 NA
ATOM     30  H   UNL     1      -4.695   4.113  25.880  0.00  0.00    +0.123 HD
BRANCH   4  12
ATOM     12  C   UNL     1      -4.234   3.945  23.887  0.00  0.00    +0.118 C 
BRANCH  12  14
ATOM      1 CL   UNL     1      -2.559   2.193  21.973  0.00  0.00    -0.083 Cl
ATOM     14  C   UNL     1      -4.366   2.450  23.998  0.00  0.00    -0.015 A 
ATOM     17  C   UNL     1      -3.645   1.589  23.170  0.00  0.00    +0.045 A 
ATOM     18  C   UNL     1      -5.236   1.931  24.957  0.00  0.00    +0.006 A 
ATOM     20  C   UNL     1      -3.795   0.208  23.302  0.00  0.00    +0.020 A 
ATOM     21  C   UNL     1      -5.385   0.551  25.088  0.00  0.00    +0.000 A 
ATOM     24  C   UNL     1      -4.665  -0.311  24.262  0.00  0.00    +0.001 A 
ENDBRANCH  12  14
ENDBRANCH   4  12
ENDBRANCH   7   4
ENDBRANCH  10   7
TORSDOF 9
ENDMDL
