MODEL 1
REMARK VINA RESULT:      -2.0      0.000      0.000
REMARK  Name = 71693198
REMARK  13 active torsions:
REMARK  status: ('A' for Active; 'I' for Inactive)
REMARK    1  A    between atoms: O_2  and  C_27
REMARK    2  A    between atoms: O_2  and  C_31
REMARK    3  A    between atoms: O_3  and  C_30
REMARK    4  A    between atoms: N_5  and  C_15
REMARK    5  A    between atoms: C_8  and  C_12
REMARK    6  A    between atoms: C_9  and  C_15
REMARK    7  A    between atoms: C_11  and  C_16
REMARK    8  A    between atoms: C_12  and  C_17
REMARK    9  A    between atoms: C_12  and  C_18
REMARK   10  A    between atoms: C_13  and  C_19
REMARK   11  A    between atoms: C_16  and  C_20
REMARK   12  A    between atoms: C_22  and  C_26
REMARK   13  A    between atoms: C_29  and  C_30
REMARK                            x       y       z     vdW  Elec       q    Type
REMARK                         _______ _______ _______ _____ _____    ______ ____
ROOT
ATOM      8  C   UNL     1      -4.228   3.324  25.426  0.00  0.00    +0.000 C 
ATOM      9  C   UNL     1      -3.901   3.757  23.975  0.00  0.00    +0.032 C 
ATOM     10  C   UNL     1      -3.650   4.333  26.430  0.00  0.00    +0.012 C 
ATOM     11  C   UNL     1      -2.122   4.476  26.296  0.00  0.00    +0.022 C 
ATOM     13  C   UNL     1      -1.695   4.638  24.852  0.00  0.00    -0.073 C 
ATOM     14  C   UNL     1      -2.509   4.324  23.827  0.00  0.00    -0.022 C 
ATOM     19  C   UNL     1      -0.327   5.214  24.610  0.00  0.00    +0.039 C 
ENDROOT
BRANCH   8  12
ATOM     12  C   UNL     1      -5.738   3.178  25.648  0.00  0.00    -0.013 C 
ATOM     17  C   UNL     1      -6.013   2.345  26.896  0.00  0.00    +0.007 C 
ATOM     18  C   UNL     1      -6.394   4.551  25.758  0.00  0.00    +0.007 C 
ENDBRANCH   8  12
BRANCH   9  15
ATOM     15  C   UNL     1      -4.083   2.591  22.996  0.00  0.00    +0.112 C 
BRANCH  15   5
ATOM      1  O   UNL     1      -5.842   0.644  24.218  0.00  0.00    -0.271 OA
ATOM      5  N   UNL     1      -3.712   1.353  23.606  0.00  0.00    -0.311 N 
ATOM     22  C   UNL     1      -4.629   0.471  24.173  0.00  0.00    +0.237 C 
ATOM     32  H   UNL     1      -2.731   1.091  23.579  0.00  0.00    +0.149 HD
BRANCH  22  26
ATOM     26  C   UNL     1      -3.973  -0.741  24.740  0.00  0.00    +0.074 C 
ATOM     29  C   UNL     1      -3.700  -1.783  23.944  0.00  0.00    +0.096 C 
BRANCH  29  30
ATOM      4  O   UNL     1      -3.506  -3.702  25.386  0.00  0.00    -0.246 OA
ATOM     30  C   UNL     1      -3.052  -2.978  24.517  0.00  0.00    +0.330 C 
BRANCH  30   3
ATOM      3  O   UNL     1      -1.850  -3.149  23.919  0.00  0.00    -0.478 OA
ATOM     34  H   UNL     1      -1.368  -3.924  24.279  0.00  0.00    +0.295 HD
ENDBRANCH  30   3
ENDBRANCH  29  30
ENDBRANCH  22  26
ENDBRANCH  15   5
ENDBRANCH   9  15
BRANCH  11  16
ATOM     16  C   UNL     1      -1.397   3.295  26.953  0.00  0.00    +0.082 C 
BRANCH  16  20
ATOM      6  N   UNL     1       0.455   2.635  25.407  0.00  0.00    -0.342 N 
ATOM      7  N   UNL     1      -1.324   1.303  25.414  0.00  0.00    -0.232 NA
ATOM     20  C   UNL     1      -0.785   2.387  25.925  0.00  0.00    +0.109 A 
ATOM     21  C   UNL     1       0.736   1.643  24.502  0.00  0.00    +0.070 A 
ATOM     23  C   UNL     1      -0.389   0.825  24.524  0.00  0.00    +0.089 A 
ATOM     24  C   UNL     1       1.844   1.400  23.689  0.00  0.00    +0.073 A 
ATOM     25  C   UNL     1      -0.429  -0.308  23.694  0.00  0.00    +0.033 A 
ATOM     27  C   UNL     1       1.788   0.268  22.870  0.00  0.00    +0.122 A 
ATOM     28  C   UNL     1       0.672  -0.572  22.871  0.00  0.00    +0.048 A 
ATOM     33  H   UNL     1       1.060   3.409  25.646  0.00  0.00    +0.167 HD
BRANCH  27   2
ATOM      2  O   UNL     1       2.843  -0.020  22.056  0.00  0.00    -0.495 OA
ATOM     31  C   UNL     1       4.102   0.551  22.403  0.00  0.00    +0.277 C 
ENDBRANCH  27   2
ENDBRANCH  16  20
ENDBRANCH  11  16
TORSDOF 9
ENDMDL
MODEL 2
REMARK VINA RESULT:      -1.6      1.719      5.369
REMARK  Name = 71693198
REMARK  13 active torsions:
REMARK  status: ('A' for Active; 'I' for Inactive)
REMARK    1  A    between atoms: O_2  and  C_27
REMARK    2  A    between atoms: O_2  and  C_31
REMARK    3  A    between atoms: O_3  and  C_30
REMARK    4  A    between atoms: N_5  and  C_15
REMARK    5  A    between atoms: C_8  and  C_12
REMARK    6  A    between atoms: C_9  and  C_15
REMARK    7  A    between atoms: C_11  and  C_16
REMARK    8  A    between atoms: C_12  and  C_17
REMARK    9  A    between atoms: C_12  and  C_18
REMARK   10  A    between atoms: C_13  and  C_19
REMARK   11  A    between atoms: C_16  and  C_20
REMARK   12  A    between atoms: C_22  and  C_26
REMARK   13  A    between atoms: C_29  and  C_30
REMARK                            x       y       z     vdW  Elec       q    Type
REMARK                         _______ _______ _______ _____ _____    ______ ____
ROOT
ATOM      8  C   UNL     1      -2.657   2.459  23.774  0.00  0.00    +0.000 C 
ATOM      9  C   UNL     1      -1.534   3.014  24.687  0.00  0.00    +0.032 C 
ATOM     10  C   UNL     1      -3.785   3.491  23.623  0.00  0.00    +0.012 C 
ATOM     11  C   UNL     1      -4.404   3.878  24.979  0.00  0.00    +0.022 C 
ATOM     13  C   UNL     1      -3.344   4.182  26.018  0.00  0.00    -0.073 C 
ATOM     14  C   UNL     1      -2.063   3.799  25.863  0.00  0.00    -0.022 C 
ATOM     19  C   UNL     1      -3.779   4.976  27.218  0.00  0.00    +0.039 C 
ENDROOT
BRANCH   8  12
ATOM     12  C   UNL     1      -2.124   2.067  22.392  0.00  0.00    -0.013 C 
ATOM     17  C   UNL     1      -2.296   0.569  22.161  0.00  0.00    +0.007 C 
ATOM     18  C   UNL     1      -2.831   2.867  21.303  0.00  0.00    +0.007 C 
ENDBRANCH   8  12
BRANCH   9  15
ATOM     15  C   UNL     1      -0.625   1.887  25.192  0.00  0.00    +0.112 C 
BRANCH  15   5
ATOM      1  O   UNL     1       0.271  -0.418  23.690  0.00  0.00    -0.271 OA
ATOM      5  N   UNL     1       0.551   1.783  24.387  0.00  0.00    -0.311 N 
ATOM     22  C   UNL     1       0.909   0.629  23.695  0.00  0.00    +0.237 C 
ATOM     32  H   UNL     1       1.126   2.615  24.286  0.00  0.00    +0.149 HD
BRANCH  22  26
ATOM     26  C   UNL     1       2.182   0.794  22.938  0.00  0.00    +0.074 C 
ATOM     29  C   UNL     1       3.296   0.192  23.371  0.00  0.00    +0.096 C 
BRANCH  29  30
ATOM      4  O   UNL     1       5.673   0.092  23.001  0.00  0.00    -0.246 OA
ATOM     30  C   UNL     1       4.550   0.364  22.614  0.00  0.00    +0.330 C 
BRANCH  30   3
ATOM      3  O   UNL     1       4.256   0.881  21.398  0.00  0.00    -0.478 OA
ATOM     34  H   UNL     1       3.805   1.750  21.468  0.00  0.00    +0.295 HD
ENDBRANCH  30   3
ENDBRANCH  29  30
ENDBRANCH  22  26
ENDBRANCH  15   5
ENDBRANCH   9  15
BRANCH  11  16
ATOM     16  C   UNL     1      -5.365   2.793  25.478  0.00  0.00    +0.082 C 
BRANCH  16  20
ATOM      6  N   UNL     1      -3.680   0.974  25.810  0.00  0.00    -0.342 N 
ATOM      7  N   UNL     1      -5.344   0.511  24.410  0.00  0.00    -0.232 NA
ATOM     20  C   UNL     1      -4.825   1.417  25.209  0.00  0.00    +0.109 A 
ATOM     21  C   UNL     1      -3.444  -0.304  25.370  0.00  0.00    +0.070 A 
ATOM     23  C   UNL     1      -4.496  -0.569  24.498  0.00  0.00    +0.089 A 
ATOM     24  C   UNL     1      -2.431  -1.222  25.651  0.00  0.00    +0.073 A 
ATOM     25  C   UNL     1      -4.557  -1.819  23.859  0.00  0.00    +0.033 A 
ATOM     27  C   UNL     1      -2.509  -2.461  25.008  0.00  0.00    +0.122 A 
ATOM     28  C   UNL     1      -3.552  -2.756  24.127  0.00  0.00    +0.048 A 
ATOM     33  H   UNL     1      -3.108   1.492  26.463  0.00  0.00    +0.167 HD
BRANCH  27   2
ATOM      2  O   UNL     1      -1.547  -3.397  25.245  0.00  0.00    -0.495 OA
ATOM     31  C   UNL     1      -0.215  -2.923  25.431  0.00  0.00    +0.277 C 
ENDBRANCH  27   2
ENDBRANCH  16  20
ENDBRANCH  11  16
TORSDOF 9
ENDMDL
MODEL 3
REMARK VINA RESULT:      -1.0      2.620      4.679
REMARK  Name = 71693198
REMARK  13 active torsions:
REMARK  status: ('A' for Active; 'I' for Inactive)
REMARK    1  A    between atoms: O_2  and  C_27
REMARK    2  A    between atoms: O_2  and  C_31
REMARK    3  A    between atoms: O_3  and  C_30
REMARK    4  A    between atoms: N_5  and  C_15
REMARK    5  A    between atoms: C_8  and  C_12
REMARK    6  A    between atoms: C_9  and  C_15
REMARK    7  A    between atoms: C_11  and  C_16
REMARK    8  A    between atoms: C_12  and  C_17
REMARK    9  A    between atoms: C_12  and  C_18
REMARK   10  A    between atoms: C_13  and  C_19
REMARK   11  A    between atoms: C_16  and  C_20
REMARK   12  A    between atoms: C_22  and  C_26
REMARK   13  A    between atoms: C_29  and  C_30
REMARK                            x       y       z     vdW  Elec       q    Type
REMARK                         _______ _______ _______ _____ _____    ______ ____
ROOT
ATOM      8  C   UNL     1      -3.394   2.274  23.846  0.00  0.00    +0.000 C 
ATOM      9  C   UNL     1      -4.214   3.391  24.539  0.00  0.00    +0.032 C 
ATOM     10  C   UNL     1      -4.260   1.022  23.641  0.00  0.00    +0.012 C 
ATOM     11  C   UNL     1      -4.809   0.471  24.971  0.00  0.00    +0.022 C 
ATOM     13  C   UNL     1      -5.398   1.566  25.836  0.00  0.00    -0.073 C 
ATOM     14  C   UNL     1      -5.131   2.867  25.619  0.00  0.00    -0.022 C 
ATOM     19  C   UNL     1      -6.338   1.136  26.927  0.00  0.00    +0.039 C 
ENDROOT
BRANCH   8  12
ATOM     12  C   UNL     1      -2.827   2.738  22.500  0.00  0.00    -0.013 C 
ATOM     17  C   UNL     1      -2.350   1.542  21.683  0.00  0.00    +0.007 C 
ATOM     18  C   UNL     1      -3.873   3.538  21.729  0.00  0.00    +0.007 C 
ENDBRANCH   8  12
BRANCH   9  15
ATOM     15  C   UNL     1      -3.294   4.467  25.128  0.00  0.00    +0.112 C 
BRANCH  15   5
ATOM      1  O   UNL     1      -0.455   3.922  24.994  0.00  0.00    -0.271 OA
ATOM      5  N   UNL     1      -2.469   3.921  26.159  0.00  0.00    -0.311 N 
ATOM     22  C   UNL     1      -1.104   3.689  26.009  0.00  0.00    +0.237 C 
ATOM     32  H   UNL     1      -2.901   3.737  27.060  0.00  0.00    +0.149 HD
BRANCH  22  26
ATOM     26  C   UNL     1      -0.487   3.113  27.237  0.00  0.00    +0.074 C 
ATOM     29  C   UNL     1       0.842   3.144  27.391  0.00  0.00    +0.096 C 
BRANCH  29  30
ATOM      4  O   UNL     1       0.849   2.256  29.630  0.00  0.00    -0.246 OA
ATOM     30  C   UNL     1       1.440   2.569  28.611  0.00  0.00    +0.330 C 
BRANCH  30   3
ATOM      3  O   UNL     1       2.774   2.441  28.421  0.00  0.00    -0.478 OA
ATOM     34  H   UNL     1       3.244   2.220  29.254  0.00  0.00    +0.295 HD
ENDBRANCH  30   3
ENDBRANCH  29  30
ENDBRANCH  22  26
ENDBRANCH  15   5
ENDBRANCH   9  15
BRANCH  11  16
ATOM     16  C   UNL     1      -3.731  -0.309  25.733  0.00  0.00    +0.082 C 
BRANCH  16  20
ATOM      6  N   UNL     1      -1.522   0.762  25.252  0.00  0.00    -0.342 N 
ATOM      7  N   UNL     1      -1.953  -1.112  24.139  0.00  0.00    -0.232 NA
ATOM     20  C   UNL     1      -2.408  -0.252  25.022  0.00  0.00    +0.109 A 
ATOM     21  C   UNL     1      -0.420   0.542  24.465  0.00  0.00    +0.070 A 
ATOM     23  C   UNL     1      -0.714  -0.633  23.780  0.00  0.00    +0.089 A 
ATOM     24  C   UNL     1       0.771   1.249  24.298  0.00  0.00    +0.073 A 
ATOM     25  C   UNL     1       0.224  -1.149  22.870  0.00  0.00    +0.033 A 
ATOM     27  C   UNL     1       1.694   0.721  23.390  0.00  0.00    +0.122 A 
ATOM     28  C   UNL     1       1.427  -0.456  22.687  0.00  0.00    +0.048 A 
ATOM     33  H   UNL     1      -1.651   1.537  25.889  0.00  0.00    +0.167 HD
BRANCH  27   2
ATOM      2  O   UNL     1       2.876   1.370  23.187  0.00  0.00    -0.495 OA
ATOM     31  C   UNL     1       3.985   0.577  22.767  0.00  0.00    +0.277 C 
ENDBRANCH  27   2
ENDBRANCH  16  20
ENDBRANCH  11  16
TORSDOF 9
ENDMDL
MODEL 4
REMARK VINA RESULT:      -0.9      2.507      6.884
REMARK  Name = 71693198
REMARK  13 active torsions:
REMARK  status: ('A' for Active; 'I' for Inactive)
REMARK    1  A    between atoms: O_2  and  C_27
REMARK    2  A    between atoms: O_2  and  C_31
REMARK    3  A    between atoms: O_3  and  C_30
REMARK    4  A    between atoms: N_5  and  C_15
REMARK    5  A    between atoms: C_8  and  C_12
REMARK    6  A    between atoms: C_9  and  C_15
REMARK    7  A    between atoms: C_11  and  C_16
REMARK    8  A    between atoms: C_12  and  C_17
REMARK    9  A    between atoms: C_12  and  C_18
REMARK   10  A    between atoms: C_13  and  C_19
REMARK   11  A    between atoms: C_16  and  C_20
REMARK   12  A    between atoms: C_22  and  C_26
REMARK   13  A    between atoms: C_29  and  C_30
REMARK                            x       y       z     vdW  Elec       q    Type
REMARK                         _______ _______ _______ _____ _____    ______ ____
ROOT
ATOM      8  C   UNL     1      -1.488  -0.228  24.888  0.00  0.00    +0.000 C 
ATOM      9  C   UNL     1      -0.721  -1.415  24.252  0.00  0.00    +0.032 C 
ATOM     10  C   UNL     1      -2.494  -0.737  25.931  0.00  0.00    +0.012 C 
ATOM     11  C   UNL     1      -3.520  -1.711  25.322  0.00  0.00    +0.022 C 
ATOM     13  C   UNL     1      -2.857  -2.761  24.455  0.00  0.00    -0.073 C 
ATOM     14  C   UNL     1      -1.600  -2.617  23.997  0.00  0.00    -0.022 C 
ATOM     19  C   UNL     1      -3.654  -4.001  24.164  0.00  0.00    +0.039 C 
ENDROOT
BRANCH   8  12
ATOM     12  C   UNL     1      -0.535   0.782  25.535  0.00  0.00    -0.013 C 
ATOM     17  C   UNL     1      -0.036   1.783  24.498  0.00  0.00    +0.007 C 
ATOM     18  C   UNL     1      -1.225   1.499  26.691  0.00  0.00    +0.007 C 
ENDBRANCH   8  12
BRANCH   9  15
ATOM     15  C   UNL     1      -0.038  -0.996  22.945  0.00  0.00    +0.112 C 
BRANCH  15   5
ATOM      1  O   UNL     1       1.945  -0.218  20.986  0.00  0.00    -0.271 OA
ATOM      5  N   UNL     1       1.272  -0.484  23.197  0.00  0.00    -0.311 N 
ATOM     22  C   UNL     1       2.167  -0.133  22.189  0.00  0.00    +0.237 C 
ATOM     32  H   UNL     1       1.539  -0.330  24.166  0.00  0.00    +0.149 HD
BRANCH  22  26
ATOM     26  C   UNL     1       3.461   0.369  22.730  0.00  0.00    +0.074 C 
ATOM     29  C   UNL     1       4.323  -0.487  23.293  0.00  0.00    +0.096 C 
BRANCH  29  30
ATOM      4  O   UNL     1       6.701  -0.106  23.317  0.00  0.00    -0.246 OA
ATOM     30  C   UNL     1       5.601   0.023  23.826  0.00  0.00    +0.330 C 
BRANCH  30   3
ATOM      3  O   UNL     1       5.360   0.667  24.992  0.00  0.00    -0.478 OA
ATOM     34  H   UNL     1       4.417   0.925  25.080  0.00  0.00    +0.295 HD
ENDBRANCH  30   3
ENDBRANCH  29  30
ENDBRANCH  22  26
ENDBRANCH  15   5
ENDBRANCH   9  15
BRANCH  11  16
ATOM     16  C   UNL     1      -4.602  -0.956  24.540  0.00  0.00    +0.082 C 
BRANCH  16  20
ATOM      6  N   UNL     1      -3.452   1.224  24.115  0.00  0.00    -0.342 N 
ATOM      7  N   UNL     1      -5.252   1.314  25.416  0.00  0.00    -0.232 NA
ATOM     20  C   UNL     1      -4.467   0.530  24.712  0.00  0.00    +0.109 A 
ATOM     21  C   UNL     1      -3.593   2.546  24.456  0.00  0.00    +0.070 A 
ATOM     23  C   UNL     1      -4.723   2.576  25.268  0.00  0.00    +0.089 A 
ATOM     24  C   UNL     1      -2.850   3.682  24.134  0.00  0.00    +0.073 A 
ATOM     25  C   UNL     1      -5.152   3.803  25.799  0.00  0.00    +0.033 A 
ATOM     27  C   UNL     1      -3.293   4.896  24.670  0.00  0.00    +0.122 A 
ATOM     28  C   UNL     1      -4.423   4.957  25.489  0.00  0.00    +0.048 A 
ATOM     33  H   UNL     1      -2.727   0.837  23.526  0.00  0.00    +0.167 HD
BRANCH  27   2
ATOM      2  O   UNL     1      -2.607   6.040  24.388  0.00  0.00    -0.495 OA
ATOM     31  C   UNL     1      -1.225   6.067  24.738  0.00  0.00    +0.277 C 
ENDBRANCH  27   2
ENDBRANCH  16  20
ENDBRANCH  11  16
TORSDOF 9
ENDMDL
MODEL 5
REMARK VINA RESULT:       0.2      1.640      4.990
REMARK  Name = 71693198
REMARK  13 active torsions:
REMARK  status: ('A' for Active; 'I' for Inactive)
REMARK    1  A    between atoms: O_2  and  C_27
REMARK    2  A    between atoms: O_2  and  C_31
REMARK    3  A    between atoms: O_3  and  C_30
REMARK    4  A    between atoms: N_5  and  C_15
REMARK    5  A    between atoms: C_8  and  C_12
REMARK    6  A    between atoms: C_9  and  C_15
REMARK    7  A    between atoms: C_11  and  C_16
REMARK    8  A    between atoms: C_12  and  C_17
REMARK    9  A    between atoms: C_12  and  C_18
REMARK   10  A    between atoms: C_13  and  C_19
REMARK   11  A    between atoms: C_16  and  C_20
REMARK   12  A    between atoms: C_22  and  C_26
REMARK   13  A    between atoms: C_29  and  C_30
REMARK                            x       y       z     vdW  Elec       q    Type
REMARK                         _______ _______ _______ _____ _____    ______ ____
ROOT
ATOM      8  C   UNL     1      -2.303   4.213  24.951  0.00  0.00    +0.000 C 
ATOM      9  C   UNL     1      -2.625   3.693  26.375  0.00  0.00    +0.032 C 
ATOM     10  C   UNL     1      -3.554   4.834  24.311  0.00  0.00    +0.012 C 
ATOM     11  C   UNL     1      -4.717   3.828  24.213  0.00  0.00    +0.022 C 
ATOM     13  C   UNL     1      -4.923   3.076  25.511  0.00  0.00    -0.073 C 
ATOM     14  C   UNL     1      -3.982   3.038  26.472  0.00  0.00    -0.022 C 
ATOM     19  C   UNL     1      -6.256   2.406  25.700  0.00  0.00    +0.039 C 
ENDROOT
BRANCH   8  12
ATOM     12  C   UNL     1      -1.164   5.238  24.965  0.00  0.00    -0.013 C 
ATOM     17  C   UNL     1      -0.201   4.979  23.810  0.00  0.00    +0.007 C 
ATOM     18  C   UNL     1      -1.723   6.655  24.895  0.00  0.00    +0.007 C 
ENDBRANCH   8  12
BRANCH   9  15
ATOM     15  C   UNL     1      -1.550   2.715  26.862  0.00  0.00    +0.112 C 
BRANCH  15   5
ATOM      1  O   UNL     1       1.218   2.705  26.016  0.00  0.00    -0.271 OA
ATOM      5  N   UNL     1      -0.983   1.995  25.765  0.00  0.00    -0.311 N 
ATOM     22  C   UNL     1       0.367   2.048  25.426  0.00  0.00    +0.237 C 
ATOM     32  H   UNL     1      -1.597   1.380  25.238  0.00  0.00    +0.149 HD
BRANCH  22  26
ATOM     26  C   UNL     1       0.688   1.204  24.241  0.00  0.00    +0.074 C 
ATOM     29  C   UNL     1       1.935   1.186  23.756  0.00  0.00    +0.096 C 
BRANCH  29  30
ATOM      4  O   UNL     1       3.298   0.306  21.976  0.00  0.00    -0.246 OA
ATOM     30  C   UNL     1       2.240   0.348  22.581  0.00  0.00    +0.330 C 
BRANCH  30   3
ATOM      3  O   UNL     1       1.143  -0.381  22.270  0.00  0.00    -0.478 OA
ATOM     34  H   UNL     1       0.657  -0.006  21.505  0.00  0.00    +0.295 HD
ENDBRANCH  30   3
ENDBRANCH  29  30
ENDBRANCH  22  26
ENDBRANCH  15   5
ENDBRANCH   9  15
BRANCH  11  16
ATOM     16  C   UNL     1      -4.510   2.858  23.043  0.00  0.00    +0.082 C 
BRANCH  16  20
ATOM      6  N   UNL     1      -2.743   1.170  23.576  0.00  0.00    -0.342 N 
ATOM      7  N   UNL     1      -4.839   0.525  23.933  0.00  0.00    -0.232 NA
ATOM     20  C   UNL     1      -4.067   1.506  23.525  0.00  0.00    +0.109 A 
ATOM     21  C   UNL     1      -2.655  -0.114  24.050  0.00  0.00    +0.070 A 
ATOM     23  C   UNL     1      -3.977  -0.495  24.266  0.00  0.00    +0.089 A 
ATOM     24  C   UNL     1      -1.567  -0.950  24.301  0.00  0.00    +0.073 A 
ATOM     25  C   UNL     1      -4.247  -1.781  24.760  0.00  0.00    +0.033 A 
ATOM     27  C   UNL     1      -1.854  -2.227  24.794  0.00  0.00    +0.122 A 
ATOM     28  C   UNL     1      -3.170  -2.638  25.020  0.00  0.00    +0.048 A 
ATOM     33  H   UNL     1      -1.965   1.760  23.313  0.00  0.00    +0.167 HD
BRANCH  27   2
ATOM      2  O   UNL     1      -0.829  -3.087  25.058  0.00  0.00    -0.495 OA
ATOM     31  C   UNL     1       0.401  -2.512  25.490  0.00  0.00    +0.277 C 
ENDBRANCH  27   2
ENDBRANCH  16  20
ENDBRANCH  11  16
TORSDOF 9
ENDMDL
MODEL 6
REMARK VINA RESULT:       1.8      2.912      5.409
REMARK  Name = 71693198
REMARK  13 active torsions:
REMARK  status: ('A' for Active; 'I' for Inactive)
REMARK    1  A    between atoms: O_2  and  C_27
REMARK    2  A    between atoms: O_2  and  C_31
REMARK    3  A    between atoms: O_3  and  C_30
REMARK    4  A    between atoms: N_5  and  C_15
REMARK    5  A    between atoms: C_8  and  C_12
REMARK    6  A    between atoms: C_9  and  C_15
REMARK    7  A    between atoms: C_11  and  C_16
REMARK    8  A    between atoms: C_12  and  C_17
REMARK    9  A    between atoms: C_12  and  C_18
REMARK   10  A    between atoms: C_13  and  C_19
REMARK   11  A    between atoms: C_16  and  C_20
REMARK   12  A    between atoms: C_22  and  C_26
REMARK   13  A    between atoms: C_29  and  C_30
REMARK                            x       y       z     vdW  Elec       q    Type
REMARK                         _______ _______ _______ _____ _____    ______ ____
ROOT
ATOM      8  C   UNL     1      -3.110   2.584  23.453  0.00  0.00    +0.000 C 
ATOM      9  C   UNL     1      -1.915   2.986  24.353  0.00  0.00    +0.032 C 
ATOM     10  C   UNL     1      -4.255   3.598  23.599  0.00  0.00    +0.012 C 
ATOM     11  C   UNL     1      -4.754   3.707  25.052  0.00  0.00    +0.022 C 
ATOM     13  C   UNL     1      -3.607   3.837  26.033  0.00  0.00    -0.073 C 
ATOM     14  C   UNL     1      -2.342   3.522  25.699  0.00  0.00    -0.022 C 
ATOM     19  C   UNL     1      -3.939   4.380  27.395  0.00  0.00    +0.039 C 
ENDROOT
BRANCH   8  12
ATOM     12  C   UNL     1      -2.700   2.473  21.981  0.00  0.00    -0.013 C 
ATOM     17  C   UNL     1      -2.471   1.013  21.602  0.00  0.00    +0.007 C 
ATOM     18  C   UNL     1      -3.760   3.105  21.084  0.00  0.00    +0.007 C 
ENDBRANCH   8  12
BRANCH   9  15
ATOM     15  C   UNL     1      -0.955   1.808  24.555  0.00  0.00    +0.112 C 
BRANCH  15   5
ATOM      1  O   UNL     1       0.569   4.119  25.397  0.00  0.00    -0.271 OA
ATOM      5  N   UNL     1      -0.212   1.959  25.766  0.00  0.00    -0.311 N 
ATOM     22  C   UNL     1       0.498   3.112  26.094  0.00  0.00    +0.237 C 
ATOM     32  H   UNL     1      -0.245   1.196  26.437  0.00  0.00    +0.149 HD
BRANCH  22  26
ATOM     26  C   UNL     1       1.183   3.001  27.412  0.00  0.00    +0.074 C 
ATOM     29  C   UNL     1       0.597   2.331  28.411  0.00  0.00    +0.096 C 
BRANCH  29  30
ATOM      4  O   UNL     1       0.813   2.494  30.804  0.00  0.00    -0.246 OA
ATOM     30  C   UNL     1       1.285   2.229  29.712  0.00  0.00    +0.330 C 
BRANCH  30   3
ATOM      3  O   UNL     1       2.548   1.788  29.503  0.00  0.00    -0.478 OA
ATOM     34  H   UNL     1       2.594   0.808  29.472  0.00  0.00    +0.295 HD
ENDBRANCH  30   3
ENDBRANCH  29  30
ENDBRANCH  22  26
ENDBRANCH  15   5
ENDBRANCH   9  15
BRANCH  11  16
ATOM     16  C   UNL     1      -5.657   2.523  25.417  0.00  0.00    +0.082 C 
BRANCH  16  20
ATOM      6  N   UNL     1      -3.834   0.860  25.822  0.00  0.00    -0.342 N 
ATOM      7  N   UNL     1      -5.352   0.284  24.304  0.00  0.00    -0.232 NA
ATOM     20  C   UNL     1      -4.974   1.211  25.155  0.00  0.00    +0.109 A 
ATOM     21  C   UNL     1      -3.451  -0.378  25.372  0.00  0.00    +0.070 A 
ATOM     23  C   UNL     1      -4.414  -0.715  24.425  0.00  0.00    +0.089 A 
ATOM     24  C   UNL     1      -2.377  -1.206  25.700  0.00  0.00    +0.073 A 
ATOM     25  C   UNL     1      -4.316  -1.947  23.757  0.00  0.00    +0.033 A 
ATOM     27  C   UNL     1      -2.295  -2.429  25.026  0.00  0.00    +0.122 A 
ATOM     28  C   UNL     1      -3.247  -2.795  24.071  0.00  0.00    +0.048 A 
ATOM     33  H   UNL     1      -3.357   1.410  26.523  0.00  0.00    +0.167 HD
BRANCH  27   2
ATOM      2  O   UNL     1      -1.267  -3.279  25.308  0.00  0.00    -0.495 OA
ATOM     31  C   UNL     1       0.050  -2.735  25.269  0.00  0.00    +0.277 C 
ENDBRANCH  27   2
ENDBRANCH  16  20
ENDBRANCH  11  16
TORSDOF 9
ENDMDL
