MODEL 1
REMARK VINA RESULT:       0.2      0.000      0.000
REMARK  Name = 11865832
REMARK  10 active torsions:
REMARK  status: ('A' for Active; 'I' for Inactive)
REMARK    1  A    between atoms: N_9  and  C_13
REMARK    2  A    between atoms: N_10  and  C_19
REMARK    3  A    between atoms: N_11  and  C_26
REMARK    4  A    between atoms: C_14  and  C_17
REMARK    5  A    between atoms: C_18  and  C_21
REMARK    6  A    between atoms: C_19  and  C_22
REMARK    7  A    between atoms: C_19  and  C_23
REMARK    8  A    between atoms: C_22  and  C_25
REMARK    9  A    between atoms: C_24  and  C_27
REMARK   10  A    between atoms: C_24  and  C_28
REMARK                            x       y       z     vdW  Elec       q    Type
REMARK                         _______ _______ _______ _____ _____    ______ ____
ROOT
ATOM      5  O   UNL     1      -0.313   2.801  26.789  0.00  0.00    -0.271 OA
ATOM      8  N   UNL     1      -1.054   1.789  24.844  0.00  0.00    -0.285 N 
ATOM     13  C   UNL     1      -1.229   0.310  22.993  0.00  0.00    +0.105 C 
ATOM     14  C   UNL     1      -1.404   1.770  23.420  0.00  0.00    +0.182 C 
ATOM     15  C   UNL     1      -1.490  -0.471  24.282  0.00  0.00    +0.043 C 
ATOM     16  C   UNL     1      -0.927   0.434  25.368  0.00  0.00    +0.111 C 
ATOM     18  C   UNL     1      -0.724   2.879  25.631  0.00  0.00    +0.240 C 
ENDROOT
BRANCH  13   9
ATOM      6  O   UNL     1       1.191   0.314  24.525  0.00  0.00    -0.252 OA
ATOM      9  N   UNL     1       0.105   0.065  22.499  0.00  0.00    -0.294 N 
ATOM     11  N   UNL     1       2.385  -0.185  22.567  0.00  0.00    -0.267 N 
ATOM     20  C   UNL     1       1.240   0.086  23.319  0.00  0.00    +0.304 C 
ATOM     37  H   UNL     1       0.221  -0.196  21.525  0.00  0.00    +0.151 HD
ATOM     39  H   UNL     1       2.254  -0.351  21.573  0.00  0.00    +0.156 HD
BRANCH  11  26
ATOM      2  F   UNL     1       4.088   2.018  22.438  0.00  0.00    -0.203 F 
ATOM      3  F   UNL     1       7.627  -0.471  24.350  0.00  0.00    -0.205 F 
ATOM     26  C   UNL     1       3.724  -0.256  23.020  0.00  0.00    +0.070 A 
ATOM     30  C   UNL     1       4.550   0.865  22.942  0.00  0.00    +0.147 A 
ATOM     31  C   UNL     1       4.217  -1.450  23.546  0.00  0.00    +0.029 A 
ATOM     34  C   UNL     1       5.869   0.793  23.391  0.00  0.00    +0.078 A 
ATOM     35  C   UNL     1       5.535  -1.523  23.995  0.00  0.00    +0.040 A 
ATOM     36  C   UNL     1       6.361  -0.402  23.918  0.00  0.00    +0.126 A 
ENDBRANCH  11  26
ENDBRANCH  13   9
BRANCH  14  17
ATOM      4  O   UNL     1      -3.208   3.047  22.517  0.00  0.00    -0.274 OA
ATOM     10  N   UNL     1      -3.654   1.494  24.193  0.00  0.00    -0.302 N 
ATOM     17  C   UNL     1      -2.842   2.181  23.307  0.00  0.00    +0.236 C 
ATOM     38  H   UNL     1      -3.239   0.786  24.792  0.00  0.00    +0.150 HD
BRANCH  10  19
ATOM     19  C   UNL     1      -5.077   1.721  24.298  0.00  0.00    +0.163 C 
BRANCH  19  23
ATOM      7  O   UNL     1      -5.000   3.997  25.148  0.00  0.00    -0.274 OA
ATOM     12  N   UNL     1      -5.857   2.349  26.499  0.00  0.00    -0.328 N 
ATOM     23  C   UNL     1      -5.279   2.815  25.337  0.00  0.00    +0.231 C 
ATOM     40  H   UNL     1      -6.058   2.979  27.268  0.00  0.00    +0.145 HD
ATOM     41  H   UNL     1      -6.091   1.372  26.640  0.00  0.00    +0.145 HD
ENDBRANCH  19  23
BRANCH  19  22
ATOM     22  C   UNL     1      -5.840   0.454  24.703  0.00  0.00    +0.074 C 
BRANCH  22  25
ATOM      1  S   UNL     1      -3.989  -1.116  26.068  0.00  0.00    -0.102 S 
ATOM     25  C   UNL     1      -4.958  -0.772  24.700  0.00  0.00    -0.008 A 
ATOM     29  C   UNL     1      -4.802  -1.714  23.706  0.00  0.00    +0.011 A 
ATOM     32  C   UNL     1      -3.874  -2.731  24.074  0.00  0.00    +0.008 A 
ATOM     33  C   UNL     1      -3.357  -2.528  25.334  0.00  0.00    +0.045 A 
ENDBRANCH  22  25
ENDBRANCH  19  22
ENDBRANCH  10  19
ENDBRANCH  14  17
BRANCH  18  21
ATOM     21  C   UNL     1      -0.882   4.218  25.029  0.00  0.00    +0.066 C 
ATOM     24  C   UNL     1      -1.841   5.099  25.361  0.00  0.00    -0.071 C 
ATOM     27  C   UNL     1      -2.034   6.470  24.772  0.00  0.00    +0.039 C 
ATOM     28  C   UNL     1      -2.852   4.741  26.420  0.00  0.00    +0.039 C 
ENDBRANCH  18  21
TORSDOF 8
ENDMDL
MODEL 2
REMARK VINA RESULT:       0.4      1.883      4.617
REMARK  Name = 11865832
REMARK  10 active torsions:
REMARK  status: ('A' for Active; 'I' for Inactive)
REMARK    1  A    between atoms: N_9  and  C_13
REMARK    2  A    between atoms: N_10  and  C_19
REMARK    3  A    between atoms: N_11  and  C_26
REMARK    4  A    between atoms: C_14  and  C_17
REMARK    5  A    between atoms: C_18  and  C_21
REMARK    6  A    between atoms: C_19  and  C_22
REMARK    7  A    between atoms: C_19  and  C_23
REMARK    8  A    between atoms: C_22  and  C_25
REMARK    9  A    between atoms: C_24  and  C_27
REMARK   10  A    between atoms: C_24  and  C_28
REMARK                            x       y       z     vdW  Elec       q    Type
REMARK                         _______ _______ _______ _____ _____    ______ ____
ROOT
ATOM      5  O   UNL     1      -4.742  -2.141  22.499  0.00  0.00    -0.271 OA
ATOM      8  N   UNL     1      -3.472  -0.399  23.340  0.00  0.00    -0.285 N 
ATOM     13  C   UNL     1      -1.853   1.330  23.528  0.00  0.00    +0.105 C 
ATOM     14  C   UNL     1      -2.560   0.218  24.308  0.00  0.00    +0.182 C 
ATOM     15  C   UNL     1      -2.874   1.717  22.457  0.00  0.00    +0.043 C 
ATOM     16  C   UNL     1      -3.558   0.399  22.123  0.00  0.00    +0.111 C 
ATOM     18  C   UNL     1      -4.093  -1.634  23.414  0.00  0.00    +0.240 C 
ENDROOT
BRANCH  13   9
ATOM      6  O   UNL     1       0.690   1.053  24.817  0.00  0.00    -0.252 OA
ATOM      9  N   UNL     1      -0.629   0.852  22.929  0.00  0.00    -0.294 N 
ATOM     11  N   UNL     1       1.583   0.257  22.797  0.00  0.00    -0.267 N 
ATOM     20  C   UNL     1       0.576   0.747  23.633  0.00  0.00    +0.304 C 
ATOM     37  H   UNL     1      -0.657   0.517  21.971  0.00  0.00    +0.151 HD
ATOM     39  H   UNL     1       1.324   0.053  21.836  0.00  0.00    +0.156 HD
BRANCH  11  26
ATOM      2  F   UNL     1       3.534   2.232  22.541  0.00  0.00    -0.203 F 
ATOM      3  F   UNL     1       6.884  -0.727  24.088  0.00  0.00    -0.205 F 
ATOM     26  C   UNL     1       2.937   0.008  23.125  0.00  0.00    +0.070 A 
ATOM     30  C   UNL     1       3.889   1.019  22.986  0.00  0.00    +0.147 A 
ATOM     31  C   UNL     1       3.319  -1.251  23.588  0.00  0.00    +0.029 A 
ATOM     34  C   UNL     1       5.223   0.770  23.311  0.00  0.00    +0.078 A 
ATOM     35  C   UNL     1       4.653  -1.499  23.913  0.00  0.00    +0.040 A 
ATOM     36  C   UNL     1       5.604  -0.489  23.774  0.00  0.00    +0.126 A 
ENDBRANCH  11  26
ENDBRANCH  13   9
BRANCH  14  17
ATOM      4  O   UNL     1      -3.886   0.102  26.291  0.00  0.00    -0.274 OA
ATOM     10  N   UNL     1      -3.561   2.169  25.271  0.00  0.00    -0.302 N 
ATOM     17  C   UNL     1      -3.400   0.801  25.406  0.00  0.00    +0.236 C 
ATOM     38  H   UNL     1      -3.097   2.646  24.503  0.00  0.00    +0.150 HD
BRANCH  10  19
ATOM     19  C   UNL     1      -4.346   2.966  26.187  0.00  0.00    +0.163 C 
BRANCH  19  23
ATOM      7  O   UNL     1      -6.320   2.235  24.973  0.00  0.00    -0.274 OA
ATOM     12  N   UNL     1      -6.261   4.384  25.781  0.00  0.00    -0.328 N 
ATOM     23  C   UNL     1      -5.724   3.132  25.565  0.00  0.00    +0.231 C 
ATOM     40  H   UNL     1      -7.182   4.622  25.430  0.00  0.00    +0.145 HD
ATOM     41  H   UNL     1      -5.763   5.114  26.281  0.00  0.00    +0.145 HD
ENDBRANCH  19  23
BRANCH  19  22
ATOM     22  C   UNL     1      -3.712   4.336  26.456  0.00  0.00    +0.074 C 
BRANCH  22  25
ATOM      1  S   UNL     1      -1.111   3.373  26.203  0.00  0.00    -0.102 S 
ATOM     25  C   UNL     1      -2.356   4.479  25.805  0.00  0.00    -0.008 A 
ATOM     29  C   UNL     1      -1.940   5.418  24.887  0.00  0.00    +0.011 A 
ATOM     32  C   UNL     1      -0.581   5.227  24.505  0.00  0.00    +0.008 A 
ATOM     33  C   UNL     1      -0.010   4.149  25.145  0.00  0.00    +0.045 A 
ENDBRANCH  22  25
ENDBRANCH  19  22
ENDBRANCH  10  19
ENDBRANCH  14  17
BRANCH  18  21
ATOM     21  C   UNL     1      -3.962  -2.379  24.682  0.00  0.00    +0.066 C 
ATOM     24  C   UNL     1      -2.822  -2.930  25.132  0.00  0.00    -0.071 C 
ATOM     27  C   UNL     1      -2.648  -3.695  26.416  0.00  0.00    +0.039 C 
ATOM     28  C   UNL     1      -1.558  -2.804  24.320  0.00  0.00    +0.039 C 
ENDBRANCH  18  21
TORSDOF 8
ENDMDL
MODEL 3
REMARK VINA RESULT:       3.7      1.916      2.843
REMARK  Name = 11865832
REMARK  10 active torsions:
REMARK  status: ('A' for Active; 'I' for Inactive)
REMARK    1  A    between atoms: N_9  and  C_13
REMARK    2  A    between atoms: N_10  and  C_19
REMARK    3  A    between atoms: N_11  and  C_26
REMARK    4  A    between atoms: C_14  and  C_17
REMARK    5  A    between atoms: C_18  and  C_21
REMARK    6  A    between atoms: C_19  and  C_22
REMARK    7  A    between atoms: C_19  and  C_23
REMARK    8  A    between atoms: C_22  and  C_25
REMARK    9  A    between atoms: C_24  and  C_27
REMARK   10  A    between atoms: C_24  and  C_28
REMARK                            x       y       z     vdW  Elec       q    Type
REMARK                         _______ _______ _______ _____ _____    ______ ____
ROOT
ATOM      5  O   UNL     1      -0.472   2.126  27.312  0.00  0.00    -0.271 OA
ATOM      8  N   UNL     1      -1.143   0.683  25.632  0.00  0.00    -0.285 N 
ATOM     13  C   UNL     1      -1.300  -1.219  24.218  0.00  0.00    +0.105 C 
ATOM     14  C   UNL     1      -1.381   0.310  24.234  0.00  0.00    +0.182 C 
ATOM     15  C   UNL     1      -1.726  -1.613  25.633  0.00  0.00    +0.043 C 
ATOM     16  C   UNL     1      -1.174  -0.489  26.498  0.00  0.00    +0.111 C 
ATOM     18  C   UNL     1      -0.783   1.920  26.138  0.00  0.00    +0.240 C 
ENDROOT
BRANCH  13   9
ATOM      6  O   UNL     1       1.060   0.400  24.103  0.00  0.00    -0.252 OA
ATOM      9  N   UNL     1       0.043  -1.669  23.937  0.00  0.00    -0.294 N 
ATOM     11  N   UNL     1       2.309  -1.524  23.605  0.00  0.00    -0.267 N 
ATOM     20  C   UNL     1       1.146  -0.808  23.899  0.00  0.00    +0.304 C 
ATOM     37  H   UNL     1       0.207  -2.665  23.823  0.00  0.00    +0.151 HD
ATOM     39  H   UNL     1       2.209  -2.525  23.462  0.00  0.00    +0.156 HD
BRANCH  11  26
ATOM      2  F   UNL     1       2.888   0.664  21.978  0.00  0.00    -0.203 F 
ATOM      3  F   UNL     1       7.473   0.433  23.118  0.00  0.00    -0.205 F 
ATOM     26  C   UNL     1       3.626  -1.024  23.478  0.00  0.00    +0.070 A 
ATOM     30  C   UNL     1       3.883   0.074  22.656  0.00  0.00    +0.147 A 
ATOM     31  C   UNL     1       4.670  -1.629  24.177  0.00  0.00    +0.029 A 
ATOM     34  C   UNL     1       5.183   0.566  22.533  0.00  0.00    +0.078 A 
ATOM     35  C   UNL     1       5.970  -1.138  24.055  0.00  0.00    +0.040 A 
ATOM     36  C   UNL     1       6.225  -0.040  23.233  0.00  0.00    +0.126 A 
ENDBRANCH  11  26
ENDBRANCH  13   9
BRANCH  14  17
ATOM      4  O   UNL     1      -3.762   0.126  24.207  0.00  0.00    -0.274 OA
ATOM     10  N   UNL     1      -2.758   1.938  23.144  0.00  0.00    -0.302 N 
ATOM     17  C   UNL     1      -2.765   0.765  23.878  0.00  0.00    +0.236 C 
ATOM     38  H   UNL     1      -1.869   2.388  22.944  0.00  0.00    +0.150 HD
BRANCH  10  19
ATOM     19  C   UNL     1      -3.962   2.574  22.659  0.00  0.00    +0.163 C 
BRANCH  19  23
ATOM      7  O   UNL     1      -4.275   4.093  20.788  0.00  0.00    -0.274 OA
ATOM     12  N   UNL     1      -2.494   2.644  20.740  0.00  0.00    -0.328 N 
ATOM     23  C   UNL     1      -3.630   3.184  21.305  0.00  0.00    +0.231 C 
ATOM     40  H   UNL     1      -2.154   2.973  19.843  0.00  0.00    +0.145 HD
ATOM     41  H   UNL     1      -1.963   1.900  21.181  0.00  0.00    +0.145 HD
ENDBRANCH  19  23
BRANCH  19  22
ATOM     22  C   UNL     1      -4.478   3.652  23.619  0.00  0.00    +0.074 C 
BRANCH  22  25
ATOM      1  S   UNL     1      -6.327   1.814  24.600  0.00  0.00    -0.102 S 
ATOM     25  C   UNL     1      -5.176   3.062  24.822  0.00  0.00    -0.008 A 
ATOM     29  C   UNL     1      -5.022   3.394  26.151  0.00  0.00    +0.011 A 
ATOM     32  C   UNL     1      -5.860   2.612  26.997  0.00  0.00    +0.008 A 
ATOM     33  C   UNL     1      -6.622   1.713  26.284  0.00  0.00    +0.045 A 
ENDBRANCH  22  25
ENDBRANCH  19  22
ENDBRANCH  10  19
ENDBRANCH  14  17
BRANCH  18  21
ATOM     21  C   UNL     1      -0.778   3.059  25.199  0.00  0.00    +0.066 C 
ATOM     24  C   UNL     1      -1.479   4.193  25.365  0.00  0.00    -0.071 C 
ATOM     27  C   UNL     1      -1.500   5.373  24.433  0.00  0.00    +0.039 C 
ATOM     28  C   UNL     1      -2.349   4.363  26.585  0.00  0.00    +0.039 C 
ENDBRANCH  18  21
TORSDOF 8
ENDMDL
