MODEL 1
REMARK VINA RESULT:      -5.9      0.000      0.000
REMARK  Name = 75536720
REMARK  9 active torsions:
REMARK  status: ('A' for Active; 'I' for Inactive)
REMARK    1  A    between atoms: O_2  and  C_8
REMARK    2  A    between atoms: N_4  and  C_7
REMARK    3  A    between atoms: N_4  and  C_12
REMARK    4  A    between atoms: N_4  and  C_13
REMARK    5  A    between atoms: N_5  and  C_11
REMARK    6  A    between atoms: N_6  and  C_15
REMARK    7  A    between atoms: C_9  and  C_11
REMARK    8  A    between atoms: C_15  and  C_16
REMARK    9  A    between atoms: C_15  and  C_17
REMARK                            x       y       z     vdW  Elec       q    Type
REMARK                         _______ _______ _______ _____ _____    ______ ____
ROOT
ATOM      1  O   UNL     1      -4.315   3.886  25.887  0.00  0.00    -0.371 OA
ATOM      7  C   UNL     1      -2.124   3.852  24.970  0.00  0.00    +0.113 C 
ATOM      8  C   UNL     1      -2.911   2.679  24.416  0.00  0.00    +0.164 C 
ATOM      9  C   UNL     1      -4.341   3.145  24.656  0.00  0.00    +0.165 C 
ATOM     10  C   UNL     1      -2.949   4.216  26.194  0.00  0.00    +0.181 C 
ENDROOT
BRANCH   7   4
ATOM      4  N   UNL     1      -0.745   3.529  25.294  0.00  0.00    -0.301 NA
ATOM     12  C   UNL     1      -0.665   2.265  26.032  0.00  0.00    +0.105 C 
ATOM     13  C   UNL     1       0.072   3.454  24.079  0.00  0.00    +0.105 C 
ENDBRANCH   7   4
BRANCH   8   2
ATOM      2  O   UNL     1      -2.654   2.449  23.045  0.00  0.00    -0.388 OA
ATOM     18  H   UNL     1      -2.390   3.292  22.638  0.00  0.00    +0.210 HD
ENDBRANCH   8   2
BRANCH   9  11
ATOM     11  C   UNL     1      -5.334   2.001  24.767  0.00  0.00    +0.140 C 
BRANCH  11   5
ATOM      3  O   UNL     1      -4.042  -0.268  23.539  0.00  0.00    -0.253 OA
ATOM      5  N   UNL     1      -4.755   0.871  25.433  0.00  0.00    -0.297 N 
ATOM      6  N   UNL     1      -3.668  -1.153  25.651  0.00  0.00    -0.297 N 
ATOM     14  C   UNL     1      -4.145  -0.192  24.763  0.00  0.00    +0.300 C 
ATOM     19  H   UNL     1      -4.805   0.836  26.447  0.00  0.00    +0.150 HD
ATOM     20  H   UNL     1      -3.734  -0.964  26.647  0.00  0.00    +0.150 HD
BRANCH   6  15
ATOM     15  C   UNL     1      -2.995  -2.355  25.218  0.00  0.00    +0.068 C 
ATOM     16  C   UNL     1      -3.800  -3.056  24.130  0.00  0.00    +0.027 C 
ATOM     17  C   UNL     1      -1.587  -2.029  24.738  0.00  0.00    +0.027 C 
ENDBRANCH   6  15
ENDBRANCH  11   5
ENDBRANCH   9  11
TORSDOF 5
ENDMDL
MODEL 2
REMARK VINA RESULT:      -4.9      1.616      3.423
REMARK  Name = 75536720
REMARK  9 active torsions:
REMARK  status: ('A' for Active; 'I' for Inactive)
REMARK    1  A    between atoms: O_2  and  C_8
REMARK    2  A    between atoms: N_4  and  C_7
REMARK    3  A    between atoms: N_4  and  C_12
REMARK    4  A    between atoms: N_4  and  C_13
REMARK    5  A    between atoms: N_5  and  C_11
REMARK    6  A    between atoms: N_6  and  C_15
REMARK    7  A    between atoms: C_9  and  C_11
REMARK    8  A    between atoms: C_15  and  C_16
REMARK    9  A    between atoms: C_15  and  C_17
REMARK                            x       y       z     vdW  Elec       q    Type
REMARK                         _______ _______ _______ _____ _____    ______ ____
ROOT
ATOM      1  O   UNL     1      -1.554   2.755  23.267  0.00  0.00    -0.371 OA
ATOM      7  C   UNL     1      -3.603   3.367  24.300  0.00  0.00    +0.113 C 
ATOM      8  C   UNL     1      -2.590   3.021  25.376  0.00  0.00    +0.164 C 
ATOM      9  C   UNL     1      -1.283   3.183  24.612  0.00  0.00    +0.165 C 
ATOM     10  C   UNL     1      -2.978   2.713  23.078  0.00  0.00    +0.181 C 
ENDROOT
BRANCH   7   4
ATOM      4  N   UNL     1      -4.943   2.879  24.581  0.00  0.00    -0.301 NA
ATOM     12  C   UNL     1      -4.907   1.482  25.023  0.00  0.00    +0.105 C 
ATOM     13  C   UNL     1      -5.599   3.711  25.593  0.00  0.00    +0.105 C 
ENDBRANCH   7   4
BRANCH   8   2
ATOM      2  O   UNL     1      -2.661   3.887  26.491  0.00  0.00    -0.388 OA
ATOM     18  H   UNL     1      -1.755   4.099  26.771  0.00  0.00    +0.210 HD
ENDBRANCH   8   2
BRANCH   9  11
ATOM     11  C   UNL     1      -0.143   2.365  25.192  0.00  0.00    +0.140 C 
BRANCH  11   5
ATOM      3  O   UNL     1      -1.123  -0.000  23.860  0.00  0.00    -0.253 OA
ATOM      5  N   UNL     1      -0.626   1.163  25.808  0.00  0.00    -0.297 N 
ATOM      6  N   UNL     1      -1.495  -0.972  25.934  0.00  0.00    -0.297 N 
ATOM     14  C   UNL     1      -1.085   0.056  25.088  0.00  0.00    +0.300 C 
ATOM     19  H   UNL     1      -0.648   1.120  26.822  0.00  0.00    +0.150 HD
ATOM     20  H   UNL     1      -1.354  -0.859  26.933  0.00  0.00    +0.150 HD
BRANCH   6  15
ATOM     15  C   UNL     1      -2.013  -2.228  25.445  0.00  0.00    +0.068 C 
ATOM     16  C   UNL     1      -3.498  -2.106  25.127  0.00  0.00    +0.027 C 
ATOM     17  C   UNL     1      -1.224  -2.687  24.226  0.00  0.00    +0.027 C 
ENDBRANCH   6  15
ENDBRANCH  11   5
ENDBRANCH   9  11
TORSDOF 5
ENDMDL
MODEL 3
REMARK VINA RESULT:      -4.7      3.516      5.461
REMARK  Name = 75536720
REMARK  9 active torsions:
REMARK  status: ('A' for Active; 'I' for Inactive)
REMARK    1  A    between atoms: O_2  and  C_8
REMARK    2  A    between atoms: N_4  and  C_7
REMARK    3  A    between atoms: N_4  and  C_12
REMARK    4  A    between atoms: N_4  and  C_13
REMARK    5  A    between atoms: N_5  and  C_11
REMARK    6  A    between atoms: N_6  and  C_15
REMARK    7  A    between atoms: C_9  and  C_11
REMARK    8  A    between atoms: C_15  and  C_16
REMARK    9  A    between atoms: C_15  and  C_17
REMARK                            x       y       z     vdW  Elec       q    Type
REMARK                         _______ _______ _______ _____ _____    ______ ____
ROOT
ATOM      1  O   UNL     1      -1.024   1.154  25.063  0.00  0.00    -0.371 OA
ATOM      7  C   UNL     1      -3.373   1.489  24.949  0.00  0.00    +0.113 C 
ATOM      8  C   UNL     1      -2.996   0.318  24.060  0.00  0.00    +0.164 C 
ATOM      9  C   UNL     1      -1.646  -0.073  24.646  0.00  0.00    +0.165 C 
ATOM     10  C   UNL     1      -2.030   2.180  25.121  0.00  0.00    +0.181 C 
ENDROOT
BRANCH   7   4
ATOM      4  N   UNL     1      -4.386   2.357  24.374  0.00  0.00    -0.301 NA
ATOM     12  C   UNL     1      -5.648   2.247  25.113  0.00  0.00    +0.105 C 
ATOM     13  C   UNL     1      -3.932   3.750  24.359  0.00  0.00    +0.105 C 
ENDBRANCH   7   4
BRANCH   8   2
ATOM      2  O   UNL     1      -3.929  -0.742  24.130  0.00  0.00    -0.388 OA
ATOM     18  H   UNL     1      -4.814  -0.383  23.946  0.00  0.00    +0.210 HD
ENDBRANCH   8   2
BRANCH   9  11
ATOM     11  C   UNL     1      -0.748  -0.793  23.655  0.00  0.00    +0.140 C 
BRANCH  11   5
ATOM      3  O   UNL     1       1.375  -0.255  21.776  0.00  0.00    -0.253 OA
ATOM      5  N   UNL     1       0.637  -0.577  23.955  0.00  0.00    -0.297 N 
ATOM      6  N   UNL     1       2.869  -0.150  23.549  0.00  0.00    -0.297 N 
ATOM     14  C   UNL     1       1.608  -0.321  22.982  0.00  0.00    +0.300 C 
ATOM     19  H   UNL     1       0.931  -0.627  24.926  0.00  0.00    +0.150 HD
ATOM     20  H   UNL     1       2.946  -0.148  24.562  0.00  0.00    +0.150 HD
BRANCH   6  15
ATOM     15  C   UNL     1       4.048   0.126  22.763  0.00  0.00    +0.068 C 
ATOM     16  C   UNL     1       4.079   1.590  22.340  0.00  0.00    +0.027 C 
ATOM     17  C   UNL     1       5.302  -0.249  23.541  0.00  0.00    +0.027 C 
ENDBRANCH   6  15
ENDBRANCH  11   5
ENDBRANCH   9  11
TORSDOF 5
ENDMDL
MODEL 4
REMARK VINA RESULT:      -4.6      3.183      5.161
REMARK  Name = 75536720
REMARK  9 active torsions:
REMARK  status: ('A' for Active; 'I' for Inactive)
REMARK    1  A    between atoms: O_2  and  C_8
REMARK    2  A    between atoms: N_4  and  C_7
REMARK    3  A    between atoms: N_4  and  C_12
REMARK    4  A    between atoms: N_4  and  C_13
REMARK    5  A    between atoms: N_5  and  C_11
REMARK    6  A    between atoms: N_6  and  C_15
REMARK    7  A    between atoms: C_9  and  C_11
REMARK    8  A    between atoms: C_15  and  C_16
REMARK    9  A    between atoms: C_15  and  C_17
REMARK                            x       y       z     vdW  Elec       q    Type
REMARK                         _______ _______ _______ _____ _____    ______ ____
ROOT
ATOM      1  O   UNL     1      -3.291  -0.246  24.507  0.00  0.00    -0.371 OA
ATOM      7  C   UNL     1      -3.792   2.056  24.208  0.00  0.00    +0.113 C 
ATOM      8  C   UNL     1      -2.343   1.917  24.638  0.00  0.00    +0.164 C 
ATOM      9  C   UNL     1      -2.065   0.466  24.267  0.00  0.00    +0.165 C 
ATOM     10  C   UNL     1      -4.360   0.708  24.623  0.00  0.00    +0.181 C 
ENDROOT
BRANCH   7   4
ATOM      4  N   UNL     1      -4.480   3.176  24.828  0.00  0.00    -0.301 NA
ATOM     12  C   UNL     1      -5.731   2.737  25.453  0.00  0.00    +0.105 C 
ATOM     13  C   UNL     1      -3.623   3.828  25.822  0.00  0.00    +0.105 C 
ENDBRANCH   7   4
BRANCH   8   2
ATOM      2  O   UNL     1      -1.484   2.809  23.956  0.00  0.00    -0.388 OA
ATOM     18  H   UNL     1      -1.766   2.855  23.027  0.00  0.00    +0.210 HD
ENDBRANCH   8   2
BRANCH   9  11
ATOM     11  C   UNL     1      -0.943  -0.156  25.079  0.00  0.00    +0.140 C 
BRANCH  11   5
ATOM      3  O   UNL     1       1.133   1.677  24.269  0.00  0.00    -0.253 OA
ATOM      5  N   UNL     1       0.196  -0.448  24.256  0.00  0.00    -0.297 N 
ATOM      6  N   UNL     1       2.155  -0.049  23.103  0.00  0.00    -0.297 N 
ATOM     14  C   UNL     1       1.161   0.502  23.908  0.00  0.00    +0.300 C 
ATOM     19  H   UNL     1       0.297  -1.392  23.896  0.00  0.00    +0.150 HD
ATOM     20  H   UNL     1       2.130  -1.049  22.922  0.00  0.00    +0.150 HD
BRANCH   6  15
ATOM     15  C   UNL     1       3.271   0.718  22.603  0.00  0.00    +0.068 C 
ATOM     16  C   UNL     1       4.507   0.487  23.463  0.00  0.00    +0.027 C 
ATOM     17  C   UNL     1       3.541   0.371  21.145  0.00  0.00    +0.027 C 
ENDBRANCH   6  15
ENDBRANCH  11   5
ENDBRANCH   9  11
TORSDOF 5
ENDMDL
MODEL 5
REMARK VINA RESULT:      -4.6      2.115      5.000
REMARK  Name = 75536720
REMARK  9 active torsions:
REMARK  status: ('A' for Active; 'I' for Inactive)
REMARK    1  A    between atoms: O_2  and  C_8
REMARK    2  A    between atoms: N_4  and  C_7
REMARK    3  A    between atoms: N_4  and  C_12
REMARK    4  A    between atoms: N_4  and  C_13
REMARK    5  A    between atoms: N_5  and  C_11
REMARK    6  A    between atoms: N_6  and  C_15
REMARK    7  A    between atoms: C_9  and  C_11
REMARK    8  A    between atoms: C_15  and  C_16
REMARK    9  A    between atoms: C_15  and  C_17
REMARK                            x       y       z     vdW  Elec       q    Type
REMARK                         _______ _______ _______ _____ _____    ______ ____
ROOT
ATOM      1  O   UNL     1      -0.575   1.385  26.021  0.00  0.00    -0.371 OA
ATOM      7  C   UNL     1      -0.621  -0.558  24.654  0.00  0.00    +0.113 C 
ATOM      8  C   UNL     1      -0.562   0.672  23.766  0.00  0.00    +0.164 C 
ATOM      9  C   UNL     1      -0.016   1.710  24.737  0.00  0.00    +0.165 C 
ATOM     10  C   UNL     1      -1.091   0.044  25.969  0.00  0.00    +0.181 C 
ENDROOT
BRANCH   7   4
ATOM      4  N   UNL     1      -1.508  -1.596  24.156  0.00  0.00    -0.301 NA
ATOM     12  C   UNL     1      -1.340  -2.835  24.921  0.00  0.00    +0.105 C 
ATOM     13  C   UNL     1      -2.905  -1.157  24.210  0.00  0.00    +0.105 C 
ENDBRANCH   7   4
BRANCH   8   2
ATOM      2  O   UNL     1       0.286   0.497  22.648  0.00  0.00    -0.388 OA
ATOM     18  H   UNL     1       1.200   0.676  22.928  0.00  0.00    +0.210 HD
ENDBRANCH   8   2
BRANCH   9  11
ATOM     11  C   UNL     1      -0.386   3.135  24.363  0.00  0.00    +0.140 C 
BRANCH  11   5
ATOM      3  O   UNL     1      -3.101   2.546  23.580  0.00  0.00    -0.253 OA
ATOM      5  N   UNL     1      -1.587   3.553  25.026  0.00  0.00    -0.297 N 
ATOM      6  N   UNL     1      -3.853   3.758  25.410  0.00  0.00    -0.297 N 
ATOM     14  C   UNL     1      -2.870   3.224  24.581  0.00  0.00    +0.300 C 
ATOM     19  H   UNL     1      -1.498   4.131  25.856  0.00  0.00    +0.150 HD
ATOM     20  H   UNL     1      -3.561   4.240  26.255  0.00  0.00    +0.150 HD
BRANCH   6  15
ATOM     15  C   UNL     1      -5.265   3.567  25.174  0.00  0.00    +0.068 C 
ATOM     16  C   UNL     1      -5.756   2.302  25.866  0.00  0.00    +0.027 C 
ATOM     17  C   UNL     1      -6.049   4.788  25.636  0.00  0.00    +0.027 C 
ENDBRANCH   6  15
ENDBRANCH  11   5
ENDBRANCH   9  11
TORSDOF 5
ENDMDL
MODEL 6
REMARK VINA RESULT:      -4.5     14.937     16.792
REMARK  Name = 75536720
REMARK  9 active torsions:
REMARK  status: ('A' for Active; 'I' for Inactive)
REMARK    1  A    between atoms: O_2  and  C_8
REMARK    2  A    between atoms: N_4  and  C_7
REMARK    3  A    between atoms: N_4  and  C_12
REMARK    4  A    between atoms: N_4  and  C_13
REMARK    5  A    between atoms: N_5  and  C_11
REMARK    6  A    between atoms: N_6  and  C_15
REMARK    7  A    between atoms: C_9  and  C_11
REMARK    8  A    between atoms: C_15  and  C_16
REMARK    9  A    between atoms: C_15  and  C_17
REMARK                            x       y       z     vdW  Elec       q    Type
REMARK                         _______ _______ _______ _____ _____    ______ ____
ROOT
ATOM      1  O   UNL     1      -3.873 -10.591  13.452  0.00  0.00    -0.371 OA
ATOM      7  C   UNL     1      -4.765  -9.625  11.474  0.00  0.00    +0.113 C 
ATOM      8  C   UNL     1      -5.878  -9.783  12.494  0.00  0.00    +0.164 C 
ATOM      9  C   UNL     1      -5.080  -9.886  13.786  0.00  0.00    +0.165 C 
ATOM     10  C   UNL     1      -3.717 -10.580  12.023  0.00  0.00    +0.181 C 
ENDROOT
BRANCH   7   4
ATOM      4  N   UNL     1      -5.168  -9.946  10.115  0.00  0.00    -0.301 NA
ATOM     12  C   UNL     1      -5.397  -8.724   9.337  0.00  0.00    +0.105 C 
ATOM     13  C   UNL     1      -4.160 -10.780   9.456  0.00  0.00    +0.105 C 
ENDBRANCH   7   4
BRANCH   8   2
ATOM      2  O   UNL     1      -6.765  -8.682  12.508  0.00  0.00    -0.388 OA
ATOM     18  H   UNL     1      -7.593  -8.952  12.075  0.00  0.00    +0.210 HD
ENDBRANCH   8   2
BRANCH   9  11
ATOM     11  C   UNL     1      -5.817 -10.625  14.890  0.00  0.00    +0.140 C 
BRANCH  11   5
ATOM      3  O   UNL     1      -8.663 -10.286  14.548  0.00  0.00    -0.253 OA
ATOM      5  N   UNL     1      -6.677  -9.742  15.623  0.00  0.00    -0.297 N 
ATOM      6  N   UNL     1      -8.643  -8.706  16.247  0.00  0.00    -0.297 N 
ATOM     14  C   UNL     1      -8.052  -9.637  15.396  0.00  0.00    +0.300 C 
ATOM     19  H   UNL     1      -6.260  -9.152  16.337  0.00  0.00    +0.150 HD
ATOM     20  H   UNL     1      -8.067  -8.276  16.966  0.00  0.00    +0.150 HD
BRANCH   6  15
ATOM     15  C   UNL     1     -10.054  -8.406  16.219  0.00  0.00    +0.068 C 
ATOM     16  C   UNL     1     -10.716  -8.819  17.528  0.00  0.00    +0.027 C 
ATOM     17  C   UNL     1     -10.275  -6.926  15.933  0.00  0.00    +0.027 C 
ENDBRANCH   6  15
ENDBRANCH  11   5
ENDBRANCH   9  11
TORSDOF 5
ENDMDL
MODEL 7
REMARK VINA RESULT:      -4.4      1.877      3.901
REMARK  Name = 75536720
REMARK  9 active torsions:
REMARK  status: ('A' for Active; 'I' for Inactive)
REMARK    1  A    between atoms: O_2  and  C_8
REMARK    2  A    between atoms: N_4  and  C_7
REMARK    3  A    between atoms: N_4  and  C_12
REMARK    4  A    between atoms: N_4  and  C_13
REMARK    5  A    between atoms: N_5  and  C_11
REMARK    6  A    between atoms: N_6  and  C_15
REMARK    7  A    between atoms: C_9  and  C_11
REMARK    8  A    between atoms: C_15  and  C_16
REMARK    9  A    between atoms: C_15  and  C_17
REMARK                            x       y       z     vdW  Elec       q    Type
REMARK                         _______ _______ _______ _____ _____    ______ ____
ROOT
ATOM      1  O   UNL     1      -3.028   4.112  23.664  0.00  0.00    -0.371 OA
ATOM      7  C   UNL     1      -4.578   3.239  25.238  0.00  0.00    +0.113 C 
ATOM      8  C   UNL     1      -3.215   3.353  25.896  0.00  0.00    +0.164 C 
ATOM      9  C   UNL     1      -2.535   4.371  24.989  0.00  0.00    +0.165 C 
ATOM     10  C   UNL     1      -4.206   3.294  23.765  0.00  0.00    +0.181 C 
ENDROOT
BRANCH   7   4
ATOM      4  N   UNL     1      -5.299   2.029  25.596  0.00  0.00    -0.301 NA
ATOM     12  C   UNL     1      -6.602   1.982  24.925  0.00  0.00    +0.105 C 
ATOM     13  C   UNL     1      -4.517   0.837  25.259  0.00  0.00    +0.105 C 
ENDBRANCH   7   4
BRANCH   8   2
ATOM      2  O   UNL     1      -3.291   3.806  27.233  0.00  0.00    -0.388 OA
ATOM     18  H   UNL     1      -4.132   4.279  27.348  0.00  0.00    +0.210 HD
ENDBRANCH   8   2
BRANCH   9  11
ATOM     11  C   UNL     1      -1.020   4.269  25.002  0.00  0.00    +0.140 C 
BRANCH  11   5
ATOM      3  O   UNL     1      -1.066   1.847  23.433  0.00  0.00    -0.253 OA
ATOM      5  N   UNL     1      -0.590   2.964  25.414  0.00  0.00    -0.297 N 
ATOM      6  N   UNL     1      -0.164   0.702  25.239  0.00  0.00    -0.297 N 
ATOM     14  C   UNL     1      -0.645   1.836  24.589  0.00  0.00    +0.300 C 
ATOM     19  H   UNL     1      -0.239   2.852  26.360  0.00  0.00    +0.150 HD
ATOM     20  H   UNL     1       0.232   0.810  26.168  0.00  0.00    +0.150 HD
BRANCH   6  15
ATOM     15  C   UNL     1      -0.112  -0.597  24.611  0.00  0.00    +0.068 C 
ATOM     16  C   UNL     1      -1.505  -1.210  24.534  0.00  0.00    +0.027 C 
ATOM     17  C   UNL     1       0.520  -0.492  23.230  0.00  0.00    +0.027 C 
ENDBRANCH   6  15
ENDBRANCH  11   5
ENDBRANCH   9  11
TORSDOF 5
ENDMDL
MODEL 8
REMARK VINA RESULT:      -4.1      2.052      3.482
REMARK  Name = 75536720
REMARK  9 active torsions:
REMARK  status: ('A' for Active; 'I' for Inactive)
REMARK    1  A    between atoms: O_2  and  C_8
REMARK    2  A    between atoms: N_4  and  C_7
REMARK    3  A    between atoms: N_4  and  C_12
REMARK    4  A    between atoms: N_4  and  C_13
REMARK    5  A    between atoms: N_5  and  C_11
REMARK    6  A    between atoms: N_6  and  C_15
REMARK    7  A    between atoms: C_9  and  C_11
REMARK    8  A    between atoms: C_15  and  C_16
REMARK    9  A    between atoms: C_15  and  C_17
REMARK                            x       y       z     vdW  Elec       q    Type
REMARK                         _______ _______ _______ _____ _____    ______ ____
ROOT
ATOM      1  O   UNL     1      -0.317   2.738  23.350  0.00  0.00    -0.371 OA
ATOM      7  C   UNL     1      -1.174   3.618  25.383  0.00  0.00    +0.113 C 
ATOM      8  C   UNL     1      -0.562   2.255  25.652  0.00  0.00    +0.164 C 
ATOM      9  C   UNL     1       0.359   2.105  24.448  0.00  0.00    +0.165 C 
ATOM     10  C   UNL     1      -1.366   3.568  23.876  0.00  0.00    +0.181 C 
ENDROOT
BRANCH   7   4
ATOM      4  N   UNL     1      -2.413   3.853  26.104  0.00  0.00    -0.301 NA
ATOM     12  C   UNL     1      -2.852   5.243  25.947  0.00  0.00    +0.105 C 
ATOM     13  C   UNL     1      -3.464   2.940  25.648  0.00  0.00    +0.105 C 
ENDBRANCH   7   4
BRANCH   8   2
ATOM      2  O   UNL     1       0.152   2.209  26.872  0.00  0.00    -0.388 OA
ATOM     18  H   UNL     1      -0.204   2.897  27.459  0.00  0.00    +0.210 HD
ENDBRANCH   8   2
BRANCH   9  11
ATOM     11  C   UNL     1       0.660   0.657  24.100  0.00  0.00    +0.140 C 
BRANCH  11   5
ATOM      3  O   UNL     1      -2.136   0.093  23.661  0.00  0.00    -0.253 OA
ATOM      5  N   UNL     1      -0.169  -0.242  24.850  0.00  0.00    -0.297 N 
ATOM      6  N   UNL     1      -2.084  -1.380  25.453  0.00  0.00    -0.297 N 
ATOM     14  C   UNL     1      -1.521  -0.460  24.571  0.00  0.00    +0.300 C 
ATOM     19  H   UNL     1       0.247  -0.735  25.634  0.00  0.00    +0.150 HD
ATOM     20  H   UNL     1      -1.476  -1.839  26.124  0.00  0.00    +0.150 HD
BRANCH   6  15
ATOM     15  C   UNL     1      -3.469  -1.783  25.384  0.00  0.00    +0.068 C 
ATOM     16  C   UNL     1      -4.368  -0.573  25.167  0.00  0.00    +0.027 C 
ATOM     17  C   UNL     1      -3.665  -2.819  24.285  0.00  0.00    +0.027 C 
ENDBRANCH   6  15
ENDBRANCH  11   5
ENDBRANCH   9  11
TORSDOF 5
ENDMDL
MODEL 9
REMARK VINA RESULT:      -3.6      1.915      2.344
REMARK  Name = 75536720
REMARK  9 active torsions:
REMARK  status: ('A' for Active; 'I' for Inactive)
REMARK    1  A    between atoms: O_2  and  C_8
REMARK    2  A    between atoms: N_4  and  C_7
REMARK    3  A    between atoms: N_4  and  C_12
REMARK    4  A    between atoms: N_4  and  C_13
REMARK    5  A    between atoms: N_5  and  C_11
REMARK    6  A    between atoms: N_6  and  C_15
REMARK    7  A    between atoms: C_9  and  C_11
REMARK    8  A    between atoms: C_15  and  C_16
REMARK    9  A    between atoms: C_15  and  C_17
REMARK                            x       y       z     vdW  Elec       q    Type
REMARK                         _______ _______ _______ _____ _____    ______ ____
ROOT
ATOM      1  O   UNL     1      -1.328   3.106  25.922  0.00  0.00    -0.371 OA
ATOM      7  C   UNL     1       0.136   2.122  24.331  0.00  0.00    +0.113 C 
ATOM      8  C   UNL     1      -1.297   1.938  23.866  0.00  0.00    +0.164 C 
ATOM      9  C   UNL     1      -2.005   3.031  24.656  0.00  0.00    +0.165 C 
ATOM     10  C   UNL     1      -0.065   2.430  25.807  0.00  0.00    +0.181 C 
ENDROOT
BRANCH   7   4
ATOM      4  N   UNL     1       0.977   0.959  24.104  0.00  0.00    -0.301 NA
ATOM     12  C   UNL     1       0.183  -0.172  23.616  0.00  0.00    +0.105 C 
ATOM     13  C   UNL     1       2.049   1.268  23.155  0.00  0.00    +0.105 C 
ENDBRANCH   7   4
BRANCH   8   2
ATOM      2  O   UNL     1      -1.444   2.117  22.471  0.00  0.00    -0.388 OA
ATOM     18  H   UNL     1      -2.027   2.880  22.321  0.00  0.00    +0.210 HD
ENDBRANCH   8   2
BRANCH   9  11
ATOM     11  C   UNL     1      -3.481   2.749  24.879  0.00  0.00    +0.140 C 
BRANCH  11   5
ATOM      3  O   UNL     1      -2.883   0.121  25.909  0.00  0.00    -0.253 OA
ATOM      5  N   UNL     1      -3.863   1.490  24.309  0.00  0.00    -0.297 N 
ATOM      6  N   UNL     1      -4.028  -0.804  24.115  0.00  0.00    -0.297 N 
ATOM     14  C   UNL     1      -3.532   0.254  24.872  0.00  0.00    +0.300 C 
ATOM     19  H   UNL     1      -4.390   1.498  23.441  0.00  0.00    +0.150 HD
ATOM     20  H   UNL     1      -4.617  -0.590  23.315  0.00  0.00    +0.150 HD
BRANCH   6  15
ATOM     15  C   UNL     1      -3.826  -2.187  24.476  0.00  0.00    +0.068 C 
ATOM     16  C   UNL     1      -4.575  -3.105  23.519  0.00  0.00    +0.027 C 
ATOM     17  C   UNL     1      -2.339  -2.515  24.505  0.00  0.00    +0.027 C 
ENDBRANCH   6  15
ENDBRANCH  11   5
ENDBRANCH   9  11
TORSDOF 5
ENDMDL
MODEL 10
REMARK VINA RESULT:      -3.6      4.314      6.519
REMARK  Name = 75536720
REMARK  9 active torsions:
REMARK  status: ('A' for Active; 'I' for Inactive)
REMARK    1  A    between atoms: O_2  and  C_8
REMARK    2  A    between atoms: N_4  and  C_7
REMARK    3  A    between atoms: N_4  and  C_12
REMARK    4  A    between atoms: N_4  and  C_13
REMARK    5  A    between atoms: N_5  and  C_11
REMARK    6  A    between atoms: N_6  and  C_15
REMARK    7  A    between atoms: C_9  and  C_11
REMARK    8  A    between atoms: C_15  and  C_16
REMARK    9  A    between atoms: C_15  and  C_17
REMARK                            x       y       z     vdW  Elec       q    Type
REMARK                         _______ _______ _______ _____ _____    ______ ____
ROOT
ATOM      1  O   UNL     1      -1.176   1.549  23.757  0.00  0.00    -0.371 OA
ATOM      7  C   UNL     1      -2.005   0.025  25.380  0.00  0.00    +0.113 C 
ATOM      8  C   UNL     1      -0.946  -0.670  24.543  0.00  0.00    +0.164 C 
ATOM      9  C   UNL     1      -0.191   0.525  23.975  0.00  0.00    +0.165 C 
ATOM     10  C   UNL     1      -2.364   1.205  24.490  0.00  0.00    +0.181 C 
ENDROOT
BRANCH   7   4
ATOM      4  N   UNL     1      -3.147  -0.817  25.691  0.00  0.00    -0.301 NA
ATOM     12  C   UNL     1      -4.404  -0.119  25.402  0.00  0.00    +0.105 C 
ATOM     13  C   UNL     1      -3.088  -2.075  24.943  0.00  0.00    +0.105 C 
ENDBRANCH   7   4
BRANCH   8   2
ATOM      2  O   UNL     1      -0.106  -1.507  25.313  0.00  0.00    -0.388 OA
ATOM     18  H   UNL     1       0.038  -2.332  24.820  0.00  0.00    +0.210 HD
ENDBRANCH   8   2
BRANCH   9  11
ATOM     11  C   UNL     1       0.525   0.216  22.671  0.00  0.00    +0.140 C 
BRANCH  11   5
ATOM      3  O   UNL     1       3.005   1.667  22.947  0.00  0.00    -0.253 OA
ATOM      5  N   UNL     1       1.828  -0.335  22.911  0.00  0.00    -0.297 N 
ATOM      6  N   UNL     1       4.109  -0.350  23.262  0.00  0.00    -0.297 N 
ATOM     14  C   UNL     1       2.984   0.440  23.033  0.00  0.00    +0.300 C 
ATOM     19  H   UNL     1       1.915  -1.344  22.982  0.00  0.00    +0.150 HD
ATOM     20  H   UNL     1       3.978  -1.349  23.392  0.00  0.00    +0.150 HD
BRANCH   6  15
ATOM     15  C   UNL     1       5.433   0.203  23.425  0.00  0.00    +0.068 C 
ATOM     16  C   UNL     1       5.692   0.550  24.886  0.00  0.00    +0.027 C 
ATOM     17  C   UNL     1       6.480  -0.767  22.895  0.00  0.00    +0.027 C 
ENDBRANCH   6  15
ENDBRANCH  11   5
ENDBRANCH   9  11
TORSDOF 5
ENDMDL
