MODEL 1
REMARK VINA RESULT:      -0.0      0.000      0.000
REMARK  Name = 11884461
REMARK  9 active torsions:
REMARK  status: ('A' for Active; 'I' for Inactive)
REMARK    1  A    between atoms: S_1  and  N_8
REMARK    2  A    between atoms: S_1  and  C_22
REMARK    3  A    between atoms: O_5  and  C_28
REMARK    4  A    between atoms: O_5  and  C_31
REMARK    5  A    between atoms: O_7  and  C_30
REMARK    6  A    between atoms: O_7  and  C_32
REMARK    7  A    between atoms: N_10  and  C_20
REMARK    8  A    between atoms: C_27  and  C_29
REMARK    9  A    between atoms: C_29  and  C_30
REMARK                            x       y       z     vdW  Elec       q    Type
REMARK                         _______ _______ _______ _____ _____    ______ ____
ROOT
ATOM      4  O   UNL     1       0.345   2.196  26.313  0.00  0.00    -0.266 OA
ATOM      8  N   UNL     1      -4.537   2.615  25.409  0.00  0.00    -0.176 NA
ATOM      9  N   UNL     1      -1.448   3.275  25.272  0.00  0.00    -0.310 N 
ATOM     11  C   UNL     1      -3.310   4.448  26.582  0.00  0.00    +0.025 C 
ATOM     12  C   UNL     1      -3.385   4.408  24.127  0.00  0.00    +0.052 C 
ATOM     13  C   UNL     1      -3.432   5.328  25.344  0.00  0.00    +0.017 C 
ATOM     14  C   UNL     1      -4.473   3.444  26.647  0.00  0.00    +0.114 C 
ATOM     15  C   UNL     1      -4.581   3.441  24.165  0.00  0.00    +0.119 C 
ATOM     16  C   UNL     1      -1.941   3.757  26.570  0.00  0.00    +0.130 C 
ATOM     17  C   UNL     1      -2.080   3.634  24.078  0.00  0.00    +0.026 A 
ATOM     18  C   UNL     1      -1.547   3.277  22.897  0.00  0.00    +0.024 A 
ATOM     19  C   UNL     1      -0.255   2.522  25.288  0.00  0.00    +0.273 A 
ATOM     20  C   UNL     1       0.292   2.124  23.953  0.00  0.00    +0.099 A 
ATOM     21  C   UNL     1      -0.338   2.505  22.837  0.00  0.00    +0.030 A 
ENDROOT
BRANCH  20  10
ATOM      6  O   UNL     1       0.774  -0.204  22.357  0.00  0.00    -0.275 OA
ATOM     10  N   UNL     1       1.438   1.385  23.926  0.00  0.00    -0.281 N 
ATOM     27  C   UNL     1       1.611   0.260  23.128  0.00  0.00    +0.220 C 
ATOM     33  H   UNL     1       2.101   1.539  24.681  0.00  0.00    +0.155 HD
BRANCH  27  29
ATOM     29  C   UNL     1       2.993  -0.347  23.319  0.00  0.00    +0.124 C 
BRANCH  29  30
ATOM     30  C   UNL     1       4.110   0.544  22.795  0.00  0.00    +0.168 C 
BRANCH  30   7
ATOM      7  O   UNL     1       5.123   0.663  23.786  0.00  0.00    -0.382 OA
ATOM     32  C   UNL     1       5.514  -0.608  24.287  0.00  0.00    +0.194 C 
ENDBRANCH  30   7
ENDBRANCH  29  30
ENDBRANCH  27  29
ENDBRANCH  20  10
BRANCH   8   1
ATOM      1  S   UNL     1      -5.621   1.293  25.458  0.00  0.00    +0.061 S 
ATOM      2  O   UNL     1      -6.536   1.389  24.340  0.00  0.00    -0.153 OA
ATOM      3  O   UNL     1      -6.112   1.136  26.810  0.00  0.00    -0.153 OA
BRANCH   1  22
ATOM     22  C   UNL     1      -4.505  -0.035  25.128  0.00  0.00    +0.106 A 
ATOM     23  C   UNL     1      -3.293  -0.084  25.797  0.00  0.00    +0.032 A 
ATOM     24  C   UNL     1      -4.860  -1.005  24.205  0.00  0.00    +0.032 A 
ATOM     25  C   UNL     1      -2.412  -1.132  25.537  0.00  0.00    +0.047 A 
ATOM     26  C   UNL     1      -3.978  -2.054  23.944  0.00  0.00    +0.047 A 
ATOM     28  C   UNL     1      -2.753  -2.118  24.610  0.00  0.00    +0.120 A 
BRANCH  28   5
ATOM      5  O   UNL     1      -1.894  -3.142  24.356  0.00  0.00    -0.495 OA
ATOM     31  C   UNL     1      -0.518  -2.927  24.669  0.00  0.00    +0.277 C 
ENDBRANCH  28   5
ENDBRANCH   1  22
ENDBRANCH   8   1
TORSDOF 7
ENDMDL
MODEL 2
REMARK VINA RESULT:       1.0      1.753      4.671
REMARK  Name = 11884461
REMARK  9 active torsions:
REMARK  status: ('A' for Active; 'I' for Inactive)
REMARK    1  A    between atoms: S_1  and  N_8
REMARK    2  A    between atoms: S_1  and  C_22
REMARK    3  A    between atoms: O_5  and  C_28
REMARK    4  A    between atoms: O_5  and  C_31
REMARK    5  A    between atoms: O_7  and  C_30
REMARK    6  A    between atoms: O_7  and  C_32
REMARK    7  A    between atoms: N_10  and  C_20
REMARK    8  A    between atoms: C_27  and  C_29
REMARK    9  A    between atoms: C_29  and  C_30
REMARK                            x       y       z     vdW  Elec       q    Type
REMARK                         _______ _______ _______ _____ _____    ______ ____
ROOT
ATOM      4  O   UNL     1      -0.750   0.254  22.285  0.00  0.00    -0.266 OA
ATOM      8  N   UNL     1      -4.796   0.290  25.193  0.00  0.00    -0.176 NA
ATOM      9  N   UNL     1      -1.977  -0.607  24.078  0.00  0.00    -0.310 N 
ATOM     11  C   UNL     1      -4.272  -1.707  23.787  0.00  0.00    +0.025 C 
ATOM     12  C   UNL     1      -3.292  -1.505  26.031  0.00  0.00    +0.052 C 
ATOM     13  C   UNL     1      -3.896  -2.493  25.037  0.00  0.00    +0.017 C 
ATOM     14  C   UNL     1      -5.304  -0.618  24.125  0.00  0.00    +0.114 C 
ATOM     15  C   UNL     1      -4.345  -0.449  26.411  0.00  0.00    +0.119 C 
ATOM     16  C   UNL     1      -2.997  -1.129  23.159  0.00  0.00    +0.130 C 
ATOM     17  C   UNL     1      -2.057  -0.837  25.455  0.00  0.00    +0.026 A 
ATOM     18  C   UNL     1      -1.056  -0.450  26.264  0.00  0.00    +0.024 A 
ATOM     19  C   UNL     1      -0.871   0.044  23.494  0.00  0.00    +0.273 A 
ATOM     20  C   UNL     1       0.210   0.481  24.432  0.00  0.00    +0.099 A 
ATOM     21  C   UNL     1       0.098   0.224  25.738  0.00  0.00    +0.030 A 
ENDROOT
BRANCH  20  10
ATOM      6  O   UNL     1       2.313  -0.706  22.892  0.00  0.00    -0.275 OA
ATOM     10  N   UNL     1       1.291   1.126  23.906  0.00  0.00    -0.281 N 
ATOM     27  C   UNL     1       2.281   0.492  23.165  0.00  0.00    +0.220 C 
ATOM     33  H   UNL     1       1.483   2.060  24.258  0.00  0.00    +0.155 HD
BRANCH  27  29
ATOM     29  C   UNL     1       3.351   1.476  22.715  0.00  0.00    +0.124 C 
BRANCH  29  30
ATOM     30  C   UNL     1       4.751   0.880  22.734  0.00  0.00    +0.168 C 
BRANCH  30   7
ATOM      7  O   UNL     1       5.141   0.632  24.078  0.00  0.00    -0.382 OA
ATOM     32  C   UNL     1       5.571  -0.710  24.258  0.00  0.00    +0.194 C 
ENDBRANCH  30   7
ENDBRANCH  29  30
ENDBRANCH  27  29
ENDBRANCH  20  10
BRANCH   8   1
ATOM      1  S   UNL     1      -5.736   1.690  25.483  0.00  0.00    +0.061 S 
ATOM      2  O   UNL     1      -6.198   1.674  26.855  0.00  0.00    -0.153 OA
ATOM      3  O   UNL     1      -6.663   1.870  24.387  0.00  0.00    -0.153 OA
BRANCH   1  22
ATOM     22  C   UNL     1      -4.489   2.933  25.350  0.00  0.00    +0.106 A 
ATOM     23  C   UNL     1      -3.999   3.269  24.099  0.00  0.00    +0.032 A 
ATOM     24  C   UNL     1      -4.022   3.550  26.499  0.00  0.00    +0.032 A 
ATOM     25  C   UNL     1      -3.014   4.251  23.994  0.00  0.00    +0.047 A 
ATOM     26  C   UNL     1      -3.036   4.532  26.394  0.00  0.00    +0.047 A 
ATOM     28  C   UNL     1      -2.532   4.882  25.141  0.00  0.00    +0.120 A 
BRANCH  28   5
ATOM      5  O   UNL     1      -1.572   5.841  25.038  0.00  0.00    -0.495 OA
ATOM     31  C   UNL     1      -0.278   5.420  24.608  0.00  0.00    +0.277 C 
ENDBRANCH  28   5
ENDBRANCH   1  22
ENDBRANCH   8   1
TORSDOF 7
ENDMDL
