MODEL 1
REMARK VINA RESULT:      -5.6      0.000      0.000
REMARK  Name = 75536572
REMARK  9 active torsions:
REMARK  status: ('A' for Active; 'I' for Inactive)
REMARK    1  A    between atoms: O_2  and  C_8
REMARK    2  A    between atoms: O_4  and  C_15
REMARK    3  A    between atoms: O_4  and  C_16
REMARK    4  A    between atoms: N_5  and  C_7
REMARK    5  A    between atoms: N_5  and  C_12
REMARK    6  A    between atoms: N_5  and  C_13
REMARK    7  A    between atoms: N_6  and  C_11
REMARK    8  A    between atoms: C_9  and  C_11
REMARK    9  A    between atoms: C_14  and  C_15
REMARK                            x       y       z     vdW  Elec       q    Type
REMARK                         _______ _______ _______ _____ _____    ______ ____
ROOT
ATOM      1  O   UNL     1      -4.747   2.772  25.708  0.00  0.00    -0.371 OA
ATOM      7  C   UNL     1      -2.804   3.477  24.537  0.00  0.00    +0.113 C 
ATOM      8  C   UNL     1      -3.006   1.989  24.311  0.00  0.00    +0.164 C 
ATOM      9  C   UNL     1      -4.484   1.841  24.646  0.00  0.00    +0.165 C 
ATOM     10  C   UNL     1      -3.660   3.713  25.771  0.00  0.00    +0.181 C 
ENDROOT
BRANCH   7   5
ATOM      5  N   UNL     1      -1.413   3.853  24.732  0.00  0.00    -0.301 NA
ATOM     12  C   UNL     1      -1.304   5.268  25.101  0.00  0.00    +0.105 C 
ATOM     13  C   UNL     1      -0.785   3.016  25.759  0.00  0.00    +0.105 C 
ENDBRANCH   7   5
BRANCH   8   2
ATOM      2  O   UNL     1      -2.723   1.596  22.982  0.00  0.00    -0.388 OA
ATOM     17  H   UNL     1      -2.287   0.728  23.007  0.00  0.00    +0.210 HD
ENDBRANCH   8   2
BRANCH   9  11
ATOM     11  C   UNL     1      -4.860   0.438  25.088  0.00  0.00    +0.138 C 
BRANCH  11   6
ATOM      3  O   UNL     1      -4.405  -2.040  23.666  0.00  0.00    -0.273 OA
ATOM      6  N   UNL     1      -3.705  -0.409  25.173  0.00  0.00    -0.311 N 
ATOM     14  C   UNL     1      -3.571  -1.591  24.448  0.00  0.00    +0.239 C 
ATOM     18  H   UNL     1      -2.959  -0.132  25.803  0.00  0.00    +0.149 HD
BRANCH  14  15
ATOM     15  C   UNL     1      -2.254  -2.282  24.728  0.00  0.00    +0.255 C 
BRANCH  15   4
ATOM      4  O   UNL     1      -1.336  -1.386  25.316  0.00  0.00    -0.374 OA
ATOM     16  C   UNL     1      -0.392  -0.894  24.369  0.00  0.00    +0.194 C 
ENDBRANCH  15   4
ENDBRANCH  14  15
ENDBRANCH  11   6
ENDBRANCH   9  11
TORSDOF 6
ENDMDL
MODEL 2
REMARK VINA RESULT:      -5.4      1.907      3.611
REMARK  Name = 75536572
REMARK  9 active torsions:
REMARK  status: ('A' for Active; 'I' for Inactive)
REMARK    1  A    between atoms: O_2  and  C_8
REMARK    2  A    between atoms: O_4  and  C_15
REMARK    3  A    between atoms: O_4  and  C_16
REMARK    4  A    between atoms: N_5  and  C_7
REMARK    5  A    between atoms: N_5  and  C_12
REMARK    6  A    between atoms: N_5  and  C_13
REMARK    7  A    between atoms: N_6  and  C_11
REMARK    8  A    between atoms: C_9  and  C_11
REMARK    9  A    between atoms: C_14  and  C_15
REMARK                            x       y       z     vdW  Elec       q    Type
REMARK                         _______ _______ _______ _____ _____    ______ ____
ROOT
ATOM      1  O   UNL     1      -1.563   2.130  23.021  0.00  0.00    -0.371 OA
ATOM      7  C   UNL     1      -3.509   2.949  24.109  0.00  0.00    +0.113 C 
ATOM      8  C   UNL     1      -2.426   2.710  25.146  0.00  0.00    +0.164 C 
ATOM      9  C   UNL     1      -1.178   2.722  24.273  0.00  0.00    +0.165 C 
ATOM     10  C   UNL     1      -2.999   2.117  22.944  0.00  0.00    +0.181 C 
ENDROOT
BRANCH   7   5
ATOM      5  N   UNL     1      -4.836   2.553  24.551  0.00  0.00    -0.301 NA
ATOM     12  C   UNL     1      -4.815   1.200  25.115  0.00  0.00    +0.105 C 
ATOM     13  C   UNL     1      -5.363   3.501  25.536  0.00  0.00    +0.105 C 
ENDBRANCH   7   5
BRANCH   8   2
ATOM      2  O   UNL     1      -2.387   3.719  26.137  0.00  0.00    -0.388 OA
ATOM     17  H   UNL     1      -2.000   4.519  25.743  0.00  0.00    +0.210 HD
ENDBRANCH   8   2
BRANCH   9  11
ATOM     11  C   UNL     1      -0.020   1.945  24.874  0.00  0.00    +0.138 C 
BRANCH  11   6
ATOM      3  O   UNL     1       0.277  -0.574  23.483  0.00  0.00    -0.273 OA
ATOM      6  N   UNL     1      -0.439   0.650  25.328  0.00  0.00    -0.311 N 
ATOM     14  C   UNL     1      -0.255  -0.514  24.588  0.00  0.00    +0.239 C 
ATOM     18  H   UNL     1      -0.903   0.592  26.230  0.00  0.00    +0.149 HD
BRANCH  14  15
ATOM     15  C   UNL     1      -0.791  -1.734  25.306  0.00  0.00    +0.255 C 
BRANCH  15   4
ATOM      4  O   UNL     1      -1.669  -2.458  24.471  0.00  0.00    -0.374 OA
ATOM     16  C   UNL     1      -3.035  -2.176  24.764  0.00  0.00    +0.194 C 
ENDBRANCH  15   4
ENDBRANCH  14  15
ENDBRANCH  11   6
ENDBRANCH   9  11
TORSDOF 6
ENDMDL
MODEL 3
REMARK VINA RESULT:      -4.6      3.335      4.682
REMARK  Name = 75536572
REMARK  9 active torsions:
REMARK  status: ('A' for Active; 'I' for Inactive)
REMARK    1  A    between atoms: O_2  and  C_8
REMARK    2  A    between atoms: O_4  and  C_15
REMARK    3  A    between atoms: O_4  and  C_16
REMARK    4  A    between atoms: N_5  and  C_7
REMARK    5  A    between atoms: N_5  and  C_12
REMARK    6  A    between atoms: N_5  and  C_13
REMARK    7  A    between atoms: N_6  and  C_11
REMARK    8  A    between atoms: C_9  and  C_11
REMARK    9  A    between atoms: C_14  and  C_15
REMARK                            x       y       z     vdW  Elec       q    Type
REMARK                         _______ _______ _______ _____ _____    ______ ____
ROOT
ATOM      1  O   UNL     1      -0.606   1.701  24.713  0.00  0.00    -0.371 OA
ATOM      7  C   UNL     1      -2.967   1.662  24.967  0.00  0.00    +0.113 C 
ATOM      8  C   UNL     1      -2.524   0.388  24.271  0.00  0.00    +0.164 C 
ATOM      9  C   UNL     1      -1.054   0.336  24.666  0.00  0.00    +0.165 C 
ATOM     10  C   UNL     1      -1.759   2.559  24.752  0.00  0.00    +0.181 C 
ENDROOT
BRANCH   7   5
ATOM      5  N   UNL     1      -4.194   2.225  24.427  0.00  0.00    -0.301 NA
ATOM     12  C   UNL     1      -5.288   2.116  25.396  0.00  0.00    +0.105 C 
ATOM     13  C   UNL     1      -4.000   3.626  24.043  0.00  0.00    +0.105 C 
ENDBRANCH   7   5
BRANCH   8   2
ATOM      2  O   UNL     1      -3.231  -0.752  24.717  0.00  0.00    -0.388 OA
ATOM     17  H   UNL     1      -3.166  -0.792  25.685  0.00  0.00    +0.210 HD
ENDBRANCH   8   2
BRANCH   9  11
ATOM     11  C   UNL     1      -0.198  -0.451  23.689  0.00  0.00    +0.138 C 
BRANCH  11   6
ATOM      3  O   UNL     1       1.558  -0.432  21.390  0.00  0.00    -0.273 OA
ATOM      6  N   UNL     1       1.135   0.074  23.622  0.00  0.00    -0.311 N 
ATOM     14  C   UNL     1       1.912   0.040  22.467  0.00  0.00    +0.239 C 
ATOM     18  H   UNL     1       1.528   0.479  24.467  0.00  0.00    +0.149 HD
BRANCH  14  15
ATOM     15  C   UNL     1       3.274   0.664  22.680  0.00  0.00    +0.255 C 
BRANCH  15   4
ATOM      4  O   UNL     1       4.200  -0.302  23.129  0.00  0.00    -0.374 OA
ATOM     16  C   UNL     1       5.414   0.293  23.579  0.00  0.00    +0.194 C 
ENDBRANCH  15   4
ENDBRANCH  14  15
ENDBRANCH  11   6
ENDBRANCH   9  11
TORSDOF 6
ENDMDL
MODEL 4
REMARK VINA RESULT:      -4.6      2.976      4.467
REMARK  Name = 75536572
REMARK  9 active torsions:
REMARK  status: ('A' for Active; 'I' for Inactive)
REMARK    1  A    between atoms: O_2  and  C_8
REMARK    2  A    between atoms: O_4  and  C_15
REMARK    3  A    between atoms: O_4  and  C_16
REMARK    4  A    between atoms: N_5  and  C_7
REMARK    5  A    between atoms: N_5  and  C_12
REMARK    6  A    between atoms: N_5  and  C_13
REMARK    7  A    between atoms: N_6  and  C_11
REMARK    8  A    between atoms: C_9  and  C_11
REMARK    9  A    between atoms: C_14  and  C_15
REMARK                            x       y       z     vdW  Elec       q    Type
REMARK                         _______ _______ _______ _____ _____    ______ ____
ROOT
ATOM      1  O   UNL     1      -1.744   1.439  23.376  0.00  0.00    -0.371 OA
ATOM      7  C   UNL     1      -3.234   3.164  24.046  0.00  0.00    +0.113 C 
ATOM      8  C   UNL     1      -1.960   3.265  24.866  0.00  0.00    +0.164 C 
ATOM      9  C   UNL     1      -0.984   2.497  23.984  0.00  0.00    +0.165 C 
ATOM     10  C   UNL     1      -3.144   1.740  23.522  0.00  0.00    +0.181 C 
ENDROOT
BRANCH   7   5
ATOM      5  N   UNL     1      -4.444   3.408  24.816  0.00  0.00    -0.301 NA
ATOM     12  C   UNL     1      -5.336   2.247  24.765  0.00  0.00    +0.105 C 
ATOM     13  C   UNL     1      -4.119   3.733  26.208  0.00  0.00    +0.105 C 
ENDBRANCH   7   5
BRANCH   8   2
ATOM      2  O   UNL     1      -1.548   4.602  25.071  0.00  0.00    -0.388 OA
ATOM     17  H   UNL     1      -2.325   5.178  24.980  0.00  0.00    +0.210 HD
ENDBRANCH   8   2
BRANCH   9  11
ATOM     11  C   UNL     1       0.186   1.911  24.755  0.00  0.00    +0.138 C 
BRANCH  11   6
ATOM      3  O   UNL     1       0.581  -0.637  23.443  0.00  0.00    -0.273 OA
ATOM      6  N   UNL     1       1.259   1.547  23.875  0.00  0.00    -0.311 N 
ATOM     14  C   UNL     1       1.371   0.291  23.286  0.00  0.00    +0.239 C 
ATOM     18  H   UNL     1       1.975   2.243  23.687  0.00  0.00    +0.149 HD
BRANCH  14  15
ATOM     15  C   UNL     1       2.597   0.183  22.405  0.00  0.00    +0.255 C 
BRANCH  15   4
ATOM      4  O   UNL     1       3.605   1.068  22.844  0.00  0.00    -0.374 OA
ATOM     16  C   UNL     1       4.807   0.380  23.180  0.00  0.00    +0.194 C 
ENDBRANCH  15   4
ENDBRANCH  14  15
ENDBRANCH  11   6
ENDBRANCH   9  11
TORSDOF 6
ENDMDL
MODEL 5
REMARK VINA RESULT:      -4.4      2.006      4.815
REMARK  Name = 75536572
REMARK  9 active torsions:
REMARK  status: ('A' for Active; 'I' for Inactive)
REMARK    1  A    between atoms: O_2  and  C_8
REMARK    2  A    between atoms: O_4  and  C_15
REMARK    3  A    between atoms: O_4  and  C_16
REMARK    4  A    between atoms: N_5  and  C_7
REMARK    5  A    between atoms: N_5  and  C_12
REMARK    6  A    between atoms: N_5  and  C_13
REMARK    7  A    between atoms: N_6  and  C_11
REMARK    8  A    between atoms: C_9  and  C_11
REMARK    9  A    between atoms: C_14  and  C_15
REMARK                            x       y       z     vdW  Elec       q    Type
REMARK                         _______ _______ _______ _____ _____    ______ ____
ROOT
ATOM      1  O   UNL     1      -3.632   1.926  23.267  0.00  0.00    -0.371 OA
ATOM      7  C   UNL     1      -4.234   0.005  24.528  0.00  0.00    +0.113 C 
ATOM      8  C   UNL     1      -4.609   1.250  25.312  0.00  0.00    +0.164 C 
ATOM      9  C   UNL     1      -4.661   2.290  24.202  0.00  0.00    +0.165 C 
ATOM     10  C   UNL     1      -3.236   0.568  23.529  0.00  0.00    +0.181 C 
ENDROOT
BRANCH   7   5
ATOM      5  N   UNL     1      -3.675  -1.056  25.350  0.00  0.00    -0.301 NA
ATOM     12  C   UNL     1      -3.670  -2.329  24.624  0.00  0.00    +0.105 C 
ATOM     13  C   UNL     1      -2.316  -0.718  25.784  0.00  0.00    +0.105 C 
ENDBRANCH   7   5
BRANCH   8   2
ATOM      2  O   UNL     1      -5.852   1.122  25.975  0.00  0.00    -0.388 OA
ATOM     17  H   UNL     1      -6.289   1.990  25.973  0.00  0.00    +0.210 HD
ENDBRANCH   8   2
BRANCH   9  11
ATOM     11  C   UNL     1      -4.427   3.707  24.697  0.00  0.00    +0.138 C 
BRANCH  11   6
ATOM      3  O   UNL     1      -2.294   3.643  26.650  0.00  0.00    -0.273 OA
ATOM      6  N   UNL     1      -3.063   4.108  24.503  0.00  0.00    -0.311 N 
ATOM     14  C   UNL     1      -2.099   4.043  25.506  0.00  0.00    +0.239 C 
ATOM     18  H   UNL     1      -2.799   4.467  23.590  0.00  0.00    +0.149 HD
BRANCH  14  15
ATOM     15  C   UNL     1      -0.747   4.527  25.026  0.00  0.00    +0.255 C 
BRANCH  15   4
ATOM      4  O   UNL     1      -0.232   3.664  24.035  0.00  0.00    -0.374 OA
ATOM     16  C   UNL     1       0.026   2.360  24.547  0.00  0.00    +0.194 C 
ENDBRANCH  15   4
ENDBRANCH  14  15
ENDBRANCH  11   6
ENDBRANCH   9  11
TORSDOF 6
ENDMDL
MODEL 6
REMARK VINA RESULT:      -4.3      1.830      3.278
REMARK  Name = 75536572
REMARK  9 active torsions:
REMARK  status: ('A' for Active; 'I' for Inactive)
REMARK    1  A    between atoms: O_2  and  C_8
REMARK    2  A    between atoms: O_4  and  C_15
REMARK    3  A    between atoms: O_4  and  C_16
REMARK    4  A    between atoms: N_5  and  C_7
REMARK    5  A    between atoms: N_5  and  C_12
REMARK    6  A    between atoms: N_5  and  C_13
REMARK    7  A    between atoms: N_6  and  C_11
REMARK    8  A    between atoms: C_9  and  C_11
REMARK    9  A    between atoms: C_14  and  C_15
REMARK                            x       y       z     vdW  Elec       q    Type
REMARK                         _______ _______ _______ _____ _____    ______ ____
ROOT
ATOM      1  O   UNL     1      -1.203   0.964  22.953  0.00  0.00    -0.371 OA
ATOM      7  C   UNL     1      -1.685   2.750  24.444  0.00  0.00    +0.113 C 
ATOM      8  C   UNL     1      -1.007   1.632  25.214  0.00  0.00    +0.164 C 
ATOM      9  C   UNL     1      -0.323   0.872  24.085  0.00  0.00    +0.165 C 
ATOM     10  C   UNL     1      -2.154   2.016  23.198  0.00  0.00    +0.181 C 
ENDROOT
BRANCH   7   5
ATOM      5  N   UNL     1      -2.774   3.383  25.171  0.00  0.00    -0.301 NA
ATOM     12  C   UNL     1      -2.361   4.689  25.693  0.00  0.00    +0.105 C 
ATOM     13  C   UNL     1      -3.954   3.534  24.315  0.00  0.00    +0.105 C 
ENDBRANCH   7   5
BRANCH   8   2
ATOM      2  O   UNL     1      -0.078   2.111  26.167  0.00  0.00    -0.388 OA
ATOM     17  H   UNL     1      -0.102   1.522  26.940  0.00  0.00    +0.210 HD
ENDBRANCH   8   2
BRANCH   9  11
ATOM     11  C   UNL     1      -0.064  -0.587  24.417  0.00  0.00    +0.138 C 
BRANCH  11   6
ATOM      3  O   UNL     1      -2.126  -1.120  26.375  0.00  0.00    -0.273 OA
ATOM      6  N   UNL     1      -1.245  -1.381  24.236  0.00  0.00    -0.311 N 
ATOM     14  C   UNL     1      -2.188  -1.584  25.240  0.00  0.00    +0.239 C 
ATOM     18  H   UNL     1      -1.386  -1.822  23.332  0.00  0.00    +0.149 HD
BRANCH  14  15
ATOM     15  C   UNL     1      -3.332  -2.460  24.775  0.00  0.00    +0.255 C 
BRANCH  15   4
ATOM      4  O   UNL     1      -4.142  -1.770  23.848  0.00  0.00    -0.374 OA
ATOM     16  C   UNL     1      -4.611  -0.530  24.369  0.00  0.00    +0.194 C 
ENDBRANCH  15   4
ENDBRANCH  14  15
ENDBRANCH  11   6
ENDBRANCH   9  11
TORSDOF 6
ENDMDL
MODEL 7
REMARK VINA RESULT:      -4.2      2.063      4.363
REMARK  Name = 75536572
REMARK  9 active torsions:
REMARK  status: ('A' for Active; 'I' for Inactive)
REMARK    1  A    between atoms: O_2  and  C_8
REMARK    2  A    between atoms: O_4  and  C_15
REMARK    3  A    between atoms: O_4  and  C_16
REMARK    4  A    between atoms: N_5  and  C_7
REMARK    5  A    between atoms: N_5  and  C_12
REMARK    6  A    between atoms: N_5  and  C_13
REMARK    7  A    between atoms: N_6  and  C_11
REMARK    8  A    between atoms: C_9  and  C_11
REMARK    9  A    between atoms: C_14  and  C_15
REMARK                            x       y       z     vdW  Elec       q    Type
REMARK                         _______ _______ _______ _____ _____    ______ ____
ROOT
ATOM      1  O   UNL     1      -3.264  -1.083  25.373  0.00  0.00    -0.371 OA
ATOM      7  C   UNL     1      -4.294   0.720  24.219  0.00  0.00    +0.113 C 
ATOM      8  C   UNL     1      -2.788   0.909  24.189  0.00  0.00    +0.164 C 
ATOM      9  C   UNL     1      -2.310  -0.511  24.464  0.00  0.00    +0.165 C 
ATOM     10  C   UNL     1      -4.451  -0.270  25.362  0.00  0.00    +0.181 C 
ENDROOT
BRANCH   7   5
ATOM      5  N   UNL     1      -5.033   1.954  24.433  0.00  0.00    -0.301 NA
ATOM     12  C   UNL     1      -6.241   1.706  25.224  0.00  0.00    +0.105 C 
ATOM     13  C   UNL     1      -4.193   2.955  25.096  0.00  0.00    +0.105 C 
ENDBRANCH   7   5
BRANCH   8   2
ATOM      2  O   UNL     1      -2.323   1.391  22.943  0.00  0.00    -0.388 OA
ATOM     17  H   UNL     1      -2.421   0.682  22.286  0.00  0.00    +0.210 HD
ENDBRANCH   8   2
BRANCH   9  11
ATOM     11  C   UNL     1      -0.921  -0.567  25.075  0.00  0.00    +0.138 C 
BRANCH  11   6
ATOM      3  O   UNL     1       0.600   1.620  23.947  0.00  0.00    -0.273 OA
ATOM      6  N   UNL     1      -0.581   0.672  25.714  0.00  0.00    -0.311 N 
ATOM     14  C   UNL     1       0.159   1.673  25.092  0.00  0.00    +0.239 C 
ATOM     18  H   UNL     1      -0.891   0.811  26.671  0.00  0.00    +0.149 HD
BRANCH  14  15
ATOM     15  C   UNL     1       0.367   2.870  25.995  0.00  0.00    +0.255 C 
BRANCH  15   4
ATOM      4  O   UNL     1      -0.815   3.635  26.090  0.00  0.00    -0.374 OA
ATOM     16  C   UNL     1      -0.914   4.595  25.042  0.00  0.00    +0.194 C 
ENDBRANCH  15   4
ENDBRANCH  14  15
ENDBRANCH  11   6
ENDBRANCH   9  11
TORSDOF 6
ENDMDL
MODEL 8
REMARK VINA RESULT:      -4.1      2.194      4.745
REMARK  Name = 75536572
REMARK  9 active torsions:
REMARK  status: ('A' for Active; 'I' for Inactive)
REMARK    1  A    between atoms: O_2  and  C_8
REMARK    2  A    between atoms: O_4  and  C_15
REMARK    3  A    between atoms: O_4  and  C_16
REMARK    4  A    between atoms: N_5  and  C_7
REMARK    5  A    between atoms: N_5  and  C_12
REMARK    6  A    between atoms: N_5  and  C_13
REMARK    7  A    between atoms: N_6  and  C_11
REMARK    8  A    between atoms: C_9  and  C_11
REMARK    9  A    between atoms: C_14  and  C_15
REMARK                            x       y       z     vdW  Elec       q    Type
REMARK                         _______ _______ _______ _____ _____    ______ ____
ROOT
ATOM      1  O   UNL     1      -0.231   3.136  25.633  0.00  0.00    -0.371 OA
ATOM      7  C   UNL     1      -0.612   1.121  24.434  0.00  0.00    +0.113 C 
ATOM      8  C   UNL     1      -1.653   2.147  24.022  0.00  0.00    +0.164 C 
ATOM      9  C   UNL     1      -0.968   3.441  24.438  0.00  0.00    +0.165 C 
ATOM     10  C   UNL     1      -0.115   1.706  25.746  0.00  0.00    +0.181 C 
ENDROOT
BRANCH   7   5
ATOM      5  N   UNL     1      -1.145  -0.224  24.579  0.00  0.00    -0.301 NA
ATOM     12  C   UNL     1      -0.142  -1.224  24.200  0.00  0.00    +0.105 C 
ATOM     13  C   UNL     1      -1.596  -0.460  25.953  0.00  0.00    +0.105 C 
ENDBRANCH   7   5
BRANCH   8   2
ATOM      2  O   UNL     1      -1.930   2.117  22.636  0.00  0.00    -0.388 OA
ATOM     17  H   UNL     1      -1.453   2.851  22.214  0.00  0.00    +0.210 HD
ENDBRANCH   8   2
BRANCH   9  11
ATOM     11  C   UNL     1      -1.942   4.574  24.711  0.00  0.00    +0.138 C 
BRANCH  11   6
ATOM      3  O   UNL     1      -3.607   3.820  26.954  0.00  0.00    -0.273 OA
ATOM      6  N   UNL     1      -3.301   4.115  24.666  0.00  0.00    -0.311 N 
ATOM     14  C   UNL     1      -4.029   3.772  25.802  0.00  0.00    +0.239 C 
ATOM     18  H   UNL     1      -3.742   4.029  23.755  0.00  0.00    +0.149 HD
BRANCH  14  15
ATOM     15  C   UNL     1      -5.434   3.324  25.462  0.00  0.00    +0.255 C 
BRANCH  15   4
ATOM      4  O   UNL     1      -5.651   1.996  25.888  0.00  0.00    -0.374 OA
ATOM     16  C   UNL     1      -4.972   1.055  25.062  0.00  0.00    +0.194 C 
ENDBRANCH  15   4
ENDBRANCH  14  15
ENDBRANCH  11   6
ENDBRANCH   9  11
TORSDOF 6
ENDMDL
MODEL 9
REMARK VINA RESULT:      -3.9     17.049     18.792
REMARK  Name = 75536572
REMARK  9 active torsions:
REMARK  status: ('A' for Active; 'I' for Inactive)
REMARK    1  A    between atoms: O_2  and  C_8
REMARK    2  A    between atoms: O_4  and  C_15
REMARK    3  A    between atoms: O_4  and  C_16
REMARK    4  A    between atoms: N_5  and  C_7
REMARK    5  A    between atoms: N_5  and  C_12
REMARK    6  A    between atoms: N_5  and  C_13
REMARK    7  A    between atoms: N_6  and  C_11
REMARK    8  A    between atoms: C_9  and  C_11
REMARK    9  A    between atoms: C_14  and  C_15
REMARK                            x       y       z     vdW  Elec       q    Type
REMARK                         _______ _______ _______ _____ _____    ______ ____
ROOT
ATOM      1  O   UNL     1      12.935   6.591  19.664  0.00  0.00    -0.371 OA
ATOM      7  C   UNL     1      14.427   7.343  21.352  0.00  0.00    +0.113 C 
ATOM      8  C   UNL     1      13.350   8.391  21.142  0.00  0.00    +0.164 C 
ATOM      9  C   UNL     1      12.258   7.559  20.482  0.00  0.00    +0.165 C 
ATOM     10  C   UNL     1      14.313   6.532  20.071  0.00  0.00    +0.181 C 
ENDROOT
BRANCH   7   5
ATOM      5  N   UNL     1      15.754   7.903  21.551  0.00  0.00    -0.301 NA
ATOM     12  C   UNL     1      16.760   6.840  21.638  0.00  0.00    +0.105 C 
ATOM     13  C   UNL     1      16.096   8.832  20.471  0.00  0.00    +0.105 C 
ENDBRANCH   7   5
BRANCH   8   2
ATOM      2  O   UNL     1      12.911   8.973  22.354  0.00  0.00    -0.388 OA
ATOM     17  H   UNL     1      12.048   9.392  22.197  0.00  0.00    +0.210 HD
ENDBRANCH   8   2
BRANCH   9  11
ATOM     11  C   UNL     1      11.312   8.382  19.627  0.00  0.00    +0.138 C 
BRANCH  11   6
ATOM      3  O   UNL     1      10.356   7.942  16.932  0.00  0.00    -0.273 OA
ATOM      6  N   UNL     1      11.941   8.798  18.406  0.00  0.00    -0.311 N 
ATOM     14  C   UNL     1      11.406   8.541  17.146  0.00  0.00    +0.239 C 
ATOM     18  H   UNL     1      12.825   9.294  18.473  0.00  0.00    +0.149 HD
BRANCH  14  15
ATOM     15  C   UNL     1      12.275   9.093  16.037  0.00  0.00    +0.255 C 
BRANCH  15   4
ATOM      4  O   UNL     1      13.334   8.207  15.745  0.00  0.00    -0.374 OA
ATOM     16  C   UNL     1      14.316   8.192  16.777  0.00  0.00    +0.194 C 
ENDBRANCH  15   4
ENDBRANCH  14  15
ENDBRANCH  11   6
ENDBRANCH   9  11
TORSDOF 6
ENDMDL
MODEL 10
REMARK VINA RESULT:      -3.7     16.920     18.985
REMARK  Name = 75536572
REMARK  9 active torsions:
REMARK  status: ('A' for Active; 'I' for Inactive)
REMARK    1  A    between atoms: O_2  and  C_8
REMARK    2  A    between atoms: O_4  and  C_15
REMARK    3  A    between atoms: O_4  and  C_16
REMARK    4  A    between atoms: N_5  and  C_7
REMARK    5  A    between atoms: N_5  and  C_12
REMARK    6  A    between atoms: N_5  and  C_13
REMARK    7  A    between atoms: N_6  and  C_11
REMARK    8  A    between atoms: C_9  and  C_11
REMARK    9  A    between atoms: C_14  and  C_15
REMARK                            x       y       z     vdW  Elec       q    Type
REMARK                         _______ _______ _______ _____ _____    ______ ____
ROOT
ATOM      1  O   UNL     1      14.257   9.027  18.881  0.00  0.00    -0.371 OA
ATOM      7  C   UNL     1      16.239   7.940  19.610  0.00  0.00    +0.113 C 
ATOM      8  C   UNL     1      15.298   6.908  19.016  0.00  0.00    +0.164 C 
ATOM      9  C   UNL     1      14.396   7.790  18.164  0.00  0.00    +0.165 C 
ATOM     10  C   UNL     1      15.288   9.094  19.882  0.00  0.00    +0.181 C 
ENDROOT
BRANCH   7   5
ATOM      5  N   UNL     1      16.930   7.482  20.804  0.00  0.00    -0.301 NA
ATOM     12  C   UNL     1      17.405   8.618  21.599  0.00  0.00    +0.105 C 
ATOM     13  C   UNL     1      16.058   6.629  21.616  0.00  0.00    +0.105 C 
ENDBRANCH   7   5
BRANCH   8   2
ATOM      2  O   UNL     1      15.973   5.936  18.241  0.00  0.00    -0.388 OA
ATOM     17  H   UNL     1      15.836   5.067  18.654  0.00  0.00    +0.210 HD
ENDBRANCH   8   2
BRANCH   9  11
ATOM     11  C   UNL     1      13.026   7.184  17.915  0.00  0.00    +0.138 C 
BRANCH  11   6
ATOM      3  O   UNL     1      12.389   6.637  20.684  0.00  0.00    -0.273 OA
ATOM      6  N   UNL     1      12.021   7.822  18.715  0.00  0.00    -0.311 N 
ATOM     14  C   UNL     1      11.782   7.493  20.047  0.00  0.00    +0.239 C 
ATOM     18  H   UNL     1      11.452   8.541  18.277  0.00  0.00    +0.149 HD
BRANCH  14  15
ATOM     15  C   UNL     1      10.668   8.323  20.646  0.00  0.00    +0.255 C 
BRANCH  15   4
ATOM      4  O   UNL     1      10.341   7.860  21.939  0.00  0.00    -0.374 OA
ATOM     16  C   UNL     1      10.703   8.798  22.948  0.00  0.00    +0.194 C 
ENDBRANCH  15   4
ENDBRANCH  14  15
ENDBRANCH  11   6
ENDBRANCH   9  11
TORSDOF 6
ENDMDL
