MODEL 1
REMARK VINA RESULT:      -0.5      0.000      0.000
REMARK  Name = 11943018
REMARK  4 active torsions:
REMARK  status: ('A' for Active; 'I' for Inactive)
REMARK    1  A    between atoms: N_4  and  C_11
REMARK    2  A    between atoms: N_5  and  C_12
REMARK    3  A    between atoms: N_8  and  C_25
REMARK    4  A    between atoms: C_15  and  C_21
REMARK                            x       y       z     vdW  Elec       q    Type
REMARK                         _______ _______ _______ _____ _____    ______ ____
ROOT
ATOM      1  O   UNL     1      -3.969  -1.846  23.832  0.00  0.00    -0.370 OA
ATOM      2  O   UNL     1      -1.914  -0.979  26.014  0.00  0.00    -0.370 OA
ATOM      9  C   UNL     1      -2.794  -0.247  25.144  0.00  0.00    +0.171 C 
ATOM     10  C   UNL     1      -2.824  -0.979  23.817  0.00  0.00    +0.171 C 
ATOM     11  C   UNL     1      -4.216  -0.331  25.645  0.00  0.00    +0.130 C 
ATOM     12  C   UNL     1      -1.549  -1.790  23.815  0.00  0.00    +0.131 C 
ATOM     13  C   UNL     1      -4.702  -1.638  25.049  0.00  0.00    +0.185 C 
ATOM     14  C   UNL     1      -1.347  -2.081  25.291  0.00  0.00    +0.185 C 
ENDROOT
BRANCH  11   4
ATOM      4  N   UNL     1      -4.990   0.775  25.123  0.00  0.00    -0.306 N 
ATOM      6  N   UNL     1      -3.236   2.300  25.449  0.00  0.00    -0.219 NA
ATOM      7  N   UNL     1      -5.339   3.014  24.515  0.00  0.00    -0.223 NA
ATOM     20  C   UNL     1      -4.507   2.068  25.027  0.00  0.00    +0.216 A 
ATOM     21  C   UNL     1      -2.798   3.572  25.341  0.00  0.00    +0.049 A 
ATOM     23  C   UNL     1      -3.561   4.605  24.836  0.00  0.00    +0.043 A 
ATOM     24  C   UNL     1      -4.838   4.265  24.435  0.00  0.00    +0.116 A 
ATOM     31  H   UNL     1      -5.919   0.604  24.756  0.00  0.00    +0.149 HD
BRANCH  21  15
ATOM     15  C   UNL     1      -1.380   3.848  25.808  0.00  0.00    +0.038 C 
ATOM     16  C   UNL     1      -0.591   2.553  26.034  0.00  0.00    +0.010 C 
ATOM     17  C   UNL     1      -0.469   4.626  24.849  0.00  0.00    +0.010 C 
ATOM     18  C   UNL     1      -0.003   2.229  24.667  0.00  0.00    +0.001 C 
ATOM     19  C   UNL     1       0.289   3.582  24.025  0.00  0.00    +0.001 C 
ENDBRANCH  21  15
ENDBRANCH  11   4
BRANCH  12   5
ATOM      3  O   UNL     1       1.186  -1.908  24.658  0.00  0.00    -0.252 OA
ATOM      5  N   UNL     1      -0.447  -1.032  23.275  0.00  0.00    -0.292 N 
ATOM      8  N   UNL     1       1.716  -0.295  23.036  0.00  0.00    -0.269 N 
ATOM     22  C   UNL     1       0.867  -1.148  23.746  0.00  0.00    +0.304 C 
ATOM     32  H   UNL     1      -0.620  -0.433  22.474  0.00  0.00    +0.151 HD
ATOM     33  H   UNL     1       1.287   0.272  22.308  0.00  0.00    +0.156 HD
BRANCH   8  25
ATOM     25  C   UNL     1       3.109  -0.118  23.205  0.00  0.00    +0.035 A 
ATOM     26  C   UNL     1       3.690   1.082  22.832  0.00  0.00    +0.023 A 
ATOM     27  C   UNL     1       3.863  -1.148  23.744  0.00  0.00    +0.023 A 
ATOM     28  C   UNL     1       5.064   1.258  23.000  0.00  0.00    +0.002 A 
ATOM     29  C   UNL     1       5.236  -0.972  23.911  0.00  0.00    +0.002 A 
ATOM     30  C   UNL     1       5.836   0.230  23.539  0.00  0.00    +0.000 A 
ENDBRANCH   8  25
ENDBRANCH  12   5
TORSDOF 4
ENDMDL
MODEL 2
REMARK VINA RESULT:       2.5      2.026      4.169
REMARK  Name = 11943018
REMARK  4 active torsions:
REMARK  status: ('A' for Active; 'I' for Inactive)
REMARK    1  A    between atoms: N_4  and  C_11
REMARK    2  A    between atoms: N_5  and  C_12
REMARK    3  A    between atoms: N_8  and  C_25
REMARK    4  A    between atoms: C_15  and  C_21
REMARK                            x       y       z     vdW  Elec       q    Type
REMARK                         _______ _______ _______ _____ _____    ______ ____
ROOT
ATOM      1  O   UNL     1      -2.982   3.500  26.731  0.00  0.00    -0.370 OA
ATOM      2  O   UNL     1      -2.733   5.093  24.059  0.00  0.00    -0.370 OA
ATOM      9  C   UNL     1      -3.324   3.828  24.399  0.00  0.00    +0.171 C 
ATOM     10  C   UNL     1      -2.433   3.181  25.441  0.00  0.00    +0.171 C 
ATOM     11  C   UNL     1      -4.637   4.038  25.115  0.00  0.00    +0.130 C 
ATOM     12  C   UNL     1      -1.096   3.860  25.255  0.00  0.00    +0.131 C 
ATOM     13  C   UNL     1      -4.204   4.232  26.556  0.00  0.00    +0.185 C 
ATOM     14  C   UNL     1      -1.498   5.243  24.776  0.00  0.00    +0.185 C 
ENDROOT
BRANCH  11   4
ATOM      4  N   UNL     1      -5.461   2.855  24.995  0.00  0.00    -0.306 N 
ATOM      6  N   UNL     1      -3.601   1.458  24.682  0.00  0.00    -0.219 NA
ATOM      7  N   UNL     1      -5.837   0.559  24.691  0.00  0.00    -0.223 NA
ATOM     20  C   UNL     1      -4.951   1.586  24.782  0.00  0.00    +0.216 A 
ATOM     21  C   UNL     1      -3.139   0.208  24.475  0.00  0.00    +0.049 A 
ATOM     23  C   UNL     1      -3.951  -0.902  24.368  0.00  0.00    +0.043 A 
ATOM     24  C   UNL     1      -5.306  -0.665  24.484  0.00  0.00    +0.116 A 
ATOM     31  H   UNL     1      -6.463   2.930  25.121  0.00  0.00    +0.149 HD
BRANCH  21  15
ATOM     15  C   UNL     1      -1.633   0.047  24.360  0.00  0.00    +0.038 C 
ATOM     16  C   UNL     1      -0.974  -0.157  25.729  0.00  0.00    +0.010 C 
ATOM     17  C   UNL     1      -1.120  -1.162  23.566  0.00  0.00    +0.010 C 
ATOM     18  C   UNL     1      -1.048  -1.660  25.962  0.00  0.00    +0.001 C 
ATOM     19  C   UNL     1      -0.896  -2.287  24.580  0.00  0.00    +0.001 C 
ENDBRANCH  21  15
ENDBRANCH  11   4
BRANCH  12   5
ATOM      3  O   UNL     1       1.103   2.095  25.759  0.00  0.00    -0.252 OA
ATOM      5  N   UNL     1      -0.295   3.177  24.269  0.00  0.00    -0.292 N 
ATOM      8  N   UNL     1       1.356   1.810  23.442  0.00  0.00    -0.269 N 
ATOM     22  C   UNL     1       0.768   2.327  24.599  0.00  0.00    +0.304 C 
ATOM     32  H   UNL     1      -0.555   3.265  23.291  0.00  0.00    +0.151 HD
ATOM     33  H   UNL     1       0.954   2.106  22.556  0.00  0.00    +0.156 HD
BRANCH   8  25
ATOM     25  C   UNL     1       2.450   0.918  23.348  0.00  0.00    +0.035 A 
ATOM     26  C   UNL     1       3.716   1.423  23.104  0.00  0.00    +0.023 A 
ATOM     27  C   UNL     1       2.233  -0.442  23.504  0.00  0.00    +0.023 A 
ATOM     28  C   UNL     1       4.796   0.545  23.012  0.00  0.00    +0.002 A 
ATOM     29  C   UNL     1       3.313  -1.319  23.411  0.00  0.00    +0.002 A 
ATOM     30  C   UNL     1       4.594  -0.826  23.166  0.00  0.00    +0.000 A 
ENDBRANCH   8  25
ENDBRANCH  12   5
TORSDOF 4
ENDMDL
