MODEL 1
REMARK VINA RESULT:      -2.4      0.000      0.000
REMARK  Name = 45783563
REMARK  8 active torsions:
REMARK  status: ('A' for Active; 'I' for Inactive)
REMARK    1  A    between atoms: O_3  and  C_24
REMARK    2  A    between atoms: O_3  and  C_25
REMARK    3  A    between atoms: O_4  and  C_26
REMARK    4  A    between atoms: O_4  and  C_27
REMARK    5  A    between atoms: N_5  and  C_9
REMARK    6  A    between atoms: C_10  and  C_18
REMARK    7  A    between atoms: C_19  and  C_20
REMARK    8  A    between atoms: C_25  and  C_26
REMARK                            x       y       z     vdW  Elec       q    Type
REMARK                         _______ _______ _______ _____ _____    ______ ____
ROOT
ATOM      2  O   UNL     1      -6.689 -10.051  16.098  0.00  0.00    -0.336 OA
ATOM      6  N   UNL     1      -6.639 -10.258  13.868  0.00  0.00    -0.190 NA
ATOM      7  N   UNL     1      -5.337 -10.043  15.738  0.00  0.00    -0.056 NA
ATOM     18  C   UNL     1      -7.387 -10.182  14.939  0.00  0.00    +0.245 A 
ATOM     19  C   UNL     1      -5.388 -10.169  14.408  0.00  0.00    +0.204 A 
ENDROOT
BRANCH  19  20
ATOM      8  N   UNL     1      -1.803 -10.387  13.442  0.00  0.00    -0.221 NA
ATOM     20  C   UNL     1      -4.211 -10.211  13.590  0.00  0.00    +0.041 A 
ATOM     21  C   UNL     1      -4.296 -10.117  12.205  0.00  0.00    +0.018 A 
ATOM     22  C   UNL     1      -2.952 -10.343  14.155  0.00  0.00    +0.126 A 
ATOM     23  C   UNL     1      -3.137 -10.160  11.438  0.00  0.00    +0.068 A 
ATOM     24  C   UNL     1      -1.926 -10.294  12.099  0.00  0.00    +0.215 A 
BRANCH  24   3
ATOM      3  O   UNL     1      -0.771 -10.337  11.365  0.00  0.00    -0.474 OA
BRANCH   3  25
ATOM     25  C   UNL     1      -0.334  -9.113  10.785  0.00  0.00    +0.258 C 
BRANCH  25  26
ATOM     26  C   UNL     1       0.015  -8.138  11.892  0.00  0.00    +0.200 C 
BRANCH  26   4
ATOM      4  O   UNL     1       1.347  -7.676  11.701  0.00  0.00    -0.380 OA
ATOM     27  C   UNL     1       1.592  -6.479  12.426  0.00  0.00    +0.194 C 
ENDBRANCH  26   4
ENDBRANCH  25  26
ENDBRANCH   3  25
ENDBRANCH  24   3
ENDBRANCH  19  20
BRANCH  18  10
ATOM      5  N   UNL     1      -9.387  -9.484  16.246  0.00  0.00    -0.288 NA
ATOM     10  C   UNL     1      -8.897 -10.216  15.061  0.00  0.00    +0.146 C 
ATOM     11  C   UNL     1     -10.719  -8.987  15.904  0.00  0.00    +0.085 C 
ATOM     12  C   UNL     1      -9.604  -9.546  13.869  0.00  0.00    +0.030 C 
ATOM     13  C   UNL     1     -10.515  -8.495  14.486  0.00  0.00    +0.017 C 
BRANCH   5   9
ATOM      1  O   UNL     1      -9.401 -10.432  20.337  0.00  0.00    -0.380 OA
ATOM      9  C   UNL     1      -9.398 -10.297  17.460  0.00  0.00    +0.062 C 
ATOM     14  C   UNL     1     -10.654 -10.024  18.294  0.00  0.00    +0.047 C 
ATOM     15  C   UNL     1      -8.145 -10.023  18.297  0.00  0.00    +0.047 C 
ATOM     16  C   UNL     1     -10.586 -10.777  19.617  0.00  0.00    +0.161 C 
ATOM     17  C   UNL     1      -8.216 -10.777  19.620  0.00  0.00    +0.161 C 
ENDBRANCH   5   9
ENDBRANCH  18  10
TORSDOF 7
ENDMDL
MODEL 2
REMARK VINA RESULT:      -1.8     13.640     15.114
REMARK  Name = 45783563
REMARK  8 active torsions:
REMARK  status: ('A' for Active; 'I' for Inactive)
REMARK    1  A    between atoms: O_3  and  C_24
REMARK    2  A    between atoms: O_3  and  C_25
REMARK    3  A    between atoms: O_4  and  C_26
REMARK    4  A    between atoms: O_4  and  C_27
REMARK    5  A    between atoms: N_5  and  C_9
REMARK    6  A    between atoms: C_10  and  C_18
REMARK    7  A    between atoms: C_19  and  C_20
REMARK    8  A    between atoms: C_25  and  C_26
REMARK                            x       y       z     vdW  Elec       q    Type
REMARK                         _______ _______ _______ _____ _____    ______ ____
ROOT
ATOM      2  O   UNL     1      -1.945   2.918  24.992  0.00  0.00    -0.336 OA
ATOM      6  N   UNL     1      -1.628   1.203  23.587  0.00  0.00    -0.190 NA
ATOM      7  N   UNL     1      -0.563   2.829  24.793  0.00  0.00    -0.056 NA
ATOM     18  C   UNL     1      -2.498   1.925  24.248  0.00  0.00    +0.245 A 
ATOM     19  C   UNL     1      -0.455   1.795  23.954  0.00  0.00    +0.204 A 
ENDROOT
BRANCH  19  20
ATOM      8  N   UNL     1       3.183   1.698  23.185  0.00  0.00    -0.221 NA
ATOM     20  C   UNL     1       0.810   1.327  23.464  0.00  0.00    +0.041 A 
ATOM     21  C   UNL     1       0.916   0.104  22.811  0.00  0.00    +0.018 A 
ATOM     22  C   UNL     1       1.962   2.080  23.624  0.00  0.00    +0.126 A 
ATOM     23  C   UNL     1       2.155  -0.324  22.346  0.00  0.00    +0.068 A 
ATOM     24  C   UNL     1       3.248   0.503  22.555  0.00  0.00    +0.215 A 
BRANCH  24   3
ATOM      3  O   UNL     1       4.479   0.104  22.106  0.00  0.00    -0.474 OA
BRANCH   3  25
ATOM     25  C   UNL     1       5.600   0.465  22.904  0.00  0.00    +0.258 C 
BRANCH  25  26
ATOM     26  C   UNL     1       5.334   0.063  24.342  0.00  0.00    +0.200 C 
BRANCH  26   4
ATOM      4  O   UNL     1       5.628  -1.321  24.497  0.00  0.00    -0.380 OA
ATOM     27  C   UNL     1       4.574  -2.136  24.002  0.00  0.00    +0.194 C 
ENDBRANCH  26   4
ENDBRANCH  25  26
ENDBRANCH   3  25
ENDBRANCH  24   3
ENDBRANCH  19  20
BRANCH  18  10
ATOM      5  N   UNL     1      -4.485   1.079  25.485  0.00  0.00    -0.288 NA
ATOM     10  C   UNL     1      -4.008   1.808  24.292  0.00  0.00    +0.146 C 
ATOM     11  C   UNL     1      -5.811   1.614  25.793  0.00  0.00    +0.085 C 
ATOM     12  C   UNL     1      -4.707   3.177  24.366  0.00  0.00    +0.030 C 
ATOM     13  C   UNL     1      -5.602   3.101  25.594  0.00  0.00    +0.017 C 
BRANCH   5   9
ATOM      1  O   UNL     1      -3.234  -2.747  24.288  0.00  0.00    -0.380 OA
ATOM      9  C   UNL     1      -4.506  -0.371  25.302  0.00  0.00    +0.062 C 
ATOM     14  C   UNL     1      -3.318  -1.032  26.009  0.00  0.00    +0.047 C 
ATOM     15  C   UNL     1      -4.489  -0.721  23.812  0.00  0.00    +0.047 C 
ATOM     16  C   UNL     1      -3.280  -2.524  25.698  0.00  0.00    +0.161 C 
ATOM     17  C   UNL     1      -4.386  -2.230  23.623  0.00  0.00    +0.161 C 
ENDBRANCH   5   9
ENDBRANCH  18  10
TORSDOF 7
ENDMDL
MODEL 3
REMARK VINA RESULT:       1.3     13.716     15.286
REMARK  Name = 45783563
REMARK  8 active torsions:
REMARK  status: ('A' for Active; 'I' for Inactive)
REMARK    1  A    between atoms: O_3  and  C_24
REMARK    2  A    between atoms: O_3  and  C_25
REMARK    3  A    between atoms: O_4  and  C_26
REMARK    4  A    between atoms: O_4  and  C_27
REMARK    5  A    between atoms: N_5  and  C_9
REMARK    6  A    between atoms: C_10  and  C_18
REMARK    7  A    between atoms: C_19  and  C_20
REMARK    8  A    between atoms: C_25  and  C_26
REMARK                            x       y       z     vdW  Elec       q    Type
REMARK                         _______ _______ _______ _____ _____    ______ ____
ROOT
ATOM      2  O   UNL     1      -1.667   1.567  25.536  0.00  0.00    -0.336 OA
ATOM      6  N   UNL     1      -1.001  -0.074  24.165  0.00  0.00    -0.190 NA
ATOM      7  N   UNL     1      -0.371   1.903  25.128  0.00  0.00    -0.056 NA
ATOM     18  C   UNL     1      -1.960   0.389  24.925  0.00  0.00    +0.245 A 
ATOM     19  C   UNL     1      -0.046   0.889  24.321  0.00  0.00    +0.204 A 
ENDROOT
BRANCH  19  20
ATOM      8  N   UNL     1       2.773  -0.476  22.315  0.00  0.00    -0.221 NA
ATOM     20  C   UNL     1       1.223   0.805  23.659  0.00  0.00    +0.041 A 
ATOM     21  C   UNL     1       2.124   1.864  23.701  0.00  0.00    +0.018 A 
ATOM     22  C   UNL     1       1.592  -0.333  22.959  0.00  0.00    +0.126 A 
ATOM     23  C   UNL     1       3.348   1.754  23.050  0.00  0.00    +0.068 A 
ATOM     24  C   UNL     1       3.623   0.573  22.378  0.00  0.00    +0.215 A 
BRANCH  24   3
ATOM      3  O   UNL     1       4.822   0.441  21.730  0.00  0.00    -0.474 OA
BRANCH   3  25
ATOM     25  C   UNL     1       5.861  -0.226  22.436  0.00  0.00    +0.258 C 
BRANCH  25  26
ATOM     26  C   UNL     1       5.900   0.288  23.862  0.00  0.00    +0.200 C 
BRANCH  26   4
ATOM      4  O   UNL     1       5.403  -0.722  24.733  0.00  0.00    -0.380 OA
ATOM     27  C   UNL     1       5.009  -1.882  24.013  0.00  0.00    +0.194 C 
ENDBRANCH  26   4
ENDBRANCH  25  26
ENDBRANCH   3  25
ENDBRANCH  24   3
ENDBRANCH  19  20
BRANCH  18  10
ATOM      5  N   UNL     1      -4.307   0.111  24.146  0.00  0.00    -0.288 NA
ATOM     10  C   UNL     1      -3.329  -0.196  25.208  0.00  0.00    +0.146 C 
ATOM     11  C   UNL     1      -5.264  -0.995  24.134  0.00  0.00    +0.085 C 
ATOM     12  C   UNL     1      -3.312  -1.733  25.292  0.00  0.00    +0.030 C 
ATOM     13  C   UNL     1      -4.355  -2.197  24.287  0.00  0.00    +0.017 C 
BRANCH   5   9
ATOM      1  O   UNL     1      -5.101   3.931  25.698  0.00  0.00    -0.380 OA
ATOM      9  C   UNL     1      -4.964   1.404  24.324  0.00  0.00    +0.062 C 
ATOM     14  C   UNL     1      -4.002   2.557  24.021  0.00  0.00    +0.047 C 
ATOM     15  C   UNL     1      -5.504   1.535  25.751  0.00  0.00    +0.047 C 
ATOM     16  C   UNL     1      -4.660   3.894  24.340  0.00  0.00    +0.161 C 
ATOM     17  C   UNL     1      -6.079   2.929  25.974  0.00  0.00    +0.161 C 
ENDBRANCH   5   9
ENDBRANCH  18  10
TORSDOF 7
ENDMDL
