MODEL 1
REMARK VINA RESULT:       3.2      0.000      0.000
REMARK  Name = 7164959
REMARK  9 active torsions:
REMARK  status: ('A' for Active; 'I' for Inactive)
REMARK    1  A    between atoms: N_6  and  C_18
REMARK    2  A    between atoms: N_10  and  C_28
REMARK    3  A    between atoms: C_11  and  C_14
REMARK    4  A    between atoms: C_14  and  C_18
REMARK    5  A    between atoms: C_18  and  C_24
REMARK    6  A    between atoms: C_19  and  C_21
REMARK    7  A    between atoms: C_25  and  C_27
REMARK    8  A    between atoms: C_28  and  C_30
REMARK    9  A    between atoms: C_28  and  C_31
REMARK                            x       y       z     vdW  Elec       q    Type
REMARK                         _______ _______ _______ _____ _____    ______ ____
ROOT
ATOM      4  O   UNL     1       1.566  -1.541  22.550  0.00  0.00    -0.269 OA
ATOM      5  O   UNL     1      -3.342   3.115  24.156  0.00  0.00    -0.253 OA
ATOM      7  N   UNL     1       0.949   0.548  23.341  0.00  0.00    -0.283 N 
ATOM      8  N   UNL     1      -1.125   2.418  24.185  0.00  0.00    -0.282 N 
ATOM     10  N   UNL     1      -1.946   3.945  25.785  0.00  0.00    -0.297 N 
ATOM     19  C   UNL     1      -0.469   0.281  23.091  0.00  0.00    +0.179 C 
ATOM     20  C   UNL     1      -1.309   1.555  23.015  0.00  0.00    +0.141 C 
ATOM     22  C   UNL     1       1.292   1.881  23.857  0.00  0.00    +0.128 C 
ATOM     23  C   UNL     1       0.217   2.451  24.777  0.00  0.00    +0.128 C 
ATOM     25  C   UNL     1       1.898  -0.434  22.980  0.00  0.00    +0.254 C 
ATOM     26  C   UNL     1      -2.220   3.159  24.669  0.00  0.00    +0.303 C 
ATOM     37  H   UNL     1      -1.059   3.851  26.267  0.00  0.00    +0.150 HD
ENDROOT
BRANCH  25  27
ATOM      1  S   UNL     1       4.364  -1.255  23.838  0.00  0.00    -0.092 S 
ATOM     27  C   UNL     1       3.309  -0.098  23.143  0.00  0.00    +0.074 A 
ATOM     29  C   UNL     1       3.965   1.066  22.809  0.00  0.00    +0.021 A 
ATOM     32  C   UNL     1       5.353   1.007  23.127  0.00  0.00    +0.008 A 
ATOM     33  C   UNL     1       5.704  -0.199  23.693  0.00  0.00    +0.046 A 
ENDBRANCH  25  27
BRANCH  19  21
ATOM      2  O   UNL     1      -0.243  -0.954  25.125  0.00  0.00    -0.274 OA
ATOM      6  N   UNL     1      -2.286  -0.984  24.011  0.00  0.00    -0.302 N 
ATOM     21  C   UNL     1      -0.967  -0.609  24.195  0.00  0.00    +0.236 C 
ATOM     34  H   UNL     1      -2.772  -0.689  23.168  0.00  0.00    +0.150 HD
BRANCH   6  18
ATOM     18  C   UNL     1      -2.994  -1.857  24.920  0.00  0.00    +0.159 C 
BRANCH  18  24
ATOM      3  O   UNL     1      -4.903  -2.291  23.482  0.00  0.00    -0.274 OA
ATOM      9  N   UNL     1      -3.645  -4.073  24.200  0.00  0.00    -0.328 N 
ATOM     24  C   UNL     1      -3.946  -2.730  24.116  0.00  0.00    +0.231 C 
ATOM     35  H   UNL     1      -4.209  -4.764  23.717  0.00  0.00    +0.145 HD
ATOM     36  H   UNL     1      -2.864  -4.425  24.745  0.00  0.00    +0.145 HD
ENDBRANCH  18  24
BRANCH  18  14
ATOM     14  C   UNL     1      -3.700  -1.079  26.037  0.00  0.00    +0.035 C 
BRANCH  14  11
ATOM     11  C   UNL     1      -4.247   0.280  25.605  0.00  0.00    -0.009 C 
ATOM     12  C   UNL     1      -5.315   0.771  26.591  0.00  0.00    +0.003 C 
ATOM     13  C   UNL     1      -4.813   0.207  24.180  0.00  0.00    +0.003 C 
ATOM     15  C   UNL     1      -5.917   2.104  26.152  0.00  0.00    +0.000 C 
ATOM     16  C   UNL     1      -5.415   1.541  23.744  0.00  0.00    +0.000 C 
ATOM     17  C   UNL     1      -6.470   2.031  24.732  0.00  0.00    +0.000 C 
ENDBRANCH  14  11
ENDBRANCH  18  14
ENDBRANCH   6  18
ENDBRANCH  19  21
BRANCH  10  28
ATOM     28  C   UNL     1      -2.953   4.765  26.420  0.00  0.00    +0.068 C 
ATOM     30  C   UNL     1      -4.151   4.950  25.498  0.00  0.00    +0.027 C 
ATOM     31  C   UNL     1      -3.369   4.155  27.753  0.00  0.00    +0.027 C 
ENDBRANCH  10  28
TORSDOF 7
ENDMDL
MODEL 2
REMARK VINA RESULT:       3.4      2.306      6.385
REMARK  Name = 7164959
REMARK  9 active torsions:
REMARK  status: ('A' for Active; 'I' for Inactive)
REMARK    1  A    between atoms: N_6  and  C_18
REMARK    2  A    between atoms: N_10  and  C_28
REMARK    3  A    between atoms: C_11  and  C_14
REMARK    4  A    between atoms: C_14  and  C_18
REMARK    5  A    between atoms: C_18  and  C_24
REMARK    6  A    between atoms: C_19  and  C_21
REMARK    7  A    between atoms: C_25  and  C_27
REMARK    8  A    between atoms: C_28  and  C_30
REMARK    9  A    between atoms: C_28  and  C_31
REMARK                            x       y       z     vdW  Elec       q    Type
REMARK                         _______ _______ _______ _____ _____    ______ ____
ROOT
ATOM      4  O   UNL     1      -2.659   0.714  23.300  0.00  0.00    -0.269 OA
ATOM      5  O   UNL     1       4.170   0.613  21.995  0.00  0.00    -0.253 OA
ATOM      7  N   UNL     1      -0.589  -0.316  23.464  0.00  0.00    -0.283 N 
ATOM      8  N   UNL     1       2.302  -0.252  23.072  0.00  0.00    -0.282 N 
ATOM     10  N   UNL     1       4.470  -0.573  23.944  0.00  0.00    -0.297 N 
ATOM     19  C   UNL     1       0.052   0.730  22.662  0.00  0.00    +0.179 C 
ATOM     20  C   UNL     1       1.385   0.285  22.064  0.00  0.00    +0.141 C 
ATOM     22  C   UNL     1       0.262  -1.433  23.897  0.00  0.00    +0.128 C 
ATOM     23  C   UNL     1       1.698  -1.006  24.178  0.00  0.00    +0.128 C 
ATOM     25  C   UNL     1      -1.982  -0.244  23.682  0.00  0.00    +0.254 C 
ATOM     26  C   UNL     1       3.684  -0.026  22.934  0.00  0.00    +0.303 C 
ATOM     37  H   UNL     1       4.034  -0.966  24.769  0.00  0.00    +0.150 HD
ENDROOT
BRANCH  25  27
ATOM      1  S   UNL     1      -2.547  -1.383  26.106  0.00  0.00    -0.092 S 
ATOM     27  C   UNL     1      -2.610  -1.353  24.394  0.00  0.00    +0.074 A 
ATOM     29  C   UNL     1      -3.282  -2.440  23.881  0.00  0.00    +0.021 A 
ATOM     32  C   UNL     1      -3.753  -3.310  24.908  0.00  0.00    +0.008 A 
ATOM     33  C   UNL     1      -3.421  -2.855  26.164  0.00  0.00    +0.046 A 
ENDBRANCH  25  27
BRANCH  19  21
ATOM      2  O   UNL     1       1.354   2.436  23.713  0.00  0.00    -0.274 OA
ATOM      6  N   UNL     1      -0.932   2.340  24.141  0.00  0.00    -0.302 N 
ATOM     21  C   UNL     1       0.249   1.927  23.549  0.00  0.00    +0.236 C 
ATOM     34  H   UNL     1      -1.780   1.803  23.982  0.00  0.00    +0.150 HD
BRANCH   6  18
ATOM     18  C   UNL     1      -1.009   3.455  25.056  0.00  0.00    +0.159 C 
BRANCH  18  24
ATOM      3  O   UNL     1      -1.228   3.152  27.457  0.00  0.00    -0.274 OA
ATOM      9  N   UNL     1       0.677   2.389  26.426  0.00  0.00    -0.328 N 
ATOM     24  C   UNL     1      -0.565   2.988  26.435  0.00  0.00    +0.231 C 
ATOM     35  H   UNL     1       1.093   2.040  27.283  0.00  0.00    +0.145 HD
ATOM     36  H   UNL     1       1.224   2.278  25.579  0.00  0.00    +0.145 HD
ENDBRANCH  18  24
BRANCH  18  14
ATOM     14  C   UNL     1      -2.399   4.101  25.067  0.00  0.00    +0.035 C 
BRANCH  14  11
ATOM     11  C   UNL     1      -3.544   3.116  25.295  0.00  0.00    -0.009 C 
ATOM     12  C   UNL     1      -4.222   2.755  23.966  0.00  0.00    +0.003 C 
ATOM     13  C   UNL     1      -4.563   3.693  26.288  0.00  0.00    +0.003 C 
ATOM     15  C   UNL     1      -5.405   1.814  24.174  0.00  0.00    +0.000 C 
ATOM     16  C   UNL     1      -5.746   2.749  26.493  0.00  0.00    +0.000 C 
ATOM     17  C   UNL     1      -6.411   2.385  25.168  0.00  0.00    +0.000 C 
ENDBRANCH  14  11
ENDBRANCH  18  14
ENDBRANCH   6  18
ENDBRANCH  19  21
BRANCH  10  28
ATOM     28  C   UNL     1       5.909  -0.432  23.966  0.00  0.00    +0.068 C 
ATOM     30  C   UNL     1       6.516  -0.944  22.666  0.00  0.00    +0.027 C 
ATOM     31  C   UNL     1       6.295   1.019  24.224  0.00  0.00    +0.027 C 
ENDBRANCH  10  28
TORSDOF 7
ENDMDL
MODEL 3
REMARK VINA RESULT:       6.6      2.853      7.189
REMARK  Name = 7164959
REMARK  9 active torsions:
REMARK  status: ('A' for Active; 'I' for Inactive)
REMARK    1  A    between atoms: N_6  and  C_18
REMARK    2  A    between atoms: N_10  and  C_28
REMARK    3  A    between atoms: C_11  and  C_14
REMARK    4  A    between atoms: C_14  and  C_18
REMARK    5  A    between atoms: C_18  and  C_24
REMARK    6  A    between atoms: C_19  and  C_21
REMARK    7  A    between atoms: C_25  and  C_27
REMARK    8  A    between atoms: C_28  and  C_30
REMARK    9  A    between atoms: C_28  and  C_31
REMARK                            x       y       z     vdW  Elec       q    Type
REMARK                         _______ _______ _______ _____ _____    ______ ____
ROOT
ATOM      4  O   UNL     1      -3.230   0.933  23.608  0.00  0.00    -0.269 OA
ATOM      5  O   UNL     1       3.511   1.012  21.904  0.00  0.00    -0.253 OA
ATOM      7  N   UNL     1      -1.175  -0.128  23.456  0.00  0.00    -0.283 N 
ATOM      8  N   UNL     1       1.689  -0.020  22.912  0.00  0.00    -0.282 N 
ATOM     10  N   UNL     1       3.897  -0.517  23.580  0.00  0.00    -0.297 N 
ATOM     19  C   UNL     1      -0.559   1.041  22.824  0.00  0.00    +0.179 C 
ATOM     20  C   UNL     1       0.729   0.703  22.076  0.00  0.00    +0.141 C 
ATOM     22  C   UNL     1      -0.324  -1.315  23.624  0.00  0.00    +0.128 C 
ATOM     23  C   UNL     1       1.135  -0.961  23.893  0.00  0.00    +0.128 C 
ATOM     25  C   UNL     1      -2.552  -0.085  23.766  0.00  0.00    +0.254 C 
ATOM     26  C   UNL     1       3.066   0.214  22.736  0.00  0.00    +0.303 C 
ATOM     37  H   UNL     1       3.501  -1.053  24.343  0.00  0.00    +0.150 HD
ENDROOT
BRANCH  25  27
ATOM      1  S   UNL     1      -2.813  -1.769  25.908  0.00  0.00    -0.092 S 
ATOM     27  C   UNL     1      -3.161  -1.301  24.297  0.00  0.00    +0.074 A 
ATOM     29  C   UNL     1      -4.018  -2.182  23.676  0.00  0.00    +0.021 A 
ATOM     32  C   UNL     1      -4.395  -3.256  24.534  0.00  0.00    +0.008 A 
ATOM     33  C   UNL     1      -3.811  -3.155  25.777  0.00  0.00    +0.046 A 
ENDBRANCH  25  27
BRANCH  19  21
ATOM      2  O   UNL     1       0.541   2.946  23.760  0.00  0.00    -0.274 OA
ATOM      6  N   UNL     1      -1.054   1.828  25.035  0.00  0.00    -0.302 N 
ATOM     21  C   UNL     1      -0.288   2.052  23.903  0.00  0.00    +0.236 C 
ATOM     34  H   UNL     1      -1.665   1.016  25.066  0.00  0.00    +0.150 HD
BRANCH   6  18
ATOM     18  C   UNL     1      -0.966   2.645  26.223  0.00  0.00    +0.159 C 
BRANCH  18  24
ATOM      3  O   UNL     1      -2.488   4.271  27.194  0.00  0.00    -0.274 OA
ATOM      9  N   UNL     1      -2.652   3.822  24.947  0.00  0.00    -0.328 N 
ATOM     24  C   UNL     1      -2.094   3.667  26.198  0.00  0.00    +0.231 C 
ATOM     35  H   UNL     1      -3.420   4.468  24.797  0.00  0.00    +0.145 HD
ATOM     36  H   UNL     1      -2.331   3.301  24.137  0.00  0.00    +0.145 HD
ENDBRANCH  18  24
BRANCH  18  14
ATOM     14  C   UNL     1       0.416   3.290  26.381  0.00  0.00    +0.035 C 
BRANCH  14  11
ATOM     11  C   UNL     1       0.942   3.300  27.815  0.00  0.00    -0.009 C 
ATOM     12  C   UNL     1       2.445   2.991  27.843  0.00  0.00    +0.003 C 
ATOM     13  C   UNL     1       0.163   2.303  28.684  0.00  0.00    +0.003 C 
ATOM     15  C   UNL     1       2.983   2.942  29.271  0.00  0.00    +0.000 C 
ATOM     16  C   UNL     1       0.705   2.256  30.111  0.00  0.00    +0.000 C 
ATOM     17  C   UNL     1       2.201   1.957  30.134  0.00  0.00    +0.000 C 
ENDBRANCH  14  11
ENDBRANCH  18  14
ENDBRANCH   6  18
ENDBRANCH  19  21
BRANCH  10  28
ATOM     28  C   UNL     1       5.337  -0.397  23.542  0.00  0.00    +0.068 C 
ATOM     30  C   UNL     1       5.763   1.028  23.869  0.00  0.00    +0.027 C 
ATOM     31  C   UNL     1       5.977  -1.399  24.496  0.00  0.00    +0.027 C 
ENDBRANCH  10  28
TORSDOF 7
ENDMDL
MODEL 4
REMARK VINA RESULT:       7.0      1.803      4.992
REMARK  Name = 7164959
REMARK  9 active torsions:
REMARK  status: ('A' for Active; 'I' for Inactive)
REMARK    1  A    between atoms: N_6  and  C_18
REMARK    2  A    between atoms: N_10  and  C_28
REMARK    3  A    between atoms: C_11  and  C_14
REMARK    4  A    between atoms: C_14  and  C_18
REMARK    5  A    between atoms: C_18  and  C_24
REMARK    6  A    between atoms: C_19  and  C_21
REMARK    7  A    between atoms: C_25  and  C_27
REMARK    8  A    between atoms: C_28  and  C_30
REMARK    9  A    between atoms: C_28  and  C_31
REMARK                            x       y       z     vdW  Elec       q    Type
REMARK                         _______ _______ _______ _____ _____    ______ ____
ROOT
ATOM      4  O   UNL     1       1.956   2.496  24.511  0.00  0.00    -0.269 OA
ATOM      5  O   UNL     1      -3.513  -1.524  26.021  0.00  0.00    -0.253 OA
ATOM      7  N   UNL     1       0.795   0.502  24.290  0.00  0.00    -0.283 N 
ATOM      8  N   UNL     1      -1.594  -1.098  24.783  0.00  0.00    -0.282 N 
ATOM     10  N   UNL     1      -3.296  -2.504  23.951  0.00  0.00    -0.297 N 
ATOM     19  C   UNL     1      -0.235   0.936  25.237  0.00  0.00    +0.179 C 
ATOM     20  C   UNL     1      -1.034  -0.228  25.819  0.00  0.00    +0.141 C 
ATOM     22  C   UNL     1       0.667  -0.859  23.749  0.00  0.00    +0.128 C 
ATOM     23  C   UNL     1      -0.785  -1.288  23.573  0.00  0.00    +0.128 C 
ATOM     25  C   UNL     1       1.888   1.360  24.036  0.00  0.00    +0.254 C 
ATOM     26  C   UNL     1      -2.849  -1.699  24.995  0.00  0.00    +0.303 C 
ATOM     37  H   UNL     1      -2.798  -2.514  23.069  0.00  0.00    +0.150 HD
ENDROOT
BRANCH  25  27
ATOM      1  S   UNL     1       4.506   0.587  23.834  0.00  0.00    -0.092 S 
ATOM     27  C   UNL     1       2.951   0.859  23.171  0.00  0.00    +0.074 A 
ATOM     29  C   UNL     1       2.900   0.551  21.829  0.00  0.00    +0.021 A 
ATOM     32  C   UNL     1       4.155   0.086  21.340  0.00  0.00    +0.008 A 
ATOM     33  C   UNL     1       5.116   0.057  22.325  0.00  0.00    +0.046 A 
ENDBRANCH  25  27
BRANCH  19  21
ATOM      2  O   UNL     1      -1.593   1.635  23.399  0.00  0.00    -0.274 OA
ATOM      6  N   UNL     1      -1.380   3.043  25.240  0.00  0.00    -0.302 N 
ATOM     21  C   UNL     1      -1.146   1.887  24.514  0.00  0.00    +0.236 C 
ATOM     34  H   UNL     1      -0.904   3.174  26.129  0.00  0.00    +0.150 HD
BRANCH   6  18
ATOM     18  C   UNL     1      -2.204   4.126  24.756  0.00  0.00    +0.159 C 
BRANCH  18  24
ATOM      3  O   UNL     1      -1.825   6.504  25.081  0.00  0.00    -0.274 OA
ATOM      9  N   UNL     1      -0.085   5.211  24.323  0.00  0.00    -0.328 N 
ATOM     24  C   UNL     1      -1.379   5.406  24.757  0.00  0.00    +0.231 C 
ATOM     35  H   UNL     1       0.567   5.986  24.268  0.00  0.00    +0.145 HD
ATOM     36  H   UNL     1       0.265   4.302  24.038  0.00  0.00    +0.145 HD
ENDBRANCH  18  24
BRANCH  18  14
ATOM     14  C   UNL     1      -3.508   4.261  25.550  0.00  0.00    +0.035 C 
BRANCH  14  11
ATOM     11  C   UNL     1      -4.315   2.968  25.653  0.00  0.00    -0.009 C 
ATOM     12  C   UNL     1      -4.451   2.304  24.275  0.00  0.00    +0.003 C 
ATOM     13  C   UNL     1      -5.695   3.238  26.267  0.00  0.00    +0.003 C 
ATOM     15  C   UNL     1      -5.300   1.037  24.343  0.00  0.00    +0.000 C 
ATOM     16  C   UNL     1      -6.542   1.969  26.331  0.00  0.00    +0.000 C 
ATOM     17  C   UNL     1      -6.667   1.307  24.962  0.00  0.00    +0.000 C 
ENDBRANCH  14  11
ENDBRANCH  18  14
ENDBRANCH   6  18
ENDBRANCH  19  21
BRANCH  10  28
ATOM     28  C   UNL     1      -4.566  -3.193  23.995  0.00  0.00    +0.068 C 
ATOM     30  C   UNL     1      -5.699  -2.251  23.607  0.00  0.00    +0.027 C 
ATOM     31  C   UNL     1      -4.534  -4.421  23.092  0.00  0.00    +0.027 C 
ENDBRANCH  10  28
TORSDOF 7
ENDMDL
