MODEL 1
REMARK VINA RESULT:      -1.4      0.000      0.000
REMARK  Name = 45361202
REMARK  7 active torsions:
REMARK  status: ('A' for Active; 'I' for Inactive)
REMARK    1  A    between atoms: O_3  and  C_27
REMARK    2  A    between atoms: N_4  and  C_19
REMARK    3  A    between atoms: N_5  and  C_18
REMARK    4  A    between atoms: C_13  and  C_17
REMARK    5  A    between atoms: C_17  and  C_20
REMARK    6  A    between atoms: C_18  and  C_21
REMARK    7  A    between atoms: C_20  and  C_22
REMARK                            x       y       z     vdW  Elec       q    Type
REMARK                         _______ _______ _______ _____ _____    ______ ____
ROOT
ATOM      1  O   UNL     1      -3.751  -7.958  10.420  0.00  0.00    -0.274 OA
ATOM      4  N   UNL     1      -6.054 -10.319  12.448  0.00  0.00    -0.296 NA
ATOM      5  N   UNL     1      -2.469  -9.765  11.963  0.00  0.00    -0.283 NA
ATOM      6  N   UNL     1      -5.428  -9.382   9.792  0.00  0.00    -0.312 N 
ATOM     10  C   UNL     1      -4.636 -10.746  12.444  0.00  0.00    +0.084 C 
ATOM     11  C   UNL     1      -3.708 -10.224  11.309  0.00  0.00    +0.161 C 
ATOM     12  C   UNL     1      -3.857 -10.337  13.708  0.00  0.00    +0.036 C 
ATOM     13  C   UNL     1      -6.840 -10.781  11.270  0.00  0.00    +0.074 C 
ATOM     14  C   UNL     1      -2.410 -10.412  13.269  0.00  0.00    +0.087 C 
ATOM     15  C   UNL     1      -6.115 -10.652   9.915  0.00  0.00    +0.123 C 
ATOM     16  C   UNL     1      -4.277  -9.067  10.489  0.00  0.00    +0.232 C 
ATOM     19  C   UNL     1      -6.719 -10.727  13.697  0.00  0.00    +0.105 C 
ATOM     30  H   UNL     1      -5.812  -8.681   9.166  0.00  0.00    +0.149 HD
ENDROOT
BRANCH  13  17
ATOM     17  C   UNL     1      -8.165  -9.998  11.164  0.00  0.00    +0.029 C 
BRANCH  17  20
ATOM     20  C   UNL     1      -9.256 -10.613  12.018  0.00  0.00    +0.097 C 
BRANCH  20  22
ATOM      2  O   UNL     1     -10.552  -8.638  12.203  0.00  0.00    -0.276 OA
ATOM      7  N   UNL     1      -9.987  -9.697  14.193  0.00  0.00    -0.301 N 
ATOM     22  C   UNL     1      -9.992  -9.558  12.806  0.00  0.00    +0.216 C 
ATOM     23  C   UNL     1      -9.330 -10.781  14.935  0.00  0.00    +0.110 C 
ATOM     24  C   UNL     1     -10.719  -8.739  15.024  0.00  0.00    +0.110 C 
ATOM     25  C   UNL     1      -8.397 -10.217  16.003  0.00  0.00    +0.050 C 
ATOM     26  C   UNL     1      -9.810  -8.138  16.090  0.00  0.00    +0.050 C 
ATOM     27  C   UNL     1      -9.126  -9.230  16.914  0.00  0.00    +0.118 C 
BRANCH  27   3
ATOM      3  O   UNL     1      -8.184  -8.645  17.805  0.00  0.00    -0.392 OA
ATOM     32  H   UNL     1      -8.670  -8.351  18.593  0.00  0.00    +0.210 HD
ENDBRANCH  27   3
ENDBRANCH  20  22
ENDBRANCH  17  20
ENDBRANCH  13  17
BRANCH   5  18
ATOM     18  C   UNL     1      -1.271 -10.016  11.173  0.00  0.00    +0.159 C 
BRANCH  18  21
ATOM      8  N   UNL     1      -0.272  -8.150  12.514  0.00  0.00    -0.347 N 
ATOM      9  N   UNL     1       0.892  -8.792  10.735  0.00  0.00    -0.239 NA
ATOM     21  C   UNL     1      -0.196  -8.996  11.444  0.00  0.00    +0.121 A 
ATOM     28  C   UNL     1       0.840  -7.355  12.488  0.00  0.00    +0.104 A 
ATOM     29  C   UNL     1       1.542  -7.769  11.380  0.00  0.00    +0.130 A 
ATOM     31  H   UNL     1      -1.013  -8.118  13.203  0.00  0.00    +0.167 HD
ENDBRANCH  18  21
ENDBRANCH   5  18
TORSDOF 6
ENDMDL
MODEL 2
REMARK VINA RESULT:      -1.4     14.892     16.605
REMARK  Name = 45361202
REMARK  7 active torsions:
REMARK  status: ('A' for Active; 'I' for Inactive)
REMARK    1  A    between atoms: O_3  and  C_27
REMARK    2  A    between atoms: N_4  and  C_19
REMARK    3  A    between atoms: N_5  and  C_18
REMARK    4  A    between atoms: C_13  and  C_17
REMARK    5  A    between atoms: C_17  and  C_20
REMARK    6  A    between atoms: C_18  and  C_21
REMARK    7  A    between atoms: C_20  and  C_22
REMARK                            x       y       z     vdW  Elec       q    Type
REMARK                         _______ _______ _______ _____ _____    ______ ____
ROOT
ATOM      1  O   UNL     1      -0.708   2.041  23.608  0.00  0.00    -0.274 OA
ATOM      4  N   UNL     1      -2.769  -0.903  25.049  0.00  0.00    -0.296 NA
ATOM      5  N   UNL     1       0.595  -0.321  23.730  0.00  0.00    -0.283 NA
ATOM      6  N   UNL     1      -2.718   1.132  23.004  0.00  0.00    -0.312 N 
ATOM     10  C   UNL     1      -1.504  -1.332  24.410  0.00  0.00    +0.084 C 
ATOM     11  C   UNL     1      -0.835  -0.378  23.377  0.00  0.00    +0.161 C 
ATOM     12  C   UNL     1      -0.355  -1.583  25.404  0.00  0.00    +0.036 C 
ATOM     13  C   UNL     1      -3.910  -0.738  24.107  0.00  0.00    +0.074 C 
ATOM     14  C   UNL     1       0.885  -1.500  24.539  0.00  0.00    +0.087 C 
ATOM     15  C   UNL     1      -3.564  -0.025  22.785  0.00  0.00    +0.123 C 
ATOM     16  C   UNL     1      -1.386   1.046  23.361  0.00  0.00    +0.232 C 
ATOM     19  C   UNL     1      -3.137  -1.816  26.144  0.00  0.00    +0.105 C 
ATOM     30  H   UNL     1      -3.124   2.057  22.898  0.00  0.00    +0.149 HD
ENDROOT
BRANCH  13  17
ATOM     17  C   UNL     1      -5.053   0.054  24.776  0.00  0.00    +0.029 C 
BRANCH  17  20
ATOM     20  C   UNL     1      -4.529   1.098  25.742  0.00  0.00    +0.097 C 
BRANCH  20  22
ATOM      2  O   UNL     1      -5.722   2.721  24.496  0.00  0.00    -0.276 OA
ATOM      7  N   UNL     1      -3.791   3.449  25.564  0.00  0.00    -0.301 N 
ATOM     22  C   UNL     1      -4.741   2.492  25.209  0.00  0.00    +0.216 C 
ATOM     23  C   UNL     1      -2.616   3.205  26.411  0.00  0.00    +0.110 C 
ATOM     24  C   UNL     1      -3.954   4.836  25.123  0.00  0.00    +0.110 C 
ATOM     25  C   UNL     1      -1.341   3.669  25.712  0.00  0.00    +0.050 C 
ATOM     26  C   UNL     1      -2.704   5.327  24.401  0.00  0.00    +0.050 C 
ATOM     27  C   UNL     1      -1.454   5.124  25.258  0.00  0.00    +0.118 C 
BRANCH  27   3
ATOM      3  O   UNL     1      -0.294   5.463  24.507  0.00  0.00    -0.392 OA
ATOM     32  H   UNL     1      -0.311   4.938  23.690  0.00  0.00    +0.210 HD
ENDBRANCH  27   3
ENDBRANCH  20  22
ENDBRANCH  17  20
ENDBRANCH  13  17
BRANCH   5  18
ATOM     18  C   UNL     1       1.473  -0.223  22.572  0.00  0.00    +0.159 C 
BRANCH  18  21
ATOM      8  N   UNL     1       3.664  -1.100  23.412  0.00  0.00    -0.347 N 
ATOM      9  N   UNL     1       3.605   1.073  22.956  0.00  0.00    -0.239 NA
ATOM     21  C   UNL     1       2.914  -0.046  22.972  0.00  0.00    +0.121 A 
ATOM     28  C   UNL     1       4.914  -0.623  23.695  0.00  0.00    +0.104 A 
ATOM     29  C   UNL     1       4.852   0.720  23.406  0.00  0.00    +0.130 A 
ATOM     31  H   UNL     1       3.354  -2.058  23.510  0.00  0.00    +0.167 HD
ENDBRANCH  18  21
ENDBRANCH   5  18
TORSDOF 6
ENDMDL
MODEL 3
REMARK VINA RESULT:       0.0     15.472     16.827
REMARK  Name = 45361202
REMARK  7 active torsions:
REMARK  status: ('A' for Active; 'I' for Inactive)
REMARK    1  A    between atoms: O_3  and  C_27
REMARK    2  A    between atoms: N_4  and  C_19
REMARK    3  A    between atoms: N_5  and  C_18
REMARK    4  A    between atoms: C_13  and  C_17
REMARK    5  A    between atoms: C_17  and  C_20
REMARK    6  A    between atoms: C_18  and  C_21
REMARK    7  A    between atoms: C_20  and  C_22
REMARK                            x       y       z     vdW  Elec       q    Type
REMARK                         _______ _______ _______ _____ _____    ______ ____
ROOT
ATOM      1  O   UNL     1       0.285   2.065  23.936  0.00  0.00    -0.274 OA
ATOM      4  N   UNL     1      -2.670  -0.160  25.080  0.00  0.00    -0.296 NA
ATOM      5  N   UNL     1       0.704  -0.594  23.729  0.00  0.00    -0.283 NA
ATOM      6  N   UNL     1      -1.909   1.975  23.295  0.00  0.00    -0.312 N 
ATOM     10  C   UNL     1      -1.621  -0.910  24.352  0.00  0.00    +0.084 C 
ATOM     11  C   UNL     1      -0.657  -0.119  23.419  0.00  0.00    +0.161 C 
ATOM     12  C   UNL     1      -0.636  -1.657  25.269  0.00  0.00    +0.036 C 
ATOM     13  C   UNL     1      -3.678   0.498  24.204  0.00  0.00    +0.074 C 
ATOM     14  C   UNL     1       0.566  -1.893  24.379  0.00  0.00    +0.087 C 
ATOM     15  C   UNL     1      -3.096   1.211  22.967  0.00  0.00    +0.123 C 
ATOM     16  C   UNL     1      -0.689   1.398  23.594  0.00  0.00    +0.232 C 
ATOM     19  C   UNL     1      -3.338  -1.023  26.069  0.00  0.00    +0.105 C 
ATOM     30  H   UNL     1      -1.974   2.988  23.315  0.00  0.00    +0.149 HD
ENDROOT
BRANCH  13  17
ATOM     17  C   UNL     1      -4.488   1.541  25.001  0.00  0.00    +0.029 C 
BRANCH  17  20
ATOM     20  C   UNL     1      -5.025   2.644  24.111  0.00  0.00    +0.097 C 
BRANCH  20  22
ATOM      2  O   UNL     1      -4.060   4.491  22.982  0.00  0.00    -0.276 OA
ATOM      7  N   UNL     1      -3.145   3.945  25.047  0.00  0.00    -0.301 N 
ATOM     22  C   UNL     1      -4.038   3.778  23.990  0.00  0.00    +0.216 C 
ATOM     23  C   UNL     1      -3.096   3.113  26.257  0.00  0.00    +0.110 C 
ATOM     24  C   UNL     1      -2.187   5.053  25.024  0.00  0.00    +0.110 C 
ATOM     25  C   UNL     1      -1.687   2.572  26.484  0.00  0.00    +0.050 C 
ATOM     26  C   UNL     1      -0.764   4.546  25.227  0.00  0.00    +0.050 C 
ATOM     27  C   UNL     1      -0.654   3.698  26.496  0.00  0.00    +0.118 C 
BRANCH  27   3
ATOM      3  O   UNL     1       0.646   3.128  26.585  0.00  0.00    -0.392 OA
ATOM     32  H   UNL     1       1.096   3.293  25.740  0.00  0.00    +0.210 HD
ENDBRANCH  27   3
ENDBRANCH  20  22
ENDBRANCH  17  20
ENDBRANCH  13  17
BRANCH   5  18
ATOM     18  C   UNL     1       1.574  -0.656  22.561  0.00  0.00    +0.159 C 
BRANCH  18  21
ATOM      8  N   UNL     1       3.832  -1.148  23.529  0.00  0.00    -0.347 N 
ATOM      9  N   UNL     1       3.579   0.874  22.646  0.00  0.00    -0.239 NA
ATOM     21  C   UNL     1       2.991  -0.275  22.897  0.00  0.00    +0.121 A 
ATOM     28  C   UNL     1       5.033  -0.515  23.691  0.00  0.00    +0.104 A 
ATOM     29  C   UNL     1       4.851   0.731  23.139  0.00  0.00    +0.130 A 
ATOM     31  H   UNL     1       3.609  -2.091  23.822  0.00  0.00    +0.167 HD
ENDBRANCH  18  21
ENDBRANCH   5  18
TORSDOF 6
ENDMDL
MODEL 4
REMARK VINA RESULT:       1.8     15.134     17.019
REMARK  Name = 45361202
REMARK  7 active torsions:
REMARK  status: ('A' for Active; 'I' for Inactive)
REMARK    1  A    between atoms: O_3  and  C_27
REMARK    2  A    between atoms: N_4  and  C_19
REMARK    3  A    between atoms: N_5  and  C_18
REMARK    4  A    between atoms: C_13  and  C_17
REMARK    5  A    between atoms: C_17  and  C_20
REMARK    6  A    between atoms: C_18  and  C_21
REMARK    7  A    between atoms: C_20  and  C_22
REMARK                            x       y       z     vdW  Elec       q    Type
REMARK                         _______ _______ _______ _____ _____    ______ ____
ROOT
ATOM      1  O   UNL     1      -0.810   2.136  23.386  0.00  0.00    -0.274 OA
ATOM      4  N   UNL     1      -3.919   0.689  25.184  0.00  0.00    -0.296 NA
ATOM      5  N   UNL     1      -0.615  -0.459  24.107  0.00  0.00    -0.283 NA
ATOM      6  N   UNL     1      -3.015   2.013  22.786  0.00  0.00    -0.312 N 
ATOM     10  C   UNL     1      -2.947  -0.348  24.771  0.00  0.00    +0.084 C 
ATOM     11  C   UNL     1      -1.937  -0.007  23.636  0.00  0.00    +0.161 C 
ATOM     12  C   UNL     1      -2.012  -0.816  25.901  0.00  0.00    +0.036 C 
ATOM     13  C   UNL     1      -4.884   1.088  24.122  0.00  0.00    +0.074 C 
ATOM     14  C   UNL     1      -0.848  -1.440  25.161  0.00  0.00    +0.087 C 
ATOM     15  C   UNL     1      -4.265   1.283  22.724  0.00  0.00    +0.123 C 
ATOM     16  C   UNL     1      -1.841   1.475  23.280  0.00  0.00    +0.232 C 
ATOM     19  C   UNL     1      -4.640   0.275  26.400  0.00  0.00    +0.105 C 
ATOM     30  H   UNL     1      -2.996   2.974  22.456  0.00  0.00    +0.149 HD
ENDROOT
BRANCH  13  17
ATOM     17  C   UNL     1      -5.593   2.404  24.503  0.00  0.00    +0.029 C 
BRANCH  17  20
ATOM     20  C   UNL     1      -4.862   3.142  25.608  0.00  0.00    +0.097 C 
BRANCH  20  22
ATOM      2  O   UNL     1      -4.055   4.726  24.042  0.00  0.00    -0.276 OA
ATOM      7  N   UNL     1      -2.577   4.076  25.713  0.00  0.00    -0.301 N 
ATOM     22  C   UNL     1      -3.801   4.055  25.046  0.00  0.00    +0.216 C 
ATOM     23  C   UNL     1      -2.248   3.289  26.909  0.00  0.00    +0.110 C 
ATOM     24  C   UNL     1      -1.513   4.972  25.255  0.00  0.00    +0.110 C 
ATOM     25  C   UNL     1      -0.967   2.488  26.693  0.00  0.00    +0.050 C 
ATOM     26  C   UNL     1      -0.221   4.200  25.008  0.00  0.00    +0.050 C 
ATOM     27  C   UNL     1       0.182   3.388  26.240  0.00  0.00    +0.118 C 
BRANCH  27   3
ATOM      3  O   UNL     1       1.309   2.575  25.935  0.00  0.00    -0.392 OA
ATOM     32  H   UNL     1       2.103   3.059  26.217  0.00  0.00    +0.210 HD
ENDBRANCH  27   3
ENDBRANCH  20  22
ENDBRANCH  17  20
ENDBRANCH  13  17
BRANCH   5  18
ATOM     18  C   UNL     1       0.228  -0.988  23.044  0.00  0.00    +0.159 C 
BRANCH  18  21
ATOM      8  N   UNL     1       1.666   1.003  23.538  0.00  0.00    -0.347 N 
ATOM      9  N   UNL     1       2.470  -0.419  22.034  0.00  0.00    -0.239 NA
ATOM     21  C   UNL     1       1.470  -0.158  22.846  0.00  0.00    +0.121 A 
ATOM     28  C   UNL     1       2.870   1.518  23.143  0.00  0.00    +0.104 A 
ATOM     29  C   UNL     1       3.346   0.622  22.213  0.00  0.00    +0.130 A 
ATOM     31  H   UNL     1       1.039   1.409  24.221  0.00  0.00    +0.167 HD
ENDBRANCH  18  21
ENDBRANCH   5  18
TORSDOF 6
ENDMDL
MODEL 5
REMARK VINA RESULT:       1.9     14.748     17.675
REMARK  Name = 45361202
REMARK  7 active torsions:
REMARK  status: ('A' for Active; 'I' for Inactive)
REMARK    1  A    between atoms: O_3  and  C_27
REMARK    2  A    between atoms: N_4  and  C_19
REMARK    3  A    between atoms: N_5  and  C_18
REMARK    4  A    between atoms: C_13  and  C_17
REMARK    5  A    between atoms: C_17  and  C_20
REMARK    6  A    between atoms: C_18  and  C_21
REMARK    7  A    between atoms: C_20  and  C_22
REMARK                            x       y       z     vdW  Elec       q    Type
REMARK                         _______ _______ _______ _____ _____    ______ ____
ROOT
ATOM      1  O   UNL     1      -2.225   2.156  22.996  0.00  0.00    -0.274 OA
ATOM      4  N   UNL     1      -2.154  -1.345  24.648  0.00  0.00    -0.296 NA
ATOM      5  N   UNL     1      -4.525   1.405  24.195  0.00  0.00    -0.283 NA
ATOM      6  N   UNL     1      -0.860   1.233  24.583  0.00  0.00    -0.312 N 
ATOM     10  C   UNL     1      -3.343  -0.546  25.022  0.00  0.00    +0.084 C 
ATOM     11  C   UNL     1      -3.275   1.001  24.864  0.00  0.00    +0.161 C 
ATOM     12  C   UNL     1      -4.609  -0.895  24.218  0.00  0.00    +0.036 C 
ATOM     13  C   UNL     1      -0.945  -1.076  25.475  0.00  0.00    +0.074 C 
ATOM     14  C   UNL     1      -5.487   0.327  24.395  0.00  0.00    +0.087 C 
ATOM     15  C   UNL     1      -0.674   0.413  25.764  0.00  0.00    +0.123 C 
ATOM     16  C   UNL     1      -2.098   1.516  24.038  0.00  0.00    +0.232 C 
ATOM     19  C   UNL     1      -2.468  -2.784  24.654  0.00  0.00    +0.105 C 
ATOM     30  H   UNL     1      -0.039   1.616  24.123  0.00  0.00    +0.149 HD
ENDROOT
BRANCH  13  17
ATOM     17  C   UNL     1       0.314  -1.653  24.794  0.00  0.00    +0.029 C 
BRANCH  17  20
ATOM     20  C   UNL     1       0.253  -1.522  23.285  0.00  0.00    +0.097 C 
BRANCH  20  22
ATOM      2  O   UNL     1       0.371   0.488  22.037  0.00  0.00    -0.276 OA
ATOM      7  N   UNL     1       2.240  -0.055  23.306  0.00  0.00    -0.301 N 
ATOM     22  C   UNL     1       0.953  -0.272  22.817  0.00  0.00    +0.216 C 
ATOM     23  C   UNL     1       2.956  -0.941  24.234  0.00  0.00    +0.110 C 
ATOM     24  C   UNL     1       2.967   1.161  22.933  0.00  0.00    +0.110 C 
ATOM     25  C   UNL     1       4.325  -1.317  23.674  0.00  0.00    +0.050 C 
ATOM     26  C   UNL     1       4.334   0.821  22.349  0.00  0.00    +0.050 C 
ATOM     27  C   UNL     1       5.133  -0.076  23.297  0.00  0.00    +0.118 C 
BRANCH  27   3
ATOM      3  O   UNL     1       6.341  -0.487  22.668  0.00  0.00    -0.392 OA
ATOM     32  H   UNL     1       6.105  -0.894  21.818  0.00  0.00    +0.210 HD
ENDBRANCH  27   3
ENDBRANCH  20  22
ENDBRANCH  17  20
ENDBRANCH  13  17
BRANCH   5  18
ATOM     18  C   UNL     1      -5.039   2.689  24.656  0.00  0.00    +0.159 C 
BRANCH  18  21
ATOM      8  N   UNL     1      -3.183   4.358  24.447  0.00  0.00    -0.347 N 
ATOM      9  N   UNL     1      -3.613   3.645  26.505  0.00  0.00    -0.239 NA
ATOM     21  C   UNL     1      -3.951   3.552  25.239  0.00  0.00    +0.121 A 
ATOM     28  C   UNL     1      -2.296   5.007  25.261  0.00  0.00    +0.104 A 
ATOM     29  C   UNL     1      -2.581   4.550  26.526  0.00  0.00    +0.130 A 
ATOM     31  H   UNL     1      -3.255   4.459  23.442  0.00  0.00    +0.167 HD
ENDBRANCH  18  21
ENDBRANCH   5  18
TORSDOF 6
ENDMDL
