MODEL 1
REMARK VINA RESULT:      -5.6      0.000      0.000
REMARK  Name = 75536514
REMARK  10 active torsions:
REMARK  status: ('A' for Active; 'I' for Inactive)
REMARK    1  A    between atoms: O_2  and  C_8
REMARK    2  A    between atoms: N_5  and  C_7
REMARK    3  A    between atoms: N_5  and  C_10
REMARK    4  A    between atoms: N_6  and  C_14
REMARK    5  A    between atoms: C_9  and  C_14
REMARK    6  A    between atoms: C_17  and  C_18
REMARK    7  A    between atoms: C_17  and  C_20
REMARK    8  A    between atoms: C_17  and  C_21
REMARK    9  A    between atoms: C_17  and  C_22
REMARK   10  A    between atoms: C_18  and  C_19
REMARK                            x       y       z     vdW  Elec       q    Type
REMARK                         _______ _______ _______ _____ _____    ______ ____
ROOT
ATOM      1  O   UNL     1      -0.707   1.768  22.959  0.00  0.00    -0.371 OA
ATOM      7  C   UNL     1      -1.135   3.050  24.911  0.00  0.00    +0.111 C 
ATOM      8  C   UNL     1      -0.209   1.902  25.267  0.00  0.00    +0.164 C 
ATOM      9  C   UNL     1       0.358   1.548  23.898  0.00  0.00    +0.165 C 
ATOM     11  C   UNL     1      -1.719   2.569  23.593  0.00  0.00    +0.181 C 
ENDROOT
BRANCH   8   2
ATOM      2  O   UNL     1       0.806   2.280  26.176  0.00  0.00    -0.388 OA
ATOM     24  H   UNL     1       1.667   2.054  25.785  0.00  0.00    +0.210 HD
ENDBRANCH   8   2
BRANCH   7   5
ATOM      5  N   UNL     1      -2.150   3.313  25.918  0.00  0.00    -0.306 NA
ATOM     23  H   UNL     1      -1.973   4.209  26.369  0.00  0.00    +0.123 HD
BRANCH   5  10
ATOM      3  O   UNL     1      -6.316   2.875  25.638  0.00  0.00    -0.380 OA
ATOM     10  C   UNL     1      -3.488   3.312  25.329  0.00  0.00    +0.058 C 
ATOM     12  C   UNL     1      -4.401   4.318  26.035  0.00  0.00    +0.047 C 
ATOM     13  C   UNL     1      -4.099   1.909  25.400  0.00  0.00    +0.047 C 
ATOM     15  C   UNL     1      -5.824   4.209  25.500  0.00  0.00    +0.161 C 
ATOM     16  C   UNL     1      -5.539   1.933  24.899  0.00  0.00    +0.161 C 
ENDBRANCH   5  10
ENDBRANCH   7   5
BRANCH   9  14
ATOM     14  C   UNL     1       0.840   0.112  23.801  0.00  0.00    +0.138 C 
BRANCH  14   6
ATOM      4  O   UNL     1      -0.265  -1.657  25.812  0.00  0.00    -0.276 OA
ATOM      6  N   UNL     1      -0.265  -0.808  23.648  0.00  0.00    -0.313 N 
ATOM     19  C   UNL     1      -0.725  -1.617  24.672  0.00  0.00    +0.214 C 
ATOM     25  H   UNL     1      -0.722  -0.843  22.742  0.00  0.00    +0.149 HD
BRANCH  19  18
ATOM     18  C   UNL     1      -1.890  -2.500  24.254  0.00  0.00    +0.102 C 
BRANCH  18  17
ATOM     17  C   UNL     1      -3.285  -1.850  24.423  0.00  0.00    -0.029 C 
ATOM     20  C   UNL     1      -4.348  -2.892  24.026  0.00  0.00    +0.011 C 
ATOM     21  C   UNL     1      -3.440  -0.624  23.508  0.00  0.00    +0.011 C 
ATOM     22  C   UNL     1      -3.537  -1.431  25.881  0.00  0.00    +0.011 C 
ENDBRANCH  18  17
ENDBRANCH  19  18
ENDBRANCH  14   6
ENDBRANCH   9  14
TORSDOF 7
ENDMDL
MODEL 2
REMARK VINA RESULT:      -4.9      1.905      4.553
REMARK  Name = 75536514
REMARK  10 active torsions:
REMARK  status: ('A' for Active; 'I' for Inactive)
REMARK    1  A    between atoms: O_2  and  C_8
REMARK    2  A    between atoms: N_5  and  C_7
REMARK    3  A    between atoms: N_5  and  C_10
REMARK    4  A    between atoms: N_6  and  C_14
REMARK    5  A    between atoms: C_9  and  C_14
REMARK    6  A    between atoms: C_17  and  C_18
REMARK    7  A    between atoms: C_17  and  C_20
REMARK    8  A    between atoms: C_17  and  C_21
REMARK    9  A    between atoms: C_17  and  C_22
REMARK   10  A    between atoms: C_18  and  C_19
REMARK                            x       y       z     vdW  Elec       q    Type
REMARK                         _______ _______ _______ _____ _____    ______ ____
ROOT
ATOM      1  O   UNL     1      -5.632   3.169  25.934  0.00  0.00    -0.371 OA
ATOM      7  C   UNL     1      -3.848   4.135  24.700  0.00  0.00    +0.111 C 
ATOM      8  C   UNL     1      -4.063   2.711  24.225  0.00  0.00    +0.164 C 
ATOM      9  C   UNL     1      -5.490   2.457  24.694  0.00  0.00    +0.165 C 
ATOM     11  C   UNL     1      -4.554   4.114  26.046  0.00  0.00    +0.181 C 
ENDROOT
BRANCH   8   2
ATOM      2  O   UNL     1      -3.937   2.577  22.823  0.00  0.00    -0.388 OA
ATOM     24  H   UNL     1      -4.743   2.928  22.408  0.00  0.00    +0.210 HD
ENDBRANCH   8   2
BRANCH   7   5
ATOM      5  N   UNL     1      -2.447   4.511  24.801  0.00  0.00    -0.306 NA
ATOM     23  H   UNL     1      -2.308   5.138  25.591  0.00  0.00    +0.123 HD
BRANCH   5  10
ATOM      3  O   UNL     1       0.983   2.217  25.578  0.00  0.00    -0.380 OA
ATOM     10  C   UNL     1      -1.596   3.332  24.951  0.00  0.00    +0.058 C 
ATOM     12  C   UNL     1      -1.087   3.199  26.390  0.00  0.00    +0.047 C 
ATOM     13  C   UNL     1      -0.413   3.403  23.981  0.00  0.00    +0.047 C 
ATOM     15  C   UNL     1      -0.097   2.045  26.497  0.00  0.00    +0.161 C 
ATOM     16  C   UNL     1       0.540   2.237  24.221  0.00  0.00    +0.161 C 
ENDBRANCH   5  10
ENDBRANCH   7   5
BRANCH   9  14
ATOM     14  C   UNL     1      -5.800   0.987  24.906  0.00  0.00    +0.138 C 
BRANCH  14   6
ATOM      4  O   UNL     1      -4.669  -1.501  23.943  0.00  0.00    -0.276 OA
ATOM      6  N   UNL     1      -4.658   0.278  25.439  0.00  0.00    -0.313 N 
ATOM     19  C   UNL     1      -4.188  -0.911  24.909  0.00  0.00    +0.214 C 
ATOM     25  H   UNL     1      -4.182   0.690  26.236  0.00  0.00    +0.149 HD
BRANCH  19  18
ATOM     18  C   UNL     1      -2.982  -1.459  25.655  0.00  0.00    +0.102 C 
BRANCH  18  17
ATOM     17  C   UNL     1      -1.672  -1.486  24.832  0.00  0.00    -0.029 C 
ATOM     20  C   UNL     1      -1.669  -2.769  23.979  0.00  0.00    +0.011 C 
ATOM     21  C   UNL     1      -0.440  -1.512  25.753  0.00  0.00    +0.011 C 
ATOM     22  C   UNL     1      -1.575  -0.276  23.889  0.00  0.00    +0.011 C 
ENDBRANCH  18  17
ENDBRANCH  19  18
ENDBRANCH  14   6
ENDBRANCH   9  14
TORSDOF 7
ENDMDL
MODEL 3
REMARK VINA RESULT:      -4.6      1.644      5.061
REMARK  Name = 75536514
REMARK  10 active torsions:
REMARK  status: ('A' for Active; 'I' for Inactive)
REMARK    1  A    between atoms: O_2  and  C_8
REMARK    2  A    between atoms: N_5  and  C_7
REMARK    3  A    between atoms: N_5  and  C_10
REMARK    4  A    between atoms: N_6  and  C_14
REMARK    5  A    between atoms: C_9  and  C_14
REMARK    6  A    between atoms: C_17  and  C_18
REMARK    7  A    between atoms: C_17  and  C_20
REMARK    8  A    between atoms: C_17  and  C_21
REMARK    9  A    between atoms: C_17  and  C_22
REMARK   10  A    between atoms: C_18  and  C_19
REMARK                            x       y       z     vdW  Elec       q    Type
REMARK                         _______ _______ _______ _____ _____    ______ ____
ROOT
ATOM      1  O   UNL     1       0.040   3.631  25.853  0.00  0.00    -0.371 OA
ATOM      7  C   UNL     1      -0.335   1.313  25.499  0.00  0.00    +0.111 C 
ATOM      8  C   UNL     1      -1.446   2.101  24.831  0.00  0.00    +0.164 C 
ATOM      9  C   UNL     1      -0.793   3.470  24.693  0.00  0.00    +0.165 C 
ATOM     11  C   UNL     1       0.227   2.343  26.465  0.00  0.00    +0.181 C 
ENDROOT
BRANCH   8   2
ATOM      2  O   UNL     1      -1.818   1.565  23.577  0.00  0.00    -0.388 OA
ATOM     24  H   UNL     1      -1.150   1.826  22.922  0.00  0.00    +0.210 HD
ENDBRANCH   8   2
BRANCH   7   5
ATOM      5  N   UNL     1      -0.795   0.105  26.164  0.00  0.00    -0.306 NA
ATOM     23  H   UNL     1      -1.323   0.344  27.002  0.00  0.00    +0.123 HD
BRANCH   5  10
ATOM      3  O   UNL     1      -2.855  -3.235  24.671  0.00  0.00    -0.380 OA
ATOM     10  C   UNL     1      -1.624  -0.703  25.272  0.00  0.00    +0.058 C 
ATOM     12  C   UNL     1      -2.888  -1.192  25.987  0.00  0.00    +0.047 C 
ATOM     13  C   UNL     1      -0.827  -1.898  24.741  0.00  0.00    +0.047 C 
ATOM     15  C   UNL     1      -3.672  -2.140  25.087  0.00  0.00    +0.161 C 
ATOM     16  C   UNL     1      -1.725  -2.807  23.909  0.00  0.00    +0.161 C 
ENDBRANCH   5  10
ENDBRANCH   7   5
BRANCH   9  14
ATOM     14  C   UNL     1      -1.794   4.608  24.617  0.00  0.00    +0.138 C 
BRANCH  14   6
ATOM      4  O   UNL     1      -4.217   3.607  23.383  0.00  0.00    -0.276 OA
ATOM      6  N   UNL     1      -3.036   4.264  25.273  0.00  0.00    -0.313 N 
ATOM     19  C   UNL     1      -4.146   3.791  24.597  0.00  0.00    +0.214 C 
ATOM     25  H   UNL     1      -3.076   4.372  26.282  0.00  0.00    +0.149 HD
BRANCH  19  18
ATOM     18  C   UNL     1      -5.327   3.512  25.513  0.00  0.00    +0.102 C 
BRANCH  18  17
ATOM     17  C   UNL     1      -5.825   2.047  25.497  0.00  0.00    -0.029 C 
ATOM     20  C   UNL     1      -6.949   1.936  24.449  0.00  0.00    +0.011 C 
ATOM     21  C   UNL     1      -6.397   1.642  26.867  0.00  0.00    +0.011 C 
ATOM     22  C   UNL     1      -4.700   1.074  25.109  0.00  0.00    +0.011 C 
ENDBRANCH  18  17
ENDBRANCH  19  18
ENDBRANCH  14   6
ENDBRANCH   9  14
TORSDOF 7
ENDMDL
MODEL 4
REMARK VINA RESULT:      -4.6      1.734      5.007
REMARK  Name = 75536514
REMARK  10 active torsions:
REMARK  status: ('A' for Active; 'I' for Inactive)
REMARK    1  A    between atoms: O_2  and  C_8
REMARK    2  A    between atoms: N_5  and  C_7
REMARK    3  A    between atoms: N_5  and  C_10
REMARK    4  A    between atoms: N_6  and  C_14
REMARK    5  A    between atoms: C_9  and  C_14
REMARK    6  A    between atoms: C_17  and  C_18
REMARK    7  A    between atoms: C_17  and  C_20
REMARK    8  A    between atoms: C_17  and  C_21
REMARK    9  A    between atoms: C_17  and  C_22
REMARK   10  A    between atoms: C_18  and  C_19
REMARK                            x       y       z     vdW  Elec       q    Type
REMARK                         _______ _______ _______ _____ _____    ______ ____
ROOT
ATOM      1  O   UNL     1      -0.968   2.113  26.044  0.00  0.00    -0.371 OA
ATOM      7  C   UNL     1      -0.141   0.164  24.970  0.00  0.00    +0.111 C 
ATOM      8  C   UNL     1       0.160   1.371  24.103  0.00  0.00    +0.164 C 
ATOM      9  C   UNL     1       0.066   2.498  25.124  0.00  0.00    +0.165 C 
ATOM     11  C   UNL     1      -1.230   0.709  25.879  0.00  0.00    +0.181 C 
ENDROOT
BRANCH   8   2
ATOM      2  O   UNL     1       1.438   1.308  23.502  0.00  0.00    -0.388 OA
ATOM     24  H   UNL     1       1.917   2.126  23.716  0.00  0.00    +0.210 HD
ENDBRANCH   8   2
BRANCH   7   5
ATOM      5  N   UNL     1      -0.564  -1.005  24.217  0.00  0.00    -0.306 NA
ATOM     23  H   UNL     1       0.076  -1.780  24.383  0.00  0.00    +0.123 HD
BRANCH   5  10
ATOM      3  O   UNL     1      -4.433  -2.585  23.815  0.00  0.00    -0.380 OA
ATOM     10  C   UNL     1      -1.923  -1.401  24.580  0.00  0.00    +0.058 C 
ATOM     12  C   UNL     1      -2.110  -2.915  24.449  0.00  0.00    +0.047 C 
ATOM     13  C   UNL     1      -2.943  -0.669  23.702  0.00  0.00    +0.047 C 
ATOM     15  C   UNL     1      -3.565  -3.293  24.700  0.00  0.00    +0.161 C 
ATOM     16  C   UNL     1      -4.352  -1.171  23.996  0.00  0.00    +0.161 C 
ENDBRANCH   5  10
ENDBRANCH   7   5
BRANCH   9  14
ATOM     14  C   UNL     1      -0.268   3.843  24.506  0.00  0.00    +0.138 C 
BRANCH  14   6
ATOM      4  O   UNL     1      -2.381   2.583  22.975  0.00  0.00    -0.276 OA
ATOM      6  N   UNL     1      -1.686   4.118  24.575  0.00  0.00    -0.313 N 
ATOM     19  C   UNL     1      -2.626   3.461  23.800  0.00  0.00    +0.214 C 
ATOM     25  H   UNL     1      -1.993   4.824  25.237  0.00  0.00    +0.149 HD
BRANCH  19  18
ATOM     18  C   UNL     1      -4.046   3.940  24.055  0.00  0.00    +0.102 C 
BRANCH  18  17
ATOM     17  C   UNL     1      -4.646   3.491  25.409  0.00  0.00    -0.029 C 
ATOM     20  C   UNL     1      -5.992   4.216  25.599  0.00  0.00    +0.011 C 
ATOM     21  C   UNL     1      -3.720   3.871  26.577  0.00  0.00    +0.011 C 
ATOM     22  C   UNL     1      -4.901   1.976  25.436  0.00  0.00    +0.011 C 
ENDBRANCH  18  17
ENDBRANCH  19  18
ENDBRANCH  14   6
ENDBRANCH   9  14
TORSDOF 7
ENDMDL
MODEL 5
REMARK VINA RESULT:      -4.3     14.103     16.397
REMARK  Name = 75536514
REMARK  10 active torsions:
REMARK  status: ('A' for Active; 'I' for Inactive)
REMARK    1  A    between atoms: O_2  and  C_8
REMARK    2  A    between atoms: N_5  and  C_7
REMARK    3  A    between atoms: N_5  and  C_10
REMARK    4  A    between atoms: N_6  and  C_14
REMARK    5  A    between atoms: C_9  and  C_14
REMARK    6  A    between atoms: C_17  and  C_18
REMARK    7  A    between atoms: C_17  and  C_20
REMARK    8  A    between atoms: C_17  and  C_21
REMARK    9  A    between atoms: C_17  and  C_22
REMARK   10  A    between atoms: C_18  and  C_19
REMARK                            x       y       z     vdW  Elec       q    Type
REMARK                         _______ _______ _______ _____ _____    ______ ____
ROOT
ATOM      1  O   UNL     1      -3.235 -10.485  15.838  0.00  0.00    -0.371 OA
ATOM      7  C   UNL     1      -5.583 -10.214  16.065  0.00  0.00    +0.111 C 
ATOM      8  C   UNL     1      -5.208 -10.074  14.602  0.00  0.00    +0.164 C 
ATOM      9  C   UNL     1      -3.857 -10.776  14.576  0.00  0.00    +0.165 C 
ATOM     11  C   UNL     1      -4.240  -9.995  16.742  0.00  0.00    +0.181 C 
ENDROOT
BRANCH   8   2
ATOM      2  O   UNL     1      -6.141 -10.693  13.737  0.00  0.00    -0.388 OA
ATOM     24  H   UNL     1      -7.035 -10.504  14.066  0.00  0.00    +0.210 HD
ENDBRANCH   8   2
BRANCH   7   5
ATOM      5  N   UNL     1      -6.597  -9.269  16.501  0.00  0.00    -0.306 NA
ATOM     23  H   UNL     1      -6.718  -8.537  15.802  0.00  0.00    +0.123 HD
BRANCH   5  10
ATOM      3  O   UNL     1     -10.604  -9.795  17.641  0.00  0.00    -0.380 OA
ATOM     10  C   UNL     1      -7.874  -9.940  16.739  0.00  0.00    +0.058 C 
ATOM     12  C   UNL     1      -8.988  -9.323  15.887  0.00  0.00    +0.047 C 
ATOM     13  C   UNL     1      -8.245  -9.864  18.223  0.00  0.00    +0.047 C 
ATOM     15  C   UNL     1     -10.333  -9.943  16.246  0.00  0.00    +0.161 C 
ATOM     16  C   UNL     1      -9.632 -10.455  18.452  0.00  0.00    +0.161 C 
ENDBRANCH   5  10
ENDBRANCH   7   5
BRANCH   9  14
ATOM     14  C   UNL     1      -2.961 -10.313  13.441  0.00  0.00    +0.138 C 
BRANCH  14   6
ATOM      4  O   UNL     1      -1.971  -9.522  10.836  0.00  0.00    -0.276 OA
ATOM      6  N   UNL     1      -3.537 -10.625  12.152  0.00  0.00    -0.313 N 
ATOM     19  C   UNL     1      -2.989 -10.201  10.954  0.00  0.00    +0.214 C 
ATOM     25  H   UNL     1      -4.379 -11.193  12.141  0.00  0.00    +0.149 HD
BRANCH  19  18
ATOM     18  C   UNL     1      -3.788 -10.653   9.742  0.00  0.00    +0.102 C 
BRANCH  18  17
ATOM     17  C   UNL     1      -5.053  -9.811   9.451  0.00  0.00    -0.029 C 
ATOM     20  C   UNL     1      -4.610  -8.508   8.759  0.00  0.00    +0.011 C 
ATOM     21  C   UNL     1      -5.787  -9.445  10.752  0.00  0.00    +0.011 C 
ATOM     22  C   UNL     1      -6.020 -10.554   8.515  0.00  0.00    +0.011 C 
ENDBRANCH  18  17
ENDBRANCH  19  18
ENDBRANCH  14   6
ENDBRANCH   9  14
TORSDOF 7
ENDMDL
MODEL 6
REMARK VINA RESULT:      -4.1      2.727      4.809
REMARK  Name = 75536514
REMARK  10 active torsions:
REMARK  status: ('A' for Active; 'I' for Inactive)
REMARK    1  A    between atoms: O_2  and  C_8
REMARK    2  A    between atoms: N_5  and  C_7
REMARK    3  A    between atoms: N_5  and  C_10
REMARK    4  A    between atoms: N_6  and  C_14
REMARK    5  A    between atoms: C_9  and  C_14
REMARK    6  A    between atoms: C_17  and  C_18
REMARK    7  A    between atoms: C_17  and  C_20
REMARK    8  A    between atoms: C_17  and  C_21
REMARK    9  A    between atoms: C_17  and  C_22
REMARK   10  A    between atoms: C_18  and  C_19
REMARK                            x       y       z     vdW  Elec       q    Type
REMARK                         _______ _______ _______ _____ _____    ______ ____
ROOT
ATOM      1  O   UNL     1       0.181   1.907  24.236  0.00  0.00    -0.371 OA
ATOM      7  C   UNL     1      -2.181   2.006  24.019  0.00  0.00    +0.111 C 
ATOM      8  C   UNL     1      -1.705   0.625  23.610  0.00  0.00    +0.164 C 
ATOM      9  C   UNL     1      -0.344   0.570  24.292  0.00  0.00    +0.165 C 
ATOM     11  C   UNL     1      -0.894   2.809  23.924  0.00  0.00    +0.181 C 
ENDROOT
BRANCH   8   2
ATOM      2  O   UNL     1      -2.563  -0.404  24.062  0.00  0.00    -0.388 OA
ATOM     24  H   UNL     1      -3.380  -0.373  23.537  0.00  0.00    +0.210 HD
ENDBRANCH   8   2
BRANCH   7   5
ATOM      5  N   UNL     1      -3.240   2.533  23.173  0.00  0.00    -0.306 NA
ATOM     23  H   UNL     1      -3.461   1.868  22.433  0.00  0.00    +0.123 HD
BRANCH   5  10
ATOM      3  O   UNL     1      -5.799   2.789  26.491  0.00  0.00    -0.380 OA
ATOM     10  C   UNL     1      -4.442   2.822  23.953  0.00  0.00    +0.058 C 
ATOM     12  C   UNL     1      -4.151   3.848  25.053  0.00  0.00    +0.047 C 
ATOM     13  C   UNL     1      -4.998   1.535  24.570  0.00  0.00    +0.047 C 
ATOM     15  C   UNL     1      -5.376   4.037  25.939  0.00  0.00    +0.161 C 
ATOM     16  C   UNL     1      -6.178   1.853  25.482  0.00  0.00    +0.161 C 
ENDBRANCH   5  10
ENDBRANCH   7   5
BRANCH   9  14
ATOM     14  C   UNL     1       0.623  -0.391  23.625  0.00  0.00    +0.138 C 
BRANCH  14   6
ATOM      4  O   UNL     1       2.391  -0.205  21.337  0.00  0.00    -0.276 OA
ATOM      6  N   UNL     1       1.965   0.145  23.595  0.00  0.00    -0.313 N 
ATOM     19  C   UNL     1       2.738   0.192  22.448  0.00  0.00    +0.214 C 
ATOM     25  H   UNL     1       2.342   0.511  24.464  0.00  0.00    +0.149 HD
BRANCH  19  18
ATOM     18  C   UNL     1       4.114   0.794  22.682  0.00  0.00    +0.102 C 
BRANCH  18  17
ATOM     17  C   UNL     1       5.097  -0.123  23.450  0.00  0.00    -0.029 C 
ATOM     20  C   UNL     1       5.498   0.593  24.754  0.00  0.00    +0.011 C 
ATOM     21  C   UNL     1       6.370  -0.382  22.626  0.00  0.00    +0.011 C 
ATOM     22  C   UNL     1       4.445  -1.467  23.814  0.00  0.00    +0.011 C 
ENDBRANCH  18  17
ENDBRANCH  19  18
ENDBRANCH  14   6
ENDBRANCH   9  14
TORSDOF 7
ENDMDL
MODEL 7
REMARK VINA RESULT:      -4.1      1.694      4.689
REMARK  Name = 75536514
REMARK  10 active torsions:
REMARK  status: ('A' for Active; 'I' for Inactive)
REMARK    1  A    between atoms: O_2  and  C_8
REMARK    2  A    between atoms: N_5  and  C_7
REMARK    3  A    between atoms: N_5  and  C_10
REMARK    4  A    between atoms: N_6  and  C_14
REMARK    5  A    between atoms: C_9  and  C_14
REMARK    6  A    between atoms: C_17  and  C_18
REMARK    7  A    between atoms: C_17  and  C_20
REMARK    8  A    between atoms: C_17  and  C_21
REMARK    9  A    between atoms: C_17  and  C_22
REMARK   10  A    between atoms: C_18  and  C_19
REMARK                            x       y       z     vdW  Elec       q    Type
REMARK                         _______ _______ _______ _____ _____    ______ ____
ROOT
ATOM      1  O   UNL     1      -2.388   4.590  25.699  0.00  0.00    -0.371 OA
ATOM      7  C   UNL     1      -0.829   3.495  24.282  0.00  0.00    +0.111 C 
ATOM      8  C   UNL     1      -2.224   2.995  23.960  0.00  0.00    +0.164 C 
ATOM      9  C   UNL     1      -3.078   4.122  24.528  0.00  0.00    +0.165 C 
ATOM     11  C   UNL     1      -1.036   4.102  25.660  0.00  0.00    +0.181 C 
ENDROOT
BRANCH   8   2
ATOM      2  O   UNL     1      -2.436   2.821  22.573  0.00  0.00    -0.388 OA
ATOM     24  H   UNL     1      -3.143   2.166  22.451  0.00  0.00    +0.210 HD
ENDBRANCH   8   2
BRANCH   7   5
ATOM      5  N   UNL     1       0.182   2.450  24.270  0.00  0.00    -0.306 NA
ATOM     23  H   UNL     1       0.872   2.621  24.999  0.00  0.00    +0.123 HD
BRANCH   5  10
ATOM      3  O   UNL     1      -0.172  -1.583  25.381  0.00  0.00    -0.380 OA
ATOM     10  C   UNL     1      -0.422   1.132  24.459  0.00  0.00    +0.058 C 
ATOM     12  C   UNL     1      -0.479   0.761  25.944  0.00  0.00    +0.047 C 
ATOM     13  C   UNL     1       0.364   0.070  23.683  0.00  0.00    +0.047 C 
ATOM     15  C   UNL     1      -0.986  -0.666  26.114  0.00  0.00    +0.161 C 
ATOM     16  C   UNL     1      -0.191  -1.319  23.978  0.00  0.00    +0.161 C 
ENDBRANCH   5  10
ENDBRANCH   7   5
BRANCH   9  14
ATOM     14  C   UNL     1      -4.482   3.682  24.900  0.00  0.00    +0.138 C 
BRANCH  14   6
ATOM      4  O   UNL     1      -5.952   1.592  26.266  0.00  0.00    -0.276 OA
ATOM      6  N   UNL     1      -4.764   2.349  24.417  0.00  0.00    -0.313 N 
ATOM     19  C   UNL     1      -5.478   1.414  25.145  0.00  0.00    +0.214 C 
ATOM     25  H   UNL     1      -4.422   2.105  23.492  0.00  0.00    +0.149 HD
BRANCH  19  18
ATOM     18  C   UNL     1      -5.630   0.086  24.421  0.00  0.00    +0.102 C 
BRANCH  18  17
ATOM     17  C   UNL     1      -4.346  -0.777  24.378  0.00  0.00    -0.029 C 
ATOM     20  C   UNL     1      -3.343  -0.096  23.427  0.00  0.00    +0.011 C 
ATOM     21  C   UNL     1      -4.644  -2.187  23.840  0.00  0.00    +0.011 C 
ATOM     22  C   UNL     1      -3.698  -0.890  25.767  0.00  0.00    +0.011 C 
ENDBRANCH  18  17
ENDBRANCH  19  18
ENDBRANCH  14   6
ENDBRANCH   9  14
TORSDOF 7
ENDMDL
MODEL 8
REMARK VINA RESULT:      -4.0      1.785      4.365
REMARK  Name = 75536514
REMARK  10 active torsions:
REMARK  status: ('A' for Active; 'I' for Inactive)
REMARK    1  A    between atoms: O_2  and  C_8
REMARK    2  A    between atoms: N_5  and  C_7
REMARK    3  A    between atoms: N_5  and  C_10
REMARK    4  A    between atoms: N_6  and  C_14
REMARK    5  A    between atoms: C_9  and  C_14
REMARK    6  A    between atoms: C_17  and  C_18
REMARK    7  A    between atoms: C_17  and  C_20
REMARK    8  A    between atoms: C_17  and  C_21
REMARK    9  A    between atoms: C_17  and  C_22
REMARK   10  A    between atoms: C_18  and  C_19
REMARK                            x       y       z     vdW  Elec       q    Type
REMARK                         _______ _______ _______ _____ _____    ______ ____
ROOT
ATOM      1  O   UNL     1      -2.179  -2.285  25.033  0.00  0.00    -0.371 OA
ATOM      7  C   UNL     1      -3.884  -0.984  24.014  0.00  0.00    +0.111 C 
ATOM      8  C   UNL     1      -2.656  -0.117  24.216  0.00  0.00    +0.164 C 
ATOM      9  C   UNL     1      -1.569  -1.175  24.353  0.00  0.00    +0.165 C 
ATOM     11  C   UNL     1      -3.608  -2.128  24.975  0.00  0.00    +0.181 C 
ENDROOT
BRANCH   8   2
ATOM      2  O   UNL     1      -2.414   0.750  23.126  0.00  0.00    -0.388 OA
ATOM     24  H   UNL     1      -3.268   1.085  22.806  0.00  0.00    +0.210 HD
ENDBRANCH   8   2
BRANCH   7   5
ATOM      5  N   UNL     1      -5.135  -0.298  24.296  0.00  0.00    -0.306 NA
ATOM     23  H   UNL     1      -5.733  -0.883  24.877  0.00  0.00    +0.123 HD
BRANCH   5  10
ATOM      3  O   UNL     1      -5.847   3.598  25.690  0.00  0.00    -0.380 OA
ATOM     10  C   UNL     1      -4.895   0.980  24.963  0.00  0.00    +0.058 C 
ATOM     12  C   UNL     1      -5.894   1.203  26.103  0.00  0.00    +0.047 C 
ATOM     13  C   UNL     1      -4.984   2.131  23.956  0.00  0.00    +0.047 C 
ATOM     15  C   UNL     1      -5.716   2.595  26.698  0.00  0.00    +0.161 C 
ATOM     16  C   UNL     1      -4.856   3.472  24.671  0.00  0.00    +0.161 C 
ENDBRANCH   5  10
ENDBRANCH   7   5
BRANCH   9  14
ATOM     14  C   UNL     1      -0.359  -0.696  25.133  0.00  0.00    +0.138 C 
BRANCH  14   6
ATOM      4  O   UNL     1       0.990   1.740  24.335  0.00  0.00    -0.276 OA
ATOM      6  N   UNL     1      -0.564   0.634  25.662  0.00  0.00    -0.313 N 
ATOM     19  C   UNL     1       0.132   1.744  25.215  0.00  0.00    +0.214 C 
ATOM     25  H   UNL     1      -1.263   0.745  26.390  0.00  0.00    +0.149 HD
BRANCH  19  18
ATOM     18  C   UNL     1      -0.261   3.023  25.937  0.00  0.00    +0.102 C 
BRANCH  18  17
ATOM     17  C   UNL     1      -1.187   3.963  25.128  0.00  0.00    -0.029 C 
ATOM     20  C   UNL     1      -2.456   4.217  25.963  0.00  0.00    +0.011 C 
ATOM     21  C   UNL     1      -1.603   3.318  23.795  0.00  0.00    +0.011 C 
ATOM     22  C   UNL     1      -0.510   5.315  24.849  0.00  0.00    +0.011 C 
ENDBRANCH  18  17
ENDBRANCH  19  18
ENDBRANCH  14   6
ENDBRANCH   9  14
TORSDOF 7
ENDMDL
MODEL 9
REMARK VINA RESULT:      -4.0      2.013      5.330
REMARK  Name = 75536514
REMARK  10 active torsions:
REMARK  status: ('A' for Active; 'I' for Inactive)
REMARK    1  A    between atoms: O_2  and  C_8
REMARK    2  A    between atoms: N_5  and  C_7
REMARK    3  A    between atoms: N_5  and  C_10
REMARK    4  A    between atoms: N_6  and  C_14
REMARK    5  A    between atoms: C_9  and  C_14
REMARK    6  A    between atoms: C_17  and  C_18
REMARK    7  A    between atoms: C_17  and  C_20
REMARK    8  A    between atoms: C_17  and  C_21
REMARK    9  A    between atoms: C_17  and  C_22
REMARK   10  A    between atoms: C_18  and  C_19
REMARK                            x       y       z     vdW  Elec       q    Type
REMARK                         _______ _______ _______ _____ _____    ______ ____
ROOT
ATOM      1  O   UNL     1      -2.104   3.752  25.763  0.00  0.00    -0.371 OA
ATOM      7  C   UNL     1      -0.231   2.742  24.711  0.00  0.00    +0.111 C 
ATOM      8  C   UNL     1      -1.487   2.368  23.947  0.00  0.00    +0.164 C 
ATOM      9  C   UNL     1      -2.441   3.469  24.395  0.00  0.00    +0.165 C 
ATOM     11  C   UNL     1      -0.810   3.192  26.042  0.00  0.00    +0.181 C 
ENDROOT
BRANCH   8   2
ATOM      2  O   UNL     1      -1.297   2.373  22.546  0.00  0.00    -0.388 OA
ATOM     24  H   UNL     1      -0.993   1.491  22.276  0.00  0.00    +0.210 HD
ENDBRANCH   8   2
BRANCH   7   5
ATOM      5  N   UNL     1       0.716   1.647  24.847  0.00  0.00    -0.306 NA
ATOM     23  H   UNL     1       0.255   0.832  25.250  0.00  0.00    +0.123 HD
BRANCH   5  10
ATOM      3  O   UNL     1       2.957  -0.473  21.998  0.00  0.00    -0.380 OA
ATOM     10  C   UNL     1       1.301   1.294  23.555  0.00  0.00    +0.058 C 
ATOM     12  C   UNL     1       0.820  -0.084  23.089  0.00  0.00    +0.047 C 
ATOM     13  C   UNL     1       2.830   1.315  23.639  0.00  0.00    +0.047 C 
ATOM     15  C   UNL     1       1.541  -0.492  21.810  0.00  0.00    +0.161 C 
ATOM     16  C   UNL     1       3.440   0.829  22.329  0.00  0.00    +0.161 C 
ENDBRANCH   5  10
ENDBRANCH   7   5
BRANCH   9  14
ATOM     14  C   UNL     1      -3.903   3.073  24.296  0.00  0.00    +0.138 C 
BRANCH  14   6
ATOM      4  O   UNL     1      -5.283   1.073  25.872  0.00  0.00    -0.276 OA
ATOM      6  N   UNL     1      -4.051   1.667  23.994  0.00  0.00    -0.313 N 
ATOM     19  C   UNL     1      -4.732   0.783  24.812  0.00  0.00    +0.214 C 
ATOM     25  H   UNL     1      -3.637   1.328  23.131  0.00  0.00    +0.149 HD
BRANCH  19  18
ATOM     18  C   UNL     1      -4.736  -0.640  24.277  0.00  0.00    +0.102 C 
BRANCH  18  17
ATOM     17  C   UNL     1      -3.555  -1.516  24.760  0.00  0.00    -0.029 C 
ATOM     20  C   UNL     1      -3.825  -2.967  24.320  0.00  0.00    +0.011 C 
ATOM     21  C   UNL     1      -3.435  -1.487  26.293  0.00  0.00    +0.011 C 
ATOM     22  C   UNL     1      -2.225  -1.058  24.138  0.00  0.00    +0.011 C 
ENDBRANCH  18  17
ENDBRANCH  19  18
ENDBRANCH  14   6
ENDBRANCH   9  14
TORSDOF 7
ENDMDL
MODEL 10
REMARK VINA RESULT:      -3.8      2.002      4.049
REMARK  Name = 75536514
REMARK  10 active torsions:
REMARK  status: ('A' for Active; 'I' for Inactive)
REMARK    1  A    between atoms: O_2  and  C_8
REMARK    2  A    between atoms: N_5  and  C_7
REMARK    3  A    between atoms: N_5  and  C_10
REMARK    4  A    between atoms: N_6  and  C_14
REMARK    5  A    between atoms: C_9  and  C_14
REMARK    6  A    between atoms: C_17  and  C_18
REMARK    7  A    between atoms: C_17  and  C_20
REMARK    8  A    between atoms: C_17  and  C_21
REMARK    9  A    between atoms: C_17  and  C_22
REMARK   10  A    between atoms: C_18  and  C_19
REMARK                            x       y       z     vdW  Elec       q    Type
REMARK                         _______ _______ _______ _____ _____    ______ ____
ROOT
ATOM      1  O   UNL     1      -0.962  -1.722  23.288  0.00  0.00    -0.371 OA
ATOM      7  C   UNL     1       0.232  -0.173  24.635  0.00  0.00    +0.111 C 
ATOM      8  C   UNL     1      -1.029  -0.594  25.365  0.00  0.00    +0.164 C 
ATOM      9  C   UNL     1      -1.355  -1.903  24.658  0.00  0.00    +0.165 C 
ATOM     11  C   UNL     1      -0.098  -0.575  23.207  0.00  0.00    +0.181 C 
ENDROOT
BRANCH   8   2
ATOM      2  O   UNL     1      -0.821  -0.780  26.752  0.00  0.00    -0.388 OA
ATOM     24  H   UNL     1       0.040  -1.211  26.877  0.00  0.00    +0.210 HD
ENDBRANCH   8   2
BRANCH   7   5
ATOM      5  N   UNL     1       0.539   1.241  24.768  0.00  0.00    -0.306 NA
ATOM     23  H   UNL     1       1.061   1.565  23.955  0.00  0.00    +0.123 HD
BRANCH   5  10
ATOM      3  O   UNL     1      -1.918   4.580  25.434  0.00  0.00    -0.380 OA
ATOM     10  C   UNL     1      -0.680   2.032  24.919  0.00  0.00    +0.058 C 
ATOM     12  C   UNL     1      -0.755   3.137  23.861  0.00  0.00    +0.047 C 
ATOM     13  C   UNL     1      -0.748   2.644  26.322  0.00  0.00    +0.047 C 
ATOM     15  C   UNL     1      -1.961   4.033  24.115  0.00  0.00    +0.161 C 
ATOM     16  C   UNL     1      -1.956   3.567  26.439  0.00  0.00    +0.161 C 
ENDBRANCH   5  10
ENDBRANCH   7   5
BRANCH   9  14
ATOM     14  C   UNL     1      -2.826  -2.272  24.727  0.00  0.00    +0.138 C 
BRANCH  14   6
ATOM      4  O   UNL     1      -3.957   0.122  23.551  0.00  0.00    -0.276 OA
ATOM      6  N   UNL     1      -3.597  -1.248  25.394  0.00  0.00    -0.313 N 
ATOM     19  C   UNL     1      -4.099  -0.133  24.746  0.00  0.00    +0.214 C 
ATOM     25  H   UNL     1      -3.779  -1.371  26.386  0.00  0.00    +0.149 HD
BRANCH  19  18
ATOM     18  C   UNL     1      -4.867   0.798  25.671  0.00  0.00    +0.102 C 
BRANCH  18  17
ATOM     17  C   UNL     1      -5.373   2.099  25.003  0.00  0.00    -0.029 C 
ATOM     20  C   UNL     1      -6.805   1.850  24.494  0.00  0.00    +0.011 C 
ATOM     21  C   UNL     1      -4.491   2.485  23.803  0.00  0.00    +0.011 C 
ATOM     22  C   UNL     1      -5.409   3.267  26.003  0.00  0.00    +0.011 C 
ENDBRANCH  18  17
ENDBRANCH  19  18
ENDBRANCH  14   6
ENDBRANCH   9  14
TORSDOF 7
ENDMDL
