MODEL 1
REMARK VINA RESULT:       9.5      0.000      0.000
REMARK  Name = 7165077
REMARK  5 active torsions:
REMARK  status: ('A' for Active; 'I' for Inactive)
REMARK    1  A    between atoms: O_7  and  C_29
REMARK    2  A    between atoms: O_7  and  C_31
REMARK    3  A    between atoms: N_10  and  C_18
REMARK    4  A    between atoms: C_17  and  C_19
REMARK    5  A    between atoms: C_28  and  C_30
REMARK                            x       y       z     vdW  Elec       q    Type
REMARK                         _______ _______ _______ _____ _____    ______ ____
ROOT
ATOM      4  O   UNL     1      -2.147  -8.659  14.218  0.00  0.00    -0.273 OA
ATOM      5  O   UNL     1      -0.925 -10.054   9.894  0.00  0.00    -0.252 OA
ATOM      6  O   UNL     1      -3.471 -10.777  16.110  0.00  0.00    -0.270 OA
ATOM      8  N   UNL     1      -4.380 -10.176  14.053  0.00  0.00    -0.284 N 
ATOM      9  N   UNL     1      -2.878 -10.723  10.812  0.00  0.00    -0.293 N 
ATOM     10  N   UNL     1      -1.454  -9.288  12.058  0.00  0.00    -0.193 N 
ATOM     11  C   UNL     1      -3.844 -10.781  11.869  0.00  0.00    +0.105 C 
ATOM     12  C   UNL     1      -3.230 -10.559  13.233  0.00  0.00    +0.183 C 
ATOM     13  C   UNL     1      -4.931  -9.709  11.795  0.00  0.00    +0.043 C 
ATOM     14  C   UNL     1      -5.488  -9.712  13.214  0.00  0.00    +0.111 C 
ATOM     15  C   UNL     1      -2.236  -9.402  13.237  0.00  0.00    +0.250 C 
ATOM     16  C   UNL     1      -1.701 -10.003  10.855  0.00  0.00    +0.313 C 
ATOM     17  C   UNL     1      -4.413 -10.388  15.424  0.00  0.00    +0.247 C 
ATOM     37  H   UNL     1      -3.079 -11.238   9.960  0.00  0.00    +0.151 HD
ENDROOT
BRANCH  10  18
ATOM     18  C   UNL     1      -0.336  -8.368  12.078  0.00  0.00    +0.046 A 
ATOM     20  C   UNL     1       0.747  -8.586  11.237  0.00  0.00    +0.027 A 
ATOM     21  C   UNL     1      -0.362  -7.278  12.939  0.00  0.00    +0.027 A 
ATOM     24  C   UNL     1       1.823  -7.699  11.257  0.00  0.00    +0.048 A 
ATOM     25  C   UNL     1       0.714  -6.392  12.960  0.00  0.00    +0.048 A 
ATOM     29  C   UNL     1       1.807  -6.602  12.118  0.00  0.00    +0.129 A 
BRANCH  29   7
ATOM      7  O   UNL     1       2.857  -5.736  12.136  0.00  0.00    -0.456 OA
BRANCH   7  31
ATOM     31  C   UNL     1       4.093  -6.233  12.516  0.00  0.00    +0.128 A 
ATOM     32  C   UNL     1       4.865  -5.513  13.410  0.00  0.00    +0.046 A 
ATOM     33  C   UNL     1       4.523  -7.439  11.991  0.00  0.00    +0.046 A 
ATOM     34  C   UNL     1       6.108  -6.014  13.792  0.00  0.00    +0.004 A 
ATOM     35  C   UNL     1       5.768  -7.941  12.373  0.00  0.00    +0.004 A 
ATOM     36  C   UNL     1       6.560  -7.228  13.274  0.00  0.00    +0.000 A 
ENDBRANCH   7  31
ENDBRANCH  29   7
ENDBRANCH  10  18
BRANCH  17  19
ATOM     19  C   UNL     1      -5.687 -10.134  16.110  0.00  0.00    +0.037 A 
ATOM     22  C   UNL     1      -5.746 -10.185  17.501  0.00  0.00    +0.013 A 
ATOM     23  C   UNL     1      -6.827  -9.839  15.368  0.00  0.00    +0.013 A 
ATOM     26  C   UNL     1      -6.956  -9.941  18.152  0.00  0.00    +0.013 A 
ATOM     27  C   UNL     1      -8.036  -9.596  16.020  0.00  0.00    +0.013 A 
ATOM     28  C   UNL     1      -8.100  -9.647  17.412  0.00  0.00    +0.055 A 
BRANCH  28  30
ATOM      1  F   UNL     1      -9.762  -8.071  18.102  0.00  0.00    -0.166 F 
ATOM      2  F   UNL     1      -9.387  -9.749  19.426  0.00  0.00    -0.166 F 
ATOM      3  F   UNL     1     -10.437 -10.063  17.547  0.00  0.00    -0.166 F 
ATOM     30  C   UNL     1      -9.392  -9.387  18.108  0.00  0.00    +0.417 C 
ENDBRANCH  28  30
ENDBRANCH  17  19
TORSDOF 5
ENDMDL
