MODEL 1
REMARK VINA RESULT:       3.9      0.000      0.000
REMARK  Name = 11911647
REMARK  9 active torsions:
REMARK  status: ('A' for Active; 'I' for Inactive)
REMARK    1  A    between atoms: O_3  and  C_13
REMARK    2  A    between atoms: O_3  and  C_17
REMARK    3  A    between atoms: N_5  and  C_12
REMARK    4  A    between atoms: N_8  and  C_21
REMARK    5  A    between atoms: N_9  and  C_31
REMARK    6  A    between atoms: N_9  and  C_34
REMARK    7  A    between atoms: N_9  and  C_35
REMARK    8  A    between atoms: C_18  and  C_22
REMARK    9  A    between atoms: C_32  and  C_33
REMARK                            x       y       z     vdW  Elec       q    Type
REMARK                         _______ _______ _______ _____ _____    ______ ____
ROOT
ATOM      1  O   UNL     1      -1.967   2.566  25.556  0.00  0.00    -0.368 OA
ATOM      2  O   UNL     1      -0.674   4.974  24.162  0.00  0.00    -0.368 OA
ATOM     10  C   UNL     1      -2.057   4.632  24.394  0.00  0.00    +0.173 C 
ATOM     11  C   UNL     1      -2.166   3.127  24.248  0.00  0.00    +0.192 C 
ATOM     12  C   UNL     1      -2.416   4.886  25.840  0.00  0.00    +0.130 C 
ATOM     13  C   UNL     1      -1.020   2.804  23.320  0.00  0.00    +0.235 C 
ATOM     14  C   UNL     1      -1.917   3.625  26.524  0.00  0.00    +0.185 C 
ATOM     15  C   UNL     1       0.035   3.793  23.761  0.00  0.00    +0.207 C 
ENDROOT
BRANCH  12   5
ATOM      5  N   UNL     1      -3.851   5.002  25.987  0.00  0.00    -0.306 N 
ATOM      6  N   UNL     1      -4.193   2.729  25.517  0.00  0.00    -0.214 NA
ATOM      7  N   UNL     1      -6.052   4.186  25.997  0.00  0.00    -0.223 NA
ATOM     16  C   UNL     1      -4.725   3.940  25.829  0.00  0.00    +0.216 A 
ATOM     18  C   UNL     1      -5.073   1.716  25.370  0.00  0.00    +0.076 A 
ATOM     19  C   UNL     1      -6.874   3.129  25.836  0.00  0.00    +0.116 A 
ATOM     20  C   UNL     1      -6.438   1.859  25.519  0.00  0.00    +0.048 A 
ATOM     36  H   UNL     1      -4.253   5.888  26.272  0.00  0.00    +0.149 HD
BRANCH  18  22
ATOM     22  C   UNL     1      -4.488   0.439  25.039  0.00  0.00    +0.001 A 
ATOM     25  C   UNL     1      -4.510  -0.021  23.721  0.00  0.00    +0.012 A 
ATOM     26  C   UNL     1      -3.895  -0.340  26.035  0.00  0.00    +0.012 A 
ATOM     29  C   UNL     1      -3.943  -1.255  23.400  0.00  0.00    +0.024 A 
ATOM     30  C   UNL     1      -3.328  -1.573  25.716  0.00  0.00    +0.024 A 
ATOM     31  C   UNL     1      -3.352  -2.031  24.398  0.00  0.00    +0.029 A 
BRANCH  31   9
ATOM      9  N   UNL     1      -2.779  -3.279  24.074  0.00  0.00    -0.336 N 
ATOM     34  C   UNL     1      -1.343  -3.463  24.127  0.00  0.00    +0.129 C 
ATOM     35  C   UNL     1      -3.619  -4.388  23.668  0.00  0.00    +0.129 C 
ENDBRANCH  31   9
ENDBRANCH  18  22
ENDBRANCH  12   5
BRANCH  13   3
ATOM      3  O   UNL     1      -0.573   1.471  23.421  0.00  0.00    -0.442 OA
BRANCH   3  17
ATOM      4  O   UNL     1       0.968   1.611  25.105  0.00  0.00    -0.226 OA
ATOM      8  N   UNL     1       1.495   0.656  23.034  0.00  0.00    -0.251 N 
ATOM     17  C   UNL     1       0.680   1.272  23.965  0.00  0.00    +0.405 C 
ATOM     37  H   UNL     1       1.070   0.452  22.132  0.00  0.00    +0.158 HD
BRANCH   8  21
ATOM     21  C   UNL     1       2.848   0.275  23.179  0.00  0.00    +0.036 A 
ATOM     23  C   UNL     1       3.845   1.201  22.923  0.00  0.00    +0.023 A 
ATOM     24  C   UNL     1       3.151  -1.018  23.574  0.00  0.00    +0.023 A 
ATOM     27  C   UNL     1       5.182   0.826  23.065  0.00  0.00    +0.005 A 
ATOM     28  C   UNL     1       4.486  -1.395  23.718  0.00  0.00    +0.005 A 
ATOM     32  C   UNL     1       5.501  -0.472  23.464  0.00  0.00    -0.050 A 
ATOM     33  C   UNL     1       6.929  -0.875  23.617  0.00  0.00    +0.044 C 
ENDBRANCH   8  21
ENDBRANCH   3  17
ENDBRANCH  13   3
TORSDOF 6
ENDMDL
MODEL 2
REMARK VINA RESULT:       6.4      2.539      4.886
REMARK  Name = 11911647
REMARK  9 active torsions:
REMARK  status: ('A' for Active; 'I' for Inactive)
REMARK    1  A    between atoms: O_3  and  C_13
REMARK    2  A    between atoms: O_3  and  C_17
REMARK    3  A    between atoms: N_5  and  C_12
REMARK    4  A    between atoms: N_8  and  C_21
REMARK    5  A    between atoms: N_9  and  C_31
REMARK    6  A    between atoms: N_9  and  C_34
REMARK    7  A    between atoms: N_9  and  C_35
REMARK    8  A    between atoms: C_18  and  C_22
REMARK    9  A    between atoms: C_32  and  C_33
REMARK                            x       y       z     vdW  Elec       q    Type
REMARK                         _______ _______ _______ _____ _____    ______ ____
ROOT
ATOM      1  O   UNL     1      -3.330  -0.760  23.433  0.00  0.00    -0.368 OA
ATOM      2  O   UNL     1      -3.783  -0.923  26.463  0.00  0.00    -0.368 OA
ATOM     10  C   UNL     1      -3.750   0.202  25.560  0.00  0.00    +0.173 C 
ATOM     11  C   UNL     1      -2.679  -0.096  24.528  0.00  0.00    +0.192 C 
ATOM     12  C   UNL     1      -5.027   0.257  24.755  0.00  0.00    +0.130 C 
ATOM     13  C   UNL     1      -1.754  -1.025  25.276  0.00  0.00    +0.235 C 
ATOM     14  C   UNL     1      -4.750  -0.735  23.639  0.00  0.00    +0.185 C 
ATOM     15  C   UNL     1      -2.720  -1.824  26.122  0.00  0.00    +0.207 C 
ENDROOT
BRANCH  12   5
ATOM      5  N   UNL     1      -5.219   1.584  24.209  0.00  0.00    -0.306 N 
ATOM      6  N   UNL     1      -3.302   2.419  25.273  0.00  0.00    -0.214 NA
ATOM      7  N   UNL     1      -4.666   3.842  23.886  0.00  0.00    -0.223 NA
ATOM     16  C   UNL     1      -4.370   2.647  24.463  0.00  0.00    +0.216 A 
ATOM     18  C   UNL     1      -2.495   3.477  25.500  0.00  0.00    +0.076 A 
ATOM     19  C   UNL     1      -3.817   4.855  24.155  0.00  0.00    +0.116 A 
ATOM     20  C   UNL     1      -2.705   4.731  24.963  0.00  0.00    +0.048 A 
ATOM     36  H   UNL     1      -5.982   1.751  23.562  0.00  0.00    +0.149 HD
BRANCH  18  22
ATOM     22  C   UNL     1      -1.368   3.214  26.362  0.00  0.00    +0.001 A 
ATOM     25  C   UNL     1      -0.113   2.946  25.811  0.00  0.00    +0.012 A 
ATOM     26  C   UNL     1      -1.526   3.229  27.749  0.00  0.00    +0.012 A 
ATOM     29  C   UNL     1       0.978   2.694  26.643  0.00  0.00    +0.024 A 
ATOM     30  C   UNL     1      -0.436   2.976  28.582  0.00  0.00    +0.024 A 
ATOM     31  C   UNL     1       0.816   2.709  28.029  0.00  0.00    +0.029 A 
BRANCH  31   9
ATOM      9  N   UNL     1       1.919   2.453  28.871  0.00  0.00    -0.336 N 
ATOM     34  C   UNL     1       3.267   2.723  28.415  0.00  0.00    +0.129 C 
ATOM     35  C   UNL     1       1.717   1.903  30.196  0.00  0.00    +0.129 C 
ENDBRANCH  31   9
ENDBRANCH  18  22
ENDBRANCH  12   5
BRANCH  13   3
ATOM      3  O   UNL     1      -0.982  -1.849  24.432  0.00  0.00    -0.442 OA
BRANCH   3  17
ATOM      4  O   UNL     1       0.935  -2.494  25.499  0.00  0.00    -0.226 OA
ATOM      8  N   UNL     1       0.974  -0.991  23.704  0.00  0.00    -0.251 N 
ATOM     17  C   UNL     1       0.385  -1.835  24.626  0.00  0.00    +0.405 C 
ATOM     37  H   UNL     1       0.344  -0.529  23.053  0.00  0.00    +0.158 HD
BRANCH   8  21
ATOM     21  C   UNL     1       2.347  -0.690  23.554  0.00  0.00    +0.036 A 
ATOM     23  C   UNL     1       2.718   0.531  23.013  0.00  0.00    +0.023 A 
ATOM     24  C   UNL     1       3.294  -1.620  23.950  0.00  0.00    +0.023 A 
ATOM     27  C   UNL     1       4.072   0.830  22.863  0.00  0.00    +0.005 A 
ATOM     28  C   UNL     1       4.649  -1.321  23.802  0.00  0.00    +0.005 A 
ATOM     32  C   UNL     1       5.037  -0.097  23.259  0.00  0.00    -0.050 A 
ATOM     33  C   UNL     1       6.486   0.222  23.100  0.00  0.00    +0.044 C 
ENDBRANCH   8  21
ENDBRANCH   3  17
ENDBRANCH  13   3
TORSDOF 6
ENDMDL
