MODEL 1
REMARK VINA RESULT:      -3.9      0.000      0.000
REMARK  Name = 56774637
REMARK  8 active torsions:
REMARK  status: ('A' for Active; 'I' for Inactive)
REMARK    1  A    between atoms: S_1  and  N_8
REMARK    2  A    between atoms: S_1  and  C_27
REMARK    3  A    between atoms: O_3  and  C_17
REMARK    4  A    between atoms: N_7  and  C_12
REMARK    5  A    between atoms: N_8  and  C_26
REMARK    6  A    between atoms: C_9  and  C_12
REMARK    7  A    between atoms: C_16  and  C_17
REMARK    8  A    between atoms: C_17  and  C_21
REMARK                            x       y       z     vdW  Elec       q    Type
REMARK                         _______ _______ _______ _____ _____    ______ ____
ROOT
ATOM     17  C   UNL     1      -2.634   2.328  23.818  0.00  0.00    +0.167 C 
ENDROOT
BRANCH  17  16
ATOM      2  O   UNL     1      -4.157   4.325  25.334  0.00  0.00    -0.369 OA
ATOM      4  O   UNL     1      -6.821   1.926  24.900  0.00  0.00    -0.273 OA
ATOM      7  N   UNL     1      -4.541   1.553  25.178  0.00  0.00    -0.291 N 
ATOM     16  C   UNL     1      -3.196   2.140  25.230  0.00  0.00    +0.135 C 
ATOM     18  C   UNL     1      -3.234   3.462  25.986  0.00  0.00    +0.185 C 
ATOM     19  C   UNL     1      -5.683   2.348  25.117  0.00  0.00    +0.242 C 
ATOM     20  C   UNL     1      -5.471   3.825  25.429  0.00  0.00    +0.255 C 
BRANCH   7  12
ATOM     12  C   UNL     1      -4.639   0.109  25.005  0.00  0.00    +0.112 C 
BRANCH  12   9
ATOM      9  C   UNL     1      -3.258  -0.510  24.795  0.00  0.00    +0.006 C 
ATOM     10  C   UNL     1      -2.481  -0.559  26.118  0.00  0.00    +0.005 C 
ATOM     11  C   UNL     1      -3.380  -1.910  24.181  0.00  0.00    +0.005 C 
ATOM     13  C   UNL     1      -1.116  -1.223  25.945  0.00  0.00    +0.000 C 
ATOM     14  C   UNL     1      -2.015  -2.573  24.012  0.00  0.00    +0.000 C 
ATOM     15  C   UNL     1      -1.241  -2.613  25.326  0.00  0.00    +0.000 C 
ENDBRANCH  12   9
ENDBRANCH   7  12
ENDBRANCH  17  16
BRANCH  17  21
ATOM     21  C   UNL     1      -1.301   1.644  23.650  0.00  0.00    -0.017 A 
ATOM     22  C   UNL     1      -1.158   0.613  22.721  0.00  0.00    +0.008 A 
ATOM     23  C   UNL     1      -0.211   2.040  24.425  0.00  0.00    +0.008 A 
ATOM     24  C   UNL     1       0.075  -0.020  22.567  0.00  0.00    +0.025 A 
ATOM     25  C   UNL     1       1.022   1.406  24.271  0.00  0.00    +0.025 A 
ATOM     26  C   UNL     1       1.164   0.375  23.342  0.00  0.00    +0.048 A 
BRANCH  26   8
ATOM      8  N   UNL     1       2.427  -0.273  23.184  0.00  0.00    -0.221 N 
ATOM     29  H   UNL     1       2.663  -0.919  23.950  0.00  0.00    +0.173 HD
BRANCH   8   1
ATOM      1  S   UNL     1       3.746   0.650  22.575  0.00  0.00    +0.040 S 
ATOM      5  O   UNL     1       3.929   0.319  21.174  0.00  0.00    -0.155 OA
ATOM      6  O   UNL     1       3.650   2.034  22.999  0.00  0.00    -0.155 OA
ATOM     27  C   UNL     1       5.092  -0.102  23.462  0.00  0.00    +0.218 C 
ENDBRANCH   8   1
ENDBRANCH  26   8
ENDBRANCH  17  21
BRANCH  17   3
ATOM      3  O   UNL     1      -3.559   1.806  22.870  0.00  0.00    -0.385 OA
ATOM     28  H   UNL     1      -3.605   2.422  22.118  0.00  0.00    +0.210 HD
ENDBRANCH  17   3
TORSDOF 7
ENDMDL
MODEL 2
REMARK VINA RESULT:      -3.6      1.159      1.556
REMARK  Name = 56774637
REMARK  8 active torsions:
REMARK  status: ('A' for Active; 'I' for Inactive)
REMARK    1  A    between atoms: S_1  and  N_8
REMARK    2  A    between atoms: S_1  and  C_27
REMARK    3  A    between atoms: O_3  and  C_17
REMARK    4  A    between atoms: N_7  and  C_12
REMARK    5  A    between atoms: N_8  and  C_26
REMARK    6  A    between atoms: C_9  and  C_12
REMARK    7  A    between atoms: C_16  and  C_17
REMARK    8  A    between atoms: C_17  and  C_21
REMARK                            x       y       z     vdW  Elec       q    Type
REMARK                         _______ _______ _______ _____ _____    ______ ____
ROOT
ATOM     17  C   UNL     1      -1.946   2.212  23.861  0.00  0.00    +0.167 C 
ENDROOT
BRANCH  17  16
ATOM      2  O   UNL     1      -2.179   4.410  25.790  0.00  0.00    -0.369 OA
ATOM      4  O   UNL     1      -5.707   3.756  25.388  0.00  0.00    -0.273 OA
ATOM      7  N   UNL     1      -3.923   2.263  25.336  0.00  0.00    -0.291 N 
ATOM     16  C   UNL     1      -2.465   2.089  25.297  0.00  0.00    +0.135 C 
ATOM     18  C   UNL     1      -1.795   3.107  26.211  0.00  0.00    +0.185 C 
ATOM     19  C   UNL     1      -4.505   3.516  25.516  0.00  0.00    +0.242 C 
ATOM     20  C   UNL     1      -3.559   4.617  25.983  0.00  0.00    +0.255 C 
BRANCH   7  12
ATOM     12  C   UNL     1      -4.747   1.110  24.997  0.00  0.00    +0.112 C 
BRANCH  12   9
ATOM      9  C   UNL     1      -3.883  -0.129  24.766  0.00  0.00    +0.006 C 
ATOM     10  C   UNL     1      -3.494  -0.774  26.103  0.00  0.00    +0.005 C 
ATOM     11  C   UNL     1      -4.611  -1.135  23.865  0.00  0.00    +0.005 C 
ATOM     13  C   UNL     1      -2.674  -2.046  25.898  0.00  0.00    +0.000 C 
ATOM     14  C   UNL     1      -3.790  -2.407  23.664  0.00  0.00    +0.000 C 
ATOM     15  C   UNL     1      -3.397  -3.041  24.994  0.00  0.00    +0.000 C 
ENDBRANCH  12   9
ENDBRANCH   7  12
ENDBRANCH  17  16
BRANCH  17  21
ATOM     21  C   UNL     1      -0.657   1.456  23.666  0.00  0.00    -0.017 A 
ATOM     22  C   UNL     1       0.563   2.130  23.731  0.00  0.00    +0.008 A 
ATOM     23  C   UNL     1      -0.683   0.084  23.418  0.00  0.00    +0.008 A 
ATOM     24  C   UNL     1       1.756   1.430  23.549  0.00  0.00    +0.025 A 
ATOM     25  C   UNL     1       0.510  -0.616  23.235  0.00  0.00    +0.025 A 
ATOM     26  C   UNL     1       1.730   0.058  23.301  0.00  0.00    +0.048 A 
BRANCH  26   8
ATOM      8  N   UNL     1       2.951  -0.658  23.115  0.00  0.00    -0.221 N 
ATOM     29  H   UNL     1       3.008  -1.533  23.654  0.00  0.00    +0.173 HD
BRANCH   8   1
ATOM      1  S   UNL     1       4.416   0.241  23.025  0.00  0.00    +0.040 S 
ATOM      5  O   UNL     1       5.039  -0.023  21.740  0.00  0.00    -0.155 OA
ATOM      6  O   UNL     1       4.218   1.603  23.482  0.00  0.00    -0.155 OA
ATOM     27  C   UNL     1       5.383  -0.611  24.251  0.00  0.00    +0.218 C 
ENDBRANCH   8   1
ENDBRANCH  26   8
ENDBRANCH  17  21
BRANCH  17   3
ATOM      3  O   UNL     1      -2.930   1.715  22.961  0.00  0.00    -0.385 OA
ATOM     28  H   UNL     1      -3.225   2.450  22.395  0.00  0.00    +0.210 HD
ENDBRANCH  17   3
TORSDOF 7
ENDMDL
MODEL 3
REMARK VINA RESULT:      -3.2      1.806      2.539
REMARK  Name = 56774637
REMARK  8 active torsions:
REMARK  status: ('A' for Active; 'I' for Inactive)
REMARK    1  A    between atoms: S_1  and  N_8
REMARK    2  A    between atoms: S_1  and  C_27
REMARK    3  A    between atoms: O_3  and  C_17
REMARK    4  A    between atoms: N_7  and  C_12
REMARK    5  A    between atoms: N_8  and  C_26
REMARK    6  A    between atoms: C_9  and  C_12
REMARK    7  A    between atoms: C_16  and  C_17
REMARK    8  A    between atoms: C_17  and  C_21
REMARK                            x       y       z     vdW  Elec       q    Type
REMARK                         _______ _______ _______ _____ _____    ______ ____
ROOT
ATOM     17  C   UNL     1      -2.505   3.888  26.150  0.00  0.00    +0.167 C 
ENDROOT
BRANCH  17  16
ATOM      2  O   UNL     1      -4.106   4.445  23.755  0.00  0.00    -0.369 OA
ATOM      4  O   UNL     1      -3.115   1.082  22.892  0.00  0.00    -0.273 OA
ATOM      7  N   UNL     1      -3.564   1.987  24.988  0.00  0.00    -0.291 N 
ATOM     16  C   UNL     1      -3.821   3.200  25.775  0.00  0.00    +0.135 C 
ATOM     18  C   UNL     1      -4.730   4.143  24.996  0.00  0.00    +0.185 C 
ATOM     19  C   UNL     1      -3.493   2.019  23.597  0.00  0.00    +0.242 C 
ATOM     20  C   UNL     1      -4.009   3.297  22.944  0.00  0.00    +0.255 C 
BRANCH   7  12
ATOM     12  C   UNL     1      -3.201   0.778  25.716  0.00  0.00    +0.112 C 
BRANCH  12   9
ATOM      9  C   UNL     1      -3.103  -0.419  24.771  0.00  0.00    +0.006 C 
ATOM     10  C   UNL     1      -2.081  -1.438  25.295  0.00  0.00    +0.005 C 
ATOM     11  C   UNL     1      -4.477  -1.072  24.579  0.00  0.00    +0.005 C 
ATOM     13  C   UNL     1      -2.003  -2.670  24.395  0.00  0.00    +0.000 C 
ATOM     14  C   UNL     1      -4.395  -2.305  23.682  0.00  0.00    +0.000 C 
ATOM     15  C   UNL     1      -3.374  -3.312  24.199  0.00  0.00    +0.000 C 
ENDBRANCH  12   9
ENDBRANCH   7  12
ENDBRANCH  17  16
BRANCH  17  21
ATOM     21  C   UNL     1      -1.326   3.260  25.452  0.00  0.00    -0.017 A 
ATOM     22  C   UNL     1      -0.892   3.764  24.226  0.00  0.00    +0.008 A 
ATOM     23  C   UNL     1      -0.670   2.174  26.032  0.00  0.00    +0.008 A 
ATOM     24  C   UNL     1       0.199   3.182  23.580  0.00  0.00    +0.025 A 
ATOM     25  C   UNL     1       0.420   1.591  25.385  0.00  0.00    +0.025 A 
ATOM     26  C   UNL     1       0.854   2.095  24.159  0.00  0.00    +0.048 A 
BRANCH  26   8
ATOM      8  N   UNL     1       1.970   1.499  23.497  0.00  0.00    -0.221 N 
ATOM     29  H   UNL     1       2.490   2.148  22.890  0.00  0.00    +0.173 HD
BRANCH   8   1
ATOM      1  S   UNL     1       1.793  -0.097  22.878  0.00  0.00    +0.040 S 
ATOM      5  O   UNL     1       0.747  -0.767  23.630  0.00  0.00    -0.155 OA
ATOM      6  O   UNL     1       1.771  -0.092  21.428  0.00  0.00    -0.155 OA
ATOM     27  C   UNL     1       3.337  -0.809  23.399  0.00  0.00    +0.218 C 
ENDBRANCH   8   1
ENDBRANCH  26   8
ENDBRANCH  17  21
BRANCH  17   3
ATOM      3  O   UNL     1      -2.581   5.268  25.808  0.00  0.00    -0.385 OA
ATOM     28  H   UNL     1      -3.267   5.682  26.359  0.00  0.00    +0.210 HD
ENDBRANCH  17   3
TORSDOF 7
ENDMDL
MODEL 4
REMARK VINA RESULT:      -2.1      1.686      2.538
REMARK  Name = 56774637
REMARK  8 active torsions:
REMARK  status: ('A' for Active; 'I' for Inactive)
REMARK    1  A    between atoms: S_1  and  N_8
REMARK    2  A    between atoms: S_1  and  C_27
REMARK    3  A    between atoms: O_3  and  C_17
REMARK    4  A    between atoms: N_7  and  C_12
REMARK    5  A    between atoms: N_8  and  C_26
REMARK    6  A    between atoms: C_9  and  C_12
REMARK    7  A    between atoms: C_16  and  C_17
REMARK    8  A    between atoms: C_17  and  C_21
REMARK                            x       y       z     vdW  Elec       q    Type
REMARK                         _______ _______ _______ _____ _____    ______ ____
ROOT
ATOM     17  C   UNL     1      -2.482   3.214  26.251  0.00  0.00    +0.167 C 
ENDROOT
BRANCH  17  16
ATOM      2  O   UNL     1      -4.871   4.618  25.288  0.00  0.00    -0.369 OA
ATOM      4  O   UNL     1      -3.854   3.192  22.130  0.00  0.00    -0.273 OA
ATOM      7  N   UNL     1      -3.647   2.309  24.273  0.00  0.00    -0.291 N 
ATOM     16  C   UNL     1      -3.755   2.549  25.718  0.00  0.00    +0.135 C 
ATOM     18  C   UNL     1      -4.983   3.401  26.014  0.00  0.00    +0.185 C 
ATOM     19  C   UNL     1      -4.071   3.255  23.342  0.00  0.00    +0.242 C 
ATOM     20  C   UNL     1      -4.929   4.386  23.899  0.00  0.00    +0.255 C 
BRANCH   7  12
ATOM     12  C   UNL     1      -2.914   1.127  23.840  0.00  0.00    +0.112 C 
BRANCH  12   9
ATOM      9  C   UNL     1      -3.544  -0.144  24.406  0.00  0.00    +0.006 C 
ATOM     10  C   UNL     1      -3.874  -1.132  23.278  0.00  0.00    +0.005 C 
ATOM     11  C   UNL     1      -2.620  -0.791  25.446  0.00  0.00    +0.005 C 
ATOM     13  C   UNL     1      -4.457  -2.434  23.823  0.00  0.00    +0.000 C 
ATOM     14  C   UNL     1      -3.204  -2.093  25.987  0.00  0.00    +0.000 C 
ATOM     15  C   UNL     1      -3.539  -3.070  24.864  0.00  0.00    +0.000 C 
ENDBRANCH  12   9
ENDBRANCH   7  12
ENDBRANCH  17  16
BRANCH  17  21
ATOM     21  C   UNL     1      -1.258   2.764  25.496  0.00  0.00    -0.017 A 
ATOM     22  C   UNL     1      -0.777   3.524  24.430  0.00  0.00    +0.008 A 
ATOM     23  C   UNL     1      -0.606   1.586  25.862  0.00  0.00    +0.008 A 
ATOM     24  C   UNL     1       0.355   3.107  23.730  0.00  0.00    +0.025 A 
ATOM     25  C   UNL     1       0.526   1.168  25.162  0.00  0.00    +0.025 A 
ATOM     26  C   UNL     1       1.007   1.929  24.096  0.00  0.00    +0.048 A 
BRANCH  26   8
ATOM      8  N   UNL     1       2.166   1.502  23.380  0.00  0.00    -0.221 N 
ATOM     29  H   UNL     1       2.608   2.244  22.821  0.00  0.00    +0.173 HD
BRANCH   8   1
ATOM      1  S   UNL     1       2.139  -0.052  22.640  0.00  0.00    +0.040 S 
ATOM      5  O   UNL     1       0.943  -0.748  23.077  0.00  0.00    -0.155 OA
ATOM      6  O   UNL     1       2.465   0.039  21.230  0.00  0.00    -0.155 OA
ATOM     27  C   UNL     1       3.513  -0.819  23.469  0.00  0.00    +0.218 C 
ENDBRANCH   8   1
ENDBRANCH  26   8
ENDBRANCH  17  21
BRANCH  17   3
ATOM      3  O   UNL     1      -2.611   4.628  26.149  0.00  0.00    -0.385 OA
ATOM     28  H   UNL     1      -3.551   4.856  26.247  0.00  0.00    +0.210 HD
ENDBRANCH  17   3
TORSDOF 7
ENDMDL
MODEL 5
REMARK VINA RESULT:      -1.4      2.561      6.727
REMARK  Name = 56774637
REMARK  8 active torsions:
REMARK  status: ('A' for Active; 'I' for Inactive)
REMARK    1  A    between atoms: S_1  and  N_8
REMARK    2  A    between atoms: S_1  and  C_27
REMARK    3  A    between atoms: O_3  and  C_17
REMARK    4  A    between atoms: N_7  and  C_12
REMARK    5  A    between atoms: N_8  and  C_26
REMARK    6  A    between atoms: C_9  and  C_12
REMARK    7  A    between atoms: C_16  and  C_17
REMARK    8  A    between atoms: C_17  and  C_21
REMARK                            x       y       z     vdW  Elec       q    Type
REMARK                         _______ _______ _______ _____ _____    ______ ____
ROOT
ATOM     17  C   UNL     1       0.683   1.468  23.719  0.00  0.00    +0.167 C 
ENDROOT
BRANCH  17  16
ATOM      2  O   UNL     1       2.654   0.392  21.831  0.00  0.00    -0.369 OA
ATOM      4  O   UNL     1       3.219  -1.970  24.504  0.00  0.00    -0.273 OA
ATOM      7  N   UNL     1       1.239  -0.932  23.857  0.00  0.00    -0.291 N 
ATOM     16  C   UNL     1       0.606   0.103  23.028  0.00  0.00    +0.135 C 
ATOM     18  C   UNL     1       1.265   0.145  21.655  0.00  0.00    +0.185 C 
ATOM     19  C   UNL     1       2.591  -1.242  23.731  0.00  0.00    +0.242 C 
ATOM     20  C   UNL     1       3.280  -0.685  22.490  0.00  0.00    +0.255 C 
BRANCH   7  12
ATOM     12  C   UNL     1       0.451  -1.498  24.944  0.00  0.00    +0.112 C 
BRANCH  12   9
ATOM      9  C   UNL     1      -1.044  -1.316  24.687  0.00  0.00    +0.006 C 
ATOM     10  C   UNL     1      -1.717  -2.671  24.429  0.00  0.00    +0.005 C 
ATOM     11  C   UNL     1      -1.711  -0.589  25.862  0.00  0.00    +0.005 C 
ATOM     13  C   UNL     1      -3.223  -2.522  24.222  0.00  0.00    +0.000 C 
ATOM     14  C   UNL     1      -3.216  -0.444  25.653  0.00  0.00    +0.000 C 
ATOM     15  C   UNL     1      -3.881  -1.791  25.389  0.00  0.00    +0.000 C 
ENDBRANCH  12   9
ENDBRANCH   7  12
ENDBRANCH  17  16
BRANCH  17  21
ATOM     21  C   UNL     1      -0.676   2.109  23.844  0.00  0.00    -0.017 A 
ATOM     22  C   UNL     1      -0.882   3.131  24.770  0.00  0.00    +0.008 A 
ATOM     23  C   UNL     1      -1.727   1.679  23.034  0.00  0.00    +0.008 A 
ATOM     24  C   UNL     1      -2.139   3.724  24.886  0.00  0.00    +0.025 A 
ATOM     25  C   UNL     1      -2.985   2.271  23.151  0.00  0.00    +0.025 A 
ATOM     26  C   UNL     1      -3.191   3.293  24.077  0.00  0.00    +0.048 A 
BRANCH  26   8
ATOM      8  N   UNL     1      -4.478   3.900  24.195  0.00  0.00    -0.221 N 
ATOM     29  H   UNL     1      -4.516   4.869  23.851  0.00  0.00    +0.173 HD
BRANCH   8   1
ATOM      1  S   UNL     1      -5.393   3.595  25.621  0.00  0.00    +0.040 S 
ATOM      5  O   UNL     1      -4.472   3.363  26.718  0.00  0.00    -0.155 OA
ATOM      6  O   UNL     1      -6.475   4.551  25.757  0.00  0.00    -0.155 OA
ATOM     27  C   UNL     1      -6.106   2.019  25.205  0.00  0.00    +0.218 C 
ENDBRANCH   8   1
ENDBRANCH  26   8
ENDBRANCH  17  21
BRANCH  17   3
ATOM      3  O   UNL     1       1.254   1.309  25.013  0.00  0.00    -0.385 OA
ATOM     28  H   UNL     1       2.094   1.800  25.038  0.00  0.00    +0.210 HD
ENDBRANCH  17   3
TORSDOF 7
ENDMDL
MODEL 6
REMARK VINA RESULT:      -0.9      3.074      6.979
REMARK  Name = 56774637
REMARK  8 active torsions:
REMARK  status: ('A' for Active; 'I' for Inactive)
REMARK    1  A    between atoms: S_1  and  N_8
REMARK    2  A    between atoms: S_1  and  C_27
REMARK    3  A    between atoms: O_3  and  C_17
REMARK    4  A    between atoms: N_7  and  C_12
REMARK    5  A    between atoms: N_8  and  C_26
REMARK    6  A    between atoms: C_9  and  C_12
REMARK    7  A    between atoms: C_16  and  C_17
REMARK    8  A    between atoms: C_17  and  C_21
REMARK                            x       y       z     vdW  Elec       q    Type
REMARK                         _______ _______ _______ _____ _____    ______ ____
ROOT
ATOM     17  C   UNL     1      -0.219   2.886  23.618  0.00  0.00    +0.167 C 
ENDROOT
BRANCH  17  16
ATOM      2  O   UNL     1      -1.292   1.305  25.844  0.00  0.00    -0.369 OA
ATOM      4  O   UNL     1      -0.426  -1.452  23.679  0.00  0.00    -0.273 OA
ATOM      7  N   UNL     1       0.644   0.597  23.945  0.00  0.00    -0.291 N 
ATOM     16  C   UNL     1       0.590   1.948  24.519  0.00  0.00    +0.135 C 
ATOM     18  C   UNL     1       0.000   1.893  25.923  0.00  0.00    +0.185 C 
ATOM     19  C   UNL     1      -0.314  -0.367  24.252  0.00  0.00    +0.242 C 
ATOM     20  C   UNL     1      -1.211  -0.044  25.442  0.00  0.00    +0.255 C 
BRANCH   7  12
ATOM     12  C   UNL     1       1.626   0.351  22.898  0.00  0.00    +0.112 C 
BRANCH  12   9
ATOM      9  C   UNL     1       3.028   0.203  23.488  0.00  0.00    +0.006 C 
ATOM     10  C   UNL     1       3.488  -1.260  23.428  0.00  0.00    +0.005 C 
ATOM     11  C   UNL     1       4.021   1.118  22.761  0.00  0.00    +0.005 C 
ATOM     13  C   UNL     1       4.909  -1.426  23.964  0.00  0.00    +0.000 C 
ATOM     14  C   UNL     1       5.440   0.948  23.296  0.00  0.00    +0.000 C 
ATOM     15  C   UNL     1       5.892  -0.507  23.244  0.00  0.00    +0.000 C 
ENDBRANCH  12   9
ENDBRANCH   7  12
ENDBRANCH  17  16
BRANCH  17  21
ATOM     21  C   UNL     1      -1.644   3.023  24.088  0.00  0.00    -0.017 A 
ATOM     22  C   UNL     1      -1.936   3.795  25.213  0.00  0.00    +0.008 A 
ATOM     23  C   UNL     1      -2.671   2.378  23.400  0.00  0.00    +0.008 A 
ATOM     24  C   UNL     1      -3.255   3.921  25.649  0.00  0.00    +0.025 A 
ATOM     25  C   UNL     1      -3.990   2.503  23.837  0.00  0.00    +0.025 A 
ATOM     26  C   UNL     1      -4.282   3.275  24.962  0.00  0.00    +0.048 A 
BRANCH  26   8
ATOM      8  N   UNL     1      -5.632   3.404  25.408  0.00  0.00    -0.221 N 
ATOM     29  H   UNL     1      -5.768   4.135  26.119  0.00  0.00    +0.173 HD
BRANCH   8   1
ATOM      1  S   UNL     1      -6.550   1.968  25.651  0.00  0.00    +0.040 S 
ATOM      5  O   UNL     1      -7.052   1.970  27.013  0.00  0.00    -0.155 OA
ATOM      6  O   UNL     1      -7.445   1.729  24.536  0.00  0.00    -0.155 OA
ATOM     27  C   UNL     1      -5.254   0.751  25.582  0.00  0.00    +0.218 C 
ENDBRANCH   8   1
ENDBRANCH  26   8
ENDBRANCH  17  21
BRANCH  17   3
ATOM      3  O   UNL     1       0.400   4.167  23.595  0.00  0.00    -0.385 OA
ATOM     28  H   UNL     1       1.238   4.110  24.086  0.00  0.00    +0.210 HD
ENDBRANCH  17   3
TORSDOF 7
ENDMDL
MODEL 7
REMARK VINA RESULT:      -0.7     15.144     17.755
REMARK  Name = 56774637
REMARK  8 active torsions:
REMARK  status: ('A' for Active; 'I' for Inactive)
REMARK    1  A    between atoms: S_1  and  N_8
REMARK    2  A    between atoms: S_1  and  C_27
REMARK    3  A    between atoms: O_3  and  C_17
REMARK    4  A    between atoms: N_7  and  C_12
REMARK    5  A    between atoms: N_8  and  C_26
REMARK    6  A    between atoms: C_9  and  C_12
REMARK    7  A    between atoms: C_16  and  C_17
REMARK    8  A    between atoms: C_17  and  C_21
REMARK                            x       y       z     vdW  Elec       q    Type
REMARK                         _______ _______ _______ _____ _____    ______ ____
ROOT
ATOM     17  C   UNL     1      -5.330 -10.585  12.451  0.00  0.00    +0.167 C 
ENDROOT
BRANCH  17  16
ATOM      2  O   UNL     1      -2.457 -10.431  11.880  0.00  0.00    -0.369 OA
ATOM      4  O   UNL     1      -3.617  -8.640   8.967  0.00  0.00    -0.273 OA
ATOM      7  N   UNL     1      -4.509  -8.680  11.116  0.00  0.00    -0.291 N 
ATOM     16  C   UNL     1      -4.488  -9.306  12.444  0.00  0.00    +0.135 C 
ATOM     18  C   UNL     1      -3.052  -9.593  12.863  0.00  0.00    +0.185 C 
ATOM     19  C   UNL     1      -3.558  -8.993  10.146  0.00  0.00    +0.242 C 
ATOM     20  C   UNL     1      -2.338  -9.759  10.646  0.00  0.00    +0.255 C 
BRANCH   7  12
ATOM     12  C   UNL     1      -5.663  -7.858  10.777  0.00  0.00    +0.112 C 
BRANCH  12   9
ATOM      9  C   UNL     1      -6.784  -8.710  10.183  0.00  0.00    +0.006 C 
ATOM     10  C   UNL     1      -8.061  -8.584  11.024  0.00  0.00    +0.005 C 
ATOM     11  C   UNL     1      -7.049  -8.315   8.724  0.00  0.00    +0.005 C 
ATOM     13  C   UNL     1      -9.214  -9.384  10.421  0.00  0.00    +0.000 C 
ATOM     14  C   UNL     1      -8.203  -9.114   8.125  0.00  0.00    +0.000 C 
ATOM     15  C   UNL     1      -9.469  -8.995   8.967  0.00  0.00    +0.000 C 
ENDBRANCH  12   9
ENDBRANCH   7  12
ENDBRANCH  17  16
BRANCH  17  21
ATOM     21  C   UNL     1      -6.425 -10.529  13.486  0.00  0.00    -0.017 A 
ATOM     22  C   UNL     1      -6.115 -10.226  14.812  0.00  0.00    +0.008 A 
ATOM     23  C   UNL     1      -7.746 -10.781  13.118  0.00  0.00    +0.008 A 
ATOM     24  C   UNL     1      -7.128 -10.176  15.770  0.00  0.00    +0.025 A 
ATOM     25  C   UNL     1      -8.759 -10.732  14.076  0.00  0.00    +0.025 A 
ATOM     26  C   UNL     1      -8.449 -10.429  15.403  0.00  0.00    +0.048 A 
BRANCH  26   8
ATOM      8  N   UNL     1      -9.486 -10.377  16.383  0.00  0.00    -0.221 N 
ATOM     29  H   UNL     1     -10.426 -10.238  15.989  0.00  0.00    +0.173 HD
BRANCH   8   1
ATOM      1  S   UNL     1      -9.177  -9.532  17.851  0.00  0.00    +0.040 S 
ATOM      5  O   UNL     1      -8.137 -10.238  18.577  0.00  0.00    -0.155 OA
ATOM      6  O   UNL     1      -9.073  -8.105  17.615  0.00  0.00    -0.155 OA
ATOM     27  C   UNL     1     -10.703  -9.833  18.714  0.00  0.00    +0.218 C 
ENDBRANCH   8   1
ENDBRANCH  26   8
ENDBRANCH  17  21
BRANCH  17   3
ATOM      3  O   UNL     1      -5.903 -10.779  11.163  0.00  0.00    -0.385 OA
ATOM     28  H   UNL     1      -5.608 -11.641  10.823  0.00  0.00    +0.210 HD
ENDBRANCH  17   3
TORSDOF 7
ENDMDL
