MODEL 1
REMARK VINA RESULT:      -0.8      0.000      0.000
REMARK  Name = 51136670
REMARK  9 active torsions:
REMARK  status: ('A' for Active; 'I' for Inactive)
REMARK    1  A    between atoms: O_1  and  C_18
REMARK    2  A    between atoms: O_4  and  C_26
REMARK    3  A    between atoms: O_4  and  C_28
REMARK    4  A    between atoms: N_7  and  C_25
REMARK    5  A    between atoms: C_8  and  C_12
REMARK    6  A    between atoms: C_9  and  C_14
REMARK    7  A    between atoms: C_12  and  C_15
REMARK    8  A    between atoms: C_14  and  C_18
REMARK    9  A    between atoms: C_25  and  C_27
REMARK                            x       y       z     vdW  Elec       q    Type
REMARK                         _______ _______ _______ _____ _____    ______ ____
ROOT
ATOM      2  O   UNL     1      -1.852  -2.677  24.236  0.00  0.00    -0.253 OA
ATOM      5  N   UNL     1      -0.401  -1.001  24.919  0.00  0.00    -0.285 N 
ATOM      7  N   UNL     1      -2.719  -0.883  25.370  0.00  0.00    -0.296 N 
ATOM      8  C   UNL     1       0.552   1.262  24.585  0.00  0.00    +0.016 C 
ATOM      9  C   UNL     1       1.792   0.604  23.923  0.00  0.00    +0.006 C 
ATOM     10  C   UNL     1       1.456  -0.773  23.324  0.00  0.00    +0.023 C 
ATOM     11  C   UNL     1      -0.088   0.276  25.576  0.00  0.00    +0.113 C 
ATOM     13  C   UNL     1       0.764  -1.675  24.347  0.00  0.00    +0.109 C 
ATOM     16  C   UNL     1      -1.669  -1.595  24.806  0.00  0.00    +0.302 C 
ATOM     30  H   UNL     1      -2.570   0.041  25.754  0.00  0.00    +0.151 HD
ENDROOT
BRANCH   8  12
ATOM     12  C   UNL     1      -0.493   1.770  23.584  0.00  0.00    +0.061 C 
BRANCH  12  15
ATOM      6  N   UNL     1      -0.486   4.076  24.256  0.00  0.00    -0.287 NA
ATOM     15  C   UNL     1      -1.183   2.994  24.139  0.00  0.00    +0.044 C 
ATOM     17  C   UNL     1      -2.613   2.895  24.526  0.00  0.00    -0.001 A 
ATOM     19  C   UNL     1      -3.107   3.893  25.376  0.00  0.00    -0.033 A 
ATOM     20  C   UNL     1      -2.172   4.969  25.843  0.00  0.00    +0.059 C 
ATOM     21  C   UNL     1      -1.171   5.281  24.738  0.00  0.00    +0.146 C 
ATOM     22  C   UNL     1      -3.443   1.861  24.091  0.00  0.00    +0.013 A 
ATOM     23  C   UNL     1      -4.434   3.835  25.809  0.00  0.00    +0.050 A 
ATOM     24  C   UNL     1      -4.771   1.820  24.517  0.00  0.00    +0.046 A 
ATOM     26  C   UNL     1      -5.266   2.802  25.376  0.00  0.00    +0.120 A 
BRANCH  26   4
ATOM      4  O   UNL     1      -6.560   2.751  25.793  0.00  0.00    -0.495 OA
ATOM     28  C   UNL     1      -6.882   1.780  26.789  0.00  0.00    +0.277 C 
ENDBRANCH  26   4
ENDBRANCH  12  15
ENDBRANCH   8  12
BRANCH   9  14
ATOM     14  C   UNL     1       2.460   1.497  22.880  0.00  0.00    +0.124 C 
BRANCH  14  18
ATOM      3  O   UNL     1       4.792   0.949  23.326  0.00  0.00    -0.251 OA
ATOM     18  C   UNL     1       3.850   1.026  22.553  0.00  0.00    +0.305 C 
BRANCH  18   1
ATOM      1  O   UNL     1       3.921   0.685  21.240  0.00  0.00    -0.481 OA
ATOM     31  H   UNL     1       4.832   0.434  20.976  0.00  0.00    +0.295 HD
ENDBRANCH  18   1
ENDBRANCH  14  18
ENDBRANCH   9  14
BRANCH   7  25
ATOM     25  C   UNL     1      -4.084  -1.359  25.328  0.00  0.00    +0.132 C 
BRANCH  25  27
ATOM     27  C   UNL     1      -4.466  -1.616  23.908  0.00  0.00    -0.016 C 
ATOM     29  C   UNL     1      -4.729  -2.832  23.416  0.00  0.00    +0.005 C 
ENDBRANCH  25  27
ENDBRANCH   7  25
TORSDOF 8
ENDMDL
MODEL 2
REMARK VINA RESULT:      -0.8     14.306     17.976
REMARK  Name = 51136670
REMARK  9 active torsions:
REMARK  status: ('A' for Active; 'I' for Inactive)
REMARK    1  A    between atoms: O_1  and  C_18
REMARK    2  A    between atoms: O_4  and  C_26
REMARK    3  A    between atoms: O_4  and  C_28
REMARK    4  A    between atoms: N_7  and  C_25
REMARK    5  A    between atoms: C_8  and  C_12
REMARK    6  A    between atoms: C_9  and  C_14
REMARK    7  A    between atoms: C_12  and  C_15
REMARK    8  A    between atoms: C_14  and  C_18
REMARK    9  A    between atoms: C_25  and  C_27
REMARK                            x       y       z     vdW  Elec       q    Type
REMARK                         _______ _______ _______ _____ _____    ______ ____
ROOT
ATOM      2  O   UNL     1      -2.878  -9.999   9.212  0.00  0.00    -0.253 OA
ATOM      5  N   UNL     1      -4.783  -8.936   9.999  0.00  0.00    -0.285 N 
ATOM      7  N   UNL     1      -2.928  -9.343  11.408  0.00  0.00    -0.296 N 
ATOM      8  C   UNL     1      -6.903  -9.030  11.279  0.00  0.00    +0.016 C 
ATOM      9  C   UNL     1      -7.666  -9.174   9.935  0.00  0.00    +0.006 C 
ATOM     10  C   UNL     1      -6.777  -9.779   8.835  0.00  0.00    +0.023 C 
ATOM     11  C   UNL     1      -5.582  -8.279  11.043  0.00  0.00    +0.113 C 
ATOM     13  C   UNL     1      -5.455  -9.022   8.703  0.00  0.00    +0.109 C 
ATOM     16  C   UNL     1      -3.487  -9.460  10.143  0.00  0.00    +0.302 C 
ATOM     30  H   UNL     1      -3.470  -8.980  12.181  0.00  0.00    +0.151 HD
ENDROOT
BRANCH   8  12
ATOM     12  C   UNL     1      -6.643 -10.361  11.994  0.00  0.00    +0.061 C 
BRANCH  12  15
ATOM      6  N   UNL     1      -8.769 -10.482  13.104  0.00  0.00    -0.287 NA
ATOM     15  C   UNL     1      -7.485 -10.445  13.245  0.00  0.00    +0.044 C 
ATOM     17  C   UNL     1      -6.804 -10.476  14.564  0.00  0.00    -0.001 A 
ATOM     19  C   UNL     1      -7.586 -10.165  15.684  0.00  0.00    -0.033 A 
ATOM     20  C   UNL     1      -9.029  -9.815  15.480  0.00  0.00    +0.059 C 
ATOM     21  C   UNL     1      -9.584 -10.624  14.316  0.00  0.00    +0.146 C 
ATOM     22  C   UNL     1      -5.450 -10.781  14.708  0.00  0.00    +0.013 A 
ATOM     23  C   UNL     1      -6.995 -10.138  16.950  0.00  0.00    +0.050 A 
ATOM     24  C   UNL     1      -4.873 -10.766  15.978  0.00  0.00    +0.046 A 
ATOM     26  C   UNL     1      -5.642 -10.442  17.097  0.00  0.00    +0.120 A 
BRANCH  26   4
ATOM      4  O   UNL     1      -5.070 -10.421  18.331  0.00  0.00    -0.495 OA
ATOM     28  C   UNL     1      -5.951 -10.401  19.454  0.00  0.00    +0.277 C 
ENDBRANCH  26   4
ENDBRANCH  12  15
ENDBRANCH   8  12
BRANCH   9  14
ATOM     14  C   UNL     1      -8.971  -9.958  10.067  0.00  0.00    +0.124 C 
BRANCH  14  18
ATOM      3  O   UNL     1     -10.679  -9.444   8.407  0.00  0.00    -0.251 OA
ATOM     18  C   UNL     1     -10.132  -9.210   9.474  0.00  0.00    +0.305 C 
BRANCH  18   1
ATOM      1  O   UNL     1     -10.502  -8.204  10.308  0.00  0.00    -0.481 OA
ATOM     31  H   UNL     1     -10.656  -7.364   9.824  0.00  0.00    +0.295 HD
ENDBRANCH  18   1
ENDBRANCH  14  18
ENDBRANCH   9  14
BRANCH   7  25
ATOM     25  C   UNL     1      -1.605  -9.841  11.715  0.00  0.00    +0.132 C 
BRANCH  25  27
ATOM     27  C   UNL     1      -0.596  -8.811  11.331  0.00  0.00    -0.016 C 
ATOM     29  C   UNL     1       0.543  -9.089  10.685  0.00  0.00    +0.005 C 
ENDBRANCH  25  27
ENDBRANCH   7  25
TORSDOF 8
ENDMDL
MODEL 3
REMARK VINA RESULT:      -0.0      1.730      5.103
REMARK  Name = 51136670
REMARK  9 active torsions:
REMARK  status: ('A' for Active; 'I' for Inactive)
REMARK    1  A    between atoms: O_1  and  C_18
REMARK    2  A    between atoms: O_4  and  C_26
REMARK    3  A    between atoms: O_4  and  C_28
REMARK    4  A    between atoms: N_7  and  C_25
REMARK    5  A    between atoms: C_8  and  C_12
REMARK    6  A    between atoms: C_9  and  C_14
REMARK    7  A    between atoms: C_12  and  C_15
REMARK    8  A    between atoms: C_14  and  C_18
REMARK    9  A    between atoms: C_25  and  C_27
REMARK                            x       y       z     vdW  Elec       q    Type
REMARK                         _______ _______ _______ _____ _____    ______ ____
ROOT
ATOM      2  O   UNL     1       3.408  -1.236  23.508  0.00  0.00    -0.253 OA
ATOM      5  N   UNL     1       1.191  -0.696  23.097  0.00  0.00    -0.285 N 
ATOM      7  N   UNL     1       2.927   0.865  22.726  0.00  0.00    -0.296 N 
ATOM      8  C   UNL     1      -0.892   0.448  23.801  0.00  0.00    +0.016 C 
ATOM      9  C   UNL     1      -1.428  -0.918  24.309  0.00  0.00    +0.006 C 
ATOM     10  C   UNL     1      -0.284  -1.884  24.664  0.00  0.00    +0.023 C 
ATOM     11  C   UNL     1       0.120   0.214  22.667  0.00  0.00    +0.113 C 
ATOM     13  C   UNL     1       0.716  -2.015  23.516  0.00  0.00    +0.109 C 
ATOM     16  C   UNL     1       2.566  -0.412  23.133  0.00  0.00    +0.302 C 
ATOM     30  H   UNL     1       2.222   1.556  22.507  0.00  0.00    +0.151 HD
ENDROOT
BRANCH   8  12
ATOM     12  C   UNL     1      -0.275   1.323  24.899  0.00  0.00    +0.061 C 
BRANCH  12  15
ATOM      6  N   UNL     1       0.109   3.647  24.430  0.00  0.00    -0.287 NA
ATOM     15  C   UNL     1      -0.759   2.746  24.754  0.00  0.00    +0.044 C 
ATOM     17  C   UNL     1      -2.195   3.040  24.993  0.00  0.00    -0.001 A 
ATOM     19  C   UNL     1      -2.533   4.379  25.233  0.00  0.00    -0.033 A 
ATOM     20  C   UNL     1      -1.440   5.406  25.245  0.00  0.00    +0.059 C 
ATOM     21  C   UNL     1      -0.373   5.018  24.230  0.00  0.00    +0.146 C 
ATOM     22  C   UNL     1      -3.178   2.049  25.000  0.00  0.00    +0.013 A 
ATOM     23  C   UNL     1      -3.861   4.716  25.505  0.00  0.00    +0.050 A 
ATOM     24  C   UNL     1      -4.504   2.399  25.258  0.00  0.00    +0.046 A 
ATOM     26  C   UNL     1      -4.845   3.727  25.513  0.00  0.00    +0.120 A 
BRANCH  26   4
ATOM      4  O   UNL     1      -6.140   4.058  25.771  0.00  0.00    -0.495 OA
ATOM     28  C   UNL     1      -6.559   5.371  25.401  0.00  0.00    +0.277 C 
ENDBRANCH  26   4
ENDBRANCH  12  15
ENDBRANCH   8  12
BRANCH   9  14
ATOM     14  C   UNL     1      -2.403  -0.782  25.478  0.00  0.00    +0.124 C 
BRANCH  14  18
ATOM      3  O   UNL     1      -4.704  -1.030  24.714  0.00  0.00    -0.251 OA
ATOM     18  C   UNL     1      -3.694  -1.505  25.211  0.00  0.00    +0.305 C 
BRANCH  18   1
ATOM      1  O   UNL     1      -3.585  -2.798  25.609  0.00  0.00    -0.481 OA
ATOM     31  H   UNL     1      -2.992  -2.894  26.386  0.00  0.00    +0.295 HD
ENDBRANCH  18   1
ENDBRANCH  14  18
ENDBRANCH   9  14
BRANCH   7  25
ATOM     25  C   UNL     1       4.303   1.310  22.715  0.00  0.00    +0.132 C 
BRANCH  25  27
ATOM     27  C   UNL     1       5.064   0.567  23.762  0.00  0.00    -0.016 C 
ATOM     29  C   UNL     1       6.195  -0.106  23.524  0.00  0.00    +0.005 C 
ENDBRANCH  25  27
ENDBRANCH   7  25
TORSDOF 8
ENDMDL
MODEL 4
REMARK VINA RESULT:       0.1      1.646      6.844
REMARK  Name = 51136670
REMARK  9 active torsions:
REMARK  status: ('A' for Active; 'I' for Inactive)
REMARK    1  A    between atoms: O_1  and  C_18
REMARK    2  A    between atoms: O_4  and  C_26
REMARK    3  A    between atoms: O_4  and  C_28
REMARK    4  A    between atoms: N_7  and  C_25
REMARK    5  A    between atoms: C_8  and  C_12
REMARK    6  A    between atoms: C_9  and  C_14
REMARK    7  A    between atoms: C_12  and  C_15
REMARK    8  A    between atoms: C_14  and  C_18
REMARK    9  A    between atoms: C_25  and  C_27
REMARK                            x       y       z     vdW  Elec       q    Type
REMARK                         _______ _______ _______ _____ _____    ______ ____
ROOT
ATOM      2  O   UNL     1      -5.145   4.148  24.597  0.00  0.00    -0.253 OA
ATOM      5  N   UNL     1      -4.561   2.070  25.445  0.00  0.00    -0.285 N 
ATOM      7  N   UNL     1      -3.086   3.914  25.579  0.00  0.00    -0.296 N 
ATOM      8  C   UNL     1      -3.303  -0.053  25.211  0.00  0.00    +0.016 C 
ATOM      9  C   UNL     1      -4.613  -0.734  24.732  0.00  0.00    +0.006 C 
ATOM     10  C   UNL     1      -5.591   0.280  24.112  0.00  0.00    +0.023 C 
ATOM     11  C   UNL     1      -3.646   1.139  26.121  0.00  0.00    +0.113 C 
ATOM     13  C   UNL     1      -5.831   1.467  25.044  0.00  0.00    +0.109 C 
ATOM     16  C   UNL     1      -4.321   3.427  25.171  0.00  0.00    +0.302 C 
ATOM     30  H   UNL     1      -2.388   3.293  25.967  0.00  0.00    +0.151 HD
ENDROOT
BRANCH   8  12
ATOM     12  C   UNL     1      -2.378   0.391  24.072  0.00  0.00    +0.061 C 
BRANCH  12  15
ATOM      6  N   UNL     1      -1.201   1.670  25.730  0.00  0.00    -0.287 NA
ATOM     15  C   UNL     1      -1.109   0.979  24.642  0.00  0.00    +0.044 C 
ATOM     17  C   UNL     1       0.172   0.741  23.929  0.00  0.00    -0.001 A 
ATOM     19  C   UNL     1       1.238   1.594  24.245  0.00  0.00    -0.033 A 
ATOM     20  C   UNL     1       1.015   2.680  25.254  0.00  0.00    +0.059 C 
ATOM     21  C   UNL     1       0.040   2.189  26.316  0.00  0.00    +0.146 C 
ATOM     22  C   UNL     1       0.330  -0.265  22.975  0.00  0.00    +0.013 A 
ATOM     23  C   UNL     1       2.458   1.448  23.579  0.00  0.00    +0.050 A 
ATOM     24  C   UNL     1       1.556  -0.412  22.327  0.00  0.00    +0.046 A 
ATOM     26  C   UNL     1       2.618   0.443  22.625  0.00  0.00    +0.120 A 
BRANCH  26   4
ATOM      4  O   UNL     1       3.809   0.298  21.983  0.00  0.00    -0.495 OA
ATOM     28  C   UNL     1       4.979   0.226  22.797  0.00  0.00    +0.277 C 
ENDBRANCH  26   4
ENDBRANCH  12  15
ENDBRANCH   8  12
BRANCH   9  14
ATOM     14  C   UNL     1      -4.367  -1.900  23.775  0.00  0.00    +0.124 C 
BRANCH  14  18
ATOM      3  O   UNL     1      -2.185  -2.979  23.673  0.00  0.00    -0.251 OA
ATOM     18  C   UNL     1      -3.244  -2.779  24.249  0.00  0.00    +0.305 C 
BRANCH  18   1
ATOM      1  O   UNL     1      -3.573  -3.341  25.440  0.00  0.00    -0.481 OA
ATOM     31  H   UNL     1      -4.507  -3.160  25.685  0.00  0.00    +0.295 HD
ENDBRANCH  18   1
ENDBRANCH  14  18
ENDBRANCH   9  14
BRANCH   7  25
ATOM     25  C   UNL     1      -2.689   5.287  25.360  0.00  0.00    +0.132 C 
BRANCH  25  27
ATOM     27  C   UNL     1      -1.226   5.331  25.070  0.00  0.00    -0.016 C 
ATOM     29  C   UNL     1      -0.672   4.837  23.956  0.00  0.00    +0.005 C 
ENDBRANCH  25  27
ENDBRANCH   7  25
TORSDOF 8
ENDMDL
MODEL 5
REMARK VINA RESULT:       0.3      1.317      2.081
REMARK  Name = 51136670
REMARK  9 active torsions:
REMARK  status: ('A' for Active; 'I' for Inactive)
REMARK    1  A    between atoms: O_1  and  C_18
REMARK    2  A    between atoms: O_4  and  C_26
REMARK    3  A    between atoms: O_4  and  C_28
REMARK    4  A    between atoms: N_7  and  C_25
REMARK    5  A    between atoms: C_8  and  C_12
REMARK    6  A    between atoms: C_9  and  C_14
REMARK    7  A    between atoms: C_12  and  C_15
REMARK    8  A    between atoms: C_14  and  C_18
REMARK    9  A    between atoms: C_25  and  C_27
REMARK                            x       y       z     vdW  Elec       q    Type
REMARK                         _______ _______ _______ _____ _____    ______ ____
ROOT
ATOM      2  O   UNL     1      -3.994  -2.058  24.360  0.00  0.00    -0.253 OA
ATOM      5  N   UNL     1      -1.908  -1.159  24.825  0.00  0.00    -0.285 N 
ATOM      7  N   UNL     1      -3.897  -0.033  25.430  0.00  0.00    -0.296 N 
ATOM      8  C   UNL     1      -0.109   0.455  24.273  0.00  0.00    +0.016 C 
ATOM      9  C   UNL     1       0.659  -0.697  23.571  0.00  0.00    +0.006 C 
ATOM     10  C   UNL     1      -0.290  -1.808  23.091  0.00  0.00    +0.023 C 
ATOM     11  C   UNL     1      -1.017  -0.126  25.371  0.00  0.00    +0.113 C 
ATOM     13  C   UNL     1      -1.204  -2.289  24.218  0.00  0.00    +0.109 C 
ATOM     16  C   UNL     1      -3.313  -1.147  24.841  0.00  0.00    +0.302 C 
ATOM     30  H   UNL     1      -3.330   0.745  25.740  0.00  0.00    +0.151 HD
ENDROOT
BRANCH   8  12
ATOM     12  C   UNL     1      -0.923   1.336  23.318  0.00  0.00    +0.061 C 
BRANCH  12  15
ATOM      6  N   UNL     1      -0.076   3.447  24.089  0.00  0.00    -0.287 NA
ATOM     15  C   UNL     1      -1.121   2.704  23.925  0.00  0.00    +0.044 C 
ATOM     17  C   UNL     1      -2.493   3.125  24.307  0.00  0.00    -0.001 A 
ATOM     19  C   UNL     1      -2.598   4.200  25.200  0.00  0.00    -0.033 A 
ATOM     20  C   UNL     1      -1.340   4.835  25.713  0.00  0.00    +0.059 C 
ATOM     21  C   UNL     1      -0.277   4.799  24.622  0.00  0.00    +0.146 C 
ATOM     22  C   UNL     1      -3.639   2.489  23.827  0.00  0.00    +0.013 A 
ATOM     23  C   UNL     1      -3.860   4.618  25.630  0.00  0.00    +0.050 A 
ATOM     24  C   UNL     1      -4.895   2.924  24.251  0.00  0.00    +0.046 A 
ATOM     26  C   UNL     1      -5.006   3.984  25.152  0.00  0.00    +0.120 A 
BRANCH  26   4
ATOM      4  O   UNL     1      -6.235   4.397  25.566  0.00  0.00    -0.495 OA
ATOM     28  C   UNL     1      -6.585   5.755  25.302  0.00  0.00    +0.277 C 
ENDBRANCH  26   4
ENDBRANCH  12  15
ENDBRANCH   8  12
BRANCH   9  14
ATOM     14  C   UNL     1       1.547  -0.213  22.426  0.00  0.00    +0.124 C 
BRANCH  14  18
ATOM      3  O   UNL     1       3.426   1.275  22.867  0.00  0.00    -0.251 OA
ATOM     18  C   UNL     1       2.920   0.163  22.908  0.00  0.00    +0.305 C 
BRANCH  18   1
ATOM      1  O   UNL     1       3.545  -0.932  23.412  0.00  0.00    -0.481 OA
ATOM     31  H   UNL     1       3.736  -1.598  22.715  0.00  0.00    +0.295 HD
ENDBRANCH  18   1
ENDBRANCH  14  18
ENDBRANCH   9  14
BRANCH   7  25
ATOM     25  C   UNL     1      -5.331   0.130  25.516  0.00  0.00    +0.132 C 
BRANCH  25  27
ATOM     27  C   UNL     1      -5.649   1.075  26.626  0.00  0.00    -0.016 C 
ATOM     29  C   UNL     1      -6.888   1.477  26.931  0.00  0.00    +0.005 C 
ENDBRANCH  25  27
ENDBRANCH   7  25
TORSDOF 8
ENDMDL
MODEL 6
REMARK VINA RESULT:       2.0      1.578      6.315
REMARK  Name = 51136670
REMARK  9 active torsions:
REMARK  status: ('A' for Active; 'I' for Inactive)
REMARK    1  A    between atoms: O_1  and  C_18
REMARK    2  A    between atoms: O_4  and  C_26
REMARK    3  A    between atoms: O_4  and  C_28
REMARK    4  A    between atoms: N_7  and  C_25
REMARK    5  A    between atoms: C_8  and  C_12
REMARK    6  A    between atoms: C_9  and  C_14
REMARK    7  A    between atoms: C_12  and  C_15
REMARK    8  A    between atoms: C_14  and  C_18
REMARK    9  A    between atoms: C_25  and  C_27
REMARK                            x       y       z     vdW  Elec       q    Type
REMARK                         _______ _______ _______ _____ _____    ______ ____
ROOT
ATOM      2  O   UNL     1      -4.078  -2.750  24.834  0.00  0.00    -0.253 OA
ATOM      5  N   UNL     1      -4.303  -0.563  24.097  0.00  0.00    -0.285 N 
ATOM      7  N   UNL     1      -2.263  -1.736  23.869  0.00  0.00    -0.296 N 
ATOM      8  C   UNL     1      -3.899   1.858  24.445  0.00  0.00    +0.016 C 
ATOM      9  C   UNL     1      -5.357   1.991  24.958  0.00  0.00    +0.006 C 
ATOM     10  C   UNL     1      -5.889   0.662  25.522  0.00  0.00    +0.023 C 
ATOM     11  C   UNL     1      -3.801   0.669  23.473  0.00  0.00    +0.113 C 
ATOM     13  C   UNL     1      -5.699  -0.484  24.528  0.00  0.00    +0.109 C 
ATOM     16  C   UNL     1      -3.583  -1.751  24.300  0.00  0.00    +0.302 C 
ATOM     30  H   UNL     1      -1.845  -0.885  23.515  0.00  0.00    +0.151 HD
ENDROOT
BRANCH   8  12
ATOM     12  C   UNL     1      -2.855   1.724  25.560  0.00  0.00    +0.061 C 
BRANCH  12  15
ATOM      6  N   UNL     1      -1.667   3.812  25.551  0.00  0.00    -0.287 NA
ATOM     15  C   UNL     1      -1.641   2.560  25.230  0.00  0.00    +0.044 C 
ATOM     17  C   UNL     1      -0.490   1.912  24.553  0.00  0.00    -0.001 A 
ATOM     19  C   UNL     1       0.430   2.761  23.922  0.00  0.00    -0.033 A 
ATOM     20  C   UNL     1       0.188   4.240  23.960  0.00  0.00    +0.059 C 
ATOM     21  C   UNL     1      -0.465   4.610  25.285  0.00  0.00    +0.146 C 
ATOM     22  C   UNL     1      -0.315   0.528  24.518  0.00  0.00    +0.013 A 
ATOM     23  C   UNL     1       1.515   2.211  23.233  0.00  0.00    +0.050 A 
ATOM     24  C   UNL     1       0.779  -0.010  23.840  0.00  0.00    +0.046 A 
ATOM     26  C   UNL     1       1.691   0.828  23.197  0.00  0.00    +0.120 A 
BRANCH  26   4
ATOM      4  O   UNL     1       2.751   0.295  22.531  0.00  0.00    -0.495 OA
ATOM     28  C   UNL     1       4.040   0.829  22.832  0.00  0.00    +0.277 C 
ENDBRANCH  26   4
ENDBRANCH  12  15
ENDBRANCH   8  12
BRANCH   9  14
ATOM     14  C   UNL     1      -5.535   3.118  25.975  0.00  0.00    +0.124 C 
BRANCH  14  18
ATOM      3  O   UNL     1      -4.567   4.868  24.582  0.00  0.00    -0.251 OA
ATOM     18  C   UNL     1      -5.452   4.471  25.325  0.00  0.00    +0.305 C 
BRANCH  18   1
ATOM      1  O   UNL     1      -6.527   5.218  25.684  0.00  0.00    -0.481 OA
ATOM     31  H   UNL     1      -7.351   4.906  25.252  0.00  0.00    +0.295 HD
ENDBRANCH  18   1
ENDBRANCH  14  18
ENDBRANCH   9  14
BRANCH   7  25
ATOM     25  C   UNL     1      -1.391  -2.879  24.016  0.00  0.00    +0.132 C 
BRANCH  25  27
ATOM     27  C   UNL     1      -0.777  -2.853  25.375  0.00  0.00    -0.016 C 
ATOM     29  C   UNL     1       0.541  -2.786  25.597  0.00  0.00    +0.005 C 
ENDBRANCH  25  27
ENDBRANCH   7  25
TORSDOF 8
ENDMDL
MODEL 7
REMARK VINA RESULT:       2.2      1.831      5.113
REMARK  Name = 51136670
REMARK  9 active torsions:
REMARK  status: ('A' for Active; 'I' for Inactive)
REMARK    1  A    between atoms: O_1  and  C_18
REMARK    2  A    between atoms: O_4  and  C_26
REMARK    3  A    between atoms: O_4  and  C_28
REMARK    4  A    between atoms: N_7  and  C_25
REMARK    5  A    between atoms: C_8  and  C_12
REMARK    6  A    between atoms: C_9  and  C_14
REMARK    7  A    between atoms: C_12  and  C_15
REMARK    8  A    between atoms: C_14  and  C_18
REMARK    9  A    between atoms: C_25  and  C_27
REMARK                            x       y       z     vdW  Elec       q    Type
REMARK                         _______ _______ _______ _____ _____    ______ ____
ROOT
ATOM      2  O   UNL     1      -3.206   4.995  26.065  0.00  0.00    -0.253 OA
ATOM      5  N   UNL     1      -2.202   3.587  24.519  0.00  0.00    -0.285 N 
ATOM      7  N   UNL     1      -4.254   3.022  25.548  0.00  0.00    -0.296 N 
ATOM      8  C   UNL     1      -0.865   1.557  24.036  0.00  0.00    +0.016 C 
ATOM      9  C   UNL     1       0.384   2.463  23.865  0.00  0.00    +0.006 C 
ATOM     10  C   UNL     1       0.246   3.780  24.649  0.00  0.00    +0.023 C 
ATOM     11  C   UNL     1      -2.134   2.363  23.710  0.00  0.00    +0.113 C 
ATOM     13  C   UNL     1      -1.068   4.490  24.324  0.00  0.00    +0.109 C 
ATOM     16  C   UNL     1      -3.221   3.941  25.419  0.00  0.00    +0.302 C 
ATOM     30  H   UNL     1      -4.210   2.126  25.082  0.00  0.00    +0.151 HD
ENDROOT
BRANCH   8  12
ATOM     12  C   UNL     1      -0.982   0.910  25.421  0.00  0.00    +0.061 C 
BRANCH  12  15
ATOM      6  N   UNL     1      -0.013  -1.282  25.576  0.00  0.00    -0.287 NA
ATOM     15  C   UNL     1      -1.065  -0.591  25.281  0.00  0.00    +0.044 C 
ATOM     17  C   UNL     1      -2.337  -1.196  24.810  0.00  0.00    -0.001 A 
ATOM     19  C   UNL     1      -2.270  -2.509  24.326  0.00  0.00    -0.033 A 
ATOM     20  C   UNL     1      -0.939  -3.201  24.302  0.00  0.00    +0.059 C 
ATOM     21  C   UNL     1      -0.113  -2.744  25.498  0.00  0.00    +0.146 C 
ATOM     22  C   UNL     1      -3.551  -0.508  24.823  0.00  0.00    +0.013 A 
ATOM     23  C   UNL     1      -3.424  -3.121  23.831  0.00  0.00    +0.050 A 
ATOM     24  C   UNL     1      -4.701  -1.133  24.341  0.00  0.00    +0.046 A 
ATOM     26  C   UNL     1      -4.639  -2.435  23.843  0.00  0.00    +0.120 A 
BRANCH  26   4
ATOM      4  O   UNL     1      -5.764  -3.035  23.367  0.00  0.00    -0.495 OA
ATOM     28  C   UNL     1      -5.590  -4.034  22.363  0.00  0.00    +0.277 C 
ENDBRANCH  26   4
ENDBRANCH  12  15
ENDBRANCH   8  12
BRANCH   9  14
ATOM     14  C   UNL     1       1.691   1.756  24.222  0.00  0.00    +0.124 C 
BRANCH  14  18
ATOM      3  O   UNL     1       1.536  -0.110  22.663  0.00  0.00    -0.251 OA
ATOM     18  C   UNL     1       2.148   0.844  23.118  0.00  0.00    +0.305 C 
BRANCH  18   1
ATOM      1  O   UNL     1       3.373   1.234  22.680  0.00  0.00    -0.481 OA
ATOM     31  H   UNL     1       3.341   2.107  22.233  0.00  0.00    +0.295 HD
ENDBRANCH  18   1
ENDBRANCH  14  18
ENDBRANCH   9  14
BRANCH   7  25
ATOM     25  C   UNL     1      -5.370   3.239  26.441  0.00  0.00    +0.132 C 
BRANCH  25  27
ATOM     27  C   UNL     1      -6.420   2.214  26.167  0.00  0.00    -0.016 C 
ATOM     29  C   UNL     1      -6.620   1.654  24.968  0.00  0.00    +0.005 C 
ENDBRANCH  25  27
ENDBRANCH   7  25
TORSDOF 8
ENDMDL
MODEL 8
REMARK VINA RESULT:       2.3      1.820      4.504
REMARK  Name = 51136670
REMARK  9 active torsions:
REMARK  status: ('A' for Active; 'I' for Inactive)
REMARK    1  A    between atoms: O_1  and  C_18
REMARK    2  A    between atoms: O_4  and  C_26
REMARK    3  A    between atoms: O_4  and  C_28
REMARK    4  A    between atoms: N_7  and  C_25
REMARK    5  A    between atoms: C_8  and  C_12
REMARK    6  A    between atoms: C_9  and  C_14
REMARK    7  A    between atoms: C_12  and  C_15
REMARK    8  A    between atoms: C_14  and  C_18
REMARK    9  A    between atoms: C_25  and  C_27
REMARK                            x       y       z     vdW  Elec       q    Type
REMARK                         _______ _______ _______ _____ _____    ______ ____
ROOT
ATOM      2  O   UNL     1       0.158   4.183  25.446  0.00  0.00    -0.253 OA
ATOM      5  N   UNL     1       0.049   2.527  23.827  0.00  0.00    -0.285 N 
ATOM      7  N   UNL     1      -1.838   3.102  25.130  0.00  0.00    -0.296 N 
ATOM      8  C   UNL     1       0.017   0.120  23.236  0.00  0.00    +0.016 C 
ATOM      9  C   UNL     1       1.523   0.224  22.877  0.00  0.00    +0.006 C 
ATOM     10  C   UNL     1       2.212   1.374  23.632  0.00  0.00    +0.023 C 
ATOM     11  C   UNL     1      -0.652   1.493  23.053  0.00  0.00    +0.113 C 
ATOM     13  C   UNL     1       1.455   2.691  23.458  0.00  0.00    +0.109 C 
ATOM     16  C   UNL     1      -0.500   3.330  24.840  0.00  0.00    +0.302 C 
ATOM     30  H   UNL     1      -2.340   2.342  24.689  0.00  0.00    +0.151 HD
ENDROOT
BRANCH   8  12
ATOM     12  C   UNL     1      -0.254  -0.425  24.643  0.00  0.00    +0.061 C 
BRANCH  12  15
ATOM      6  N   UNL     1      -1.390  -2.537  24.525  0.00  0.00    -0.287 NA
ATOM     15  C   UNL     1      -1.514  -1.255  24.639  0.00  0.00    +0.044 C 
ATOM     17  C   UNL     1      -2.824  -0.567  24.759  0.00  0.00    -0.001 A 
ATOM     19  C   UNL     1      -3.957  -1.294  24.368  0.00  0.00    -0.033 A 
ATOM     20  C   UNL     1      -3.774  -2.689  23.851  0.00  0.00    +0.059 C 
ATOM     21  C   UNL     1      -2.611  -3.349  24.582  0.00  0.00    +0.146 C 
ATOM     22  C   UNL     1      -2.949   0.744  25.220  0.00  0.00    +0.013 A 
ATOM     23  C   UNL     1      -5.216  -0.689  24.419  0.00  0.00    +0.050 A 
ATOM     24  C   UNL     1      -4.212   1.334  25.281  0.00  0.00    +0.046 A 
ATOM     26  C   UNL     1      -5.343   0.622  24.880  0.00  0.00    +0.120 A 
BRANCH  26   4
ATOM      4  O   UNL     1      -6.570   1.207  24.935  0.00  0.00    -0.495 OA
ATOM     28  C   UNL     1      -6.674   2.425  25.672  0.00  0.00    +0.277 C 
ENDBRANCH  26   4
ENDBRANCH  12  15
ENDBRANCH   8  12
BRANCH   9  14
ATOM     14  C   UNL     1       2.281  -1.087  23.083  0.00  0.00    +0.124 C 
BRANCH  14  18
ATOM      3  O   UNL     1       4.424   0.035  22.786  0.00  0.00    -0.251 OA
ATOM     18  C   UNL     1       3.751  -0.852  23.290  0.00  0.00    +0.305 C 
BRANCH  18   1
ATOM      1  O   UNL     1       4.249  -1.786  24.140  0.00  0.00    -0.481 OA
ATOM     31  H   UNL     1       4.806  -2.446  23.673  0.00  0.00    +0.295 HD
ENDBRANCH  18   1
ENDBRANCH  14  18
ENDBRANCH   9  14
BRANCH   7  25
ATOM     25  C   UNL     1      -2.542   3.842  26.153  0.00  0.00    +0.132 C 
BRANCH  25  27
ATOM     27  C   UNL     1      -3.674   4.586  25.525  0.00  0.00    -0.016 C 
ATOM     29  C   UNL     1      -4.028   4.458  24.241  0.00  0.00    +0.005 C 
ENDBRANCH  25  27
ENDBRANCH   7  25
TORSDOF 8
ENDMDL
MODEL 9
REMARK VINA RESULT:       2.4      2.148      7.180
REMARK  Name = 51136670
REMARK  9 active torsions:
REMARK  status: ('A' for Active; 'I' for Inactive)
REMARK    1  A    between atoms: O_1  and  C_18
REMARK    2  A    between atoms: O_4  and  C_26
REMARK    3  A    between atoms: O_4  and  C_28
REMARK    4  A    between atoms: N_7  and  C_25
REMARK    5  A    between atoms: C_8  and  C_12
REMARK    6  A    between atoms: C_9  and  C_14
REMARK    7  A    between atoms: C_12  and  C_15
REMARK    8  A    between atoms: C_14  and  C_18
REMARK    9  A    between atoms: C_25  and  C_27
REMARK                            x       y       z     vdW  Elec       q    Type
REMARK                         _______ _______ _______ _____ _____    ______ ____
ROOT
ATOM      2  O   UNL     1       0.284   4.698  23.651  0.00  0.00    -0.253 OA
ATOM      5  N   UNL     1      -1.241   3.723  25.101  0.00  0.00    -0.285 N 
ATOM      7  N   UNL     1       0.455   2.448  24.057  0.00  0.00    -0.296 N 
ATOM      8  C   UNL     1      -3.283   2.362  25.450  0.00  0.00    +0.016 C 
ATOM      9  C   UNL     1      -4.079   3.677  25.665  0.00  0.00    +0.006 C 
ATOM     10  C   UNL     1      -3.410   4.871  24.962  0.00  0.00    +0.023 C 
ATOM     11  C   UNL     1      -1.810   2.583  25.834  0.00  0.00    +0.113 C 
ATOM     13  C   UNL     1      -1.934   4.988  25.341  0.00  0.00    +0.109 C 
ATOM     16  C   UNL     1      -0.137   3.691  24.232  0.00  0.00    +0.302 C 
ATOM     30  H   UNL     1       0.046   1.619  24.468  0.00  0.00    +0.151 HD
ENDROOT
BRANCH   8  12
ATOM     12  C   UNL     1      -3.387   1.795  24.029  0.00  0.00    +0.061 C 
BRANCH  12  15
ATOM      6  N   UNL     1      -4.672  -0.225  23.836  0.00  0.00    -0.287 NA
ATOM     15  C   UNL     1      -3.513   0.291  24.086  0.00  0.00    +0.044 C 
ATOM     17  C   UNL     1      -2.314  -0.515  24.426  0.00  0.00    -0.001 A 
ATOM     19  C   UNL     1      -2.538  -1.833  24.847  0.00  0.00    -0.033 A 
ATOM     20  C   UNL     1      -3.951  -2.330  24.936  0.00  0.00    +0.059 C 
ATOM     21  C   UNL     1      -4.781  -1.688  23.831  0.00  0.00    +0.146 C 
ATOM     22  C   UNL     1      -1.016  -0.006  24.356  0.00  0.00    +0.013 A 
ATOM     23  C   UNL     1      -1.454  -2.631  25.220  0.00  0.00    +0.050 A 
ATOM     24  C   UNL     1       0.060  -0.816  24.717  0.00  0.00    +0.046 A 
ATOM     26  C   UNL     1      -0.157  -2.124  25.151  0.00  0.00    +0.120 A 
BRANCH  26   4
ATOM      4  O   UNL     1       0.899  -2.905  25.509  0.00  0.00    -0.495 OA
ATOM     28  C   UNL     1       2.170  -2.573  24.951  0.00  0.00    +0.277 C 
ENDBRANCH  26   4
ENDBRANCH  12  15
ENDBRANCH   8  12
BRANCH   9  14
ATOM     14  C   UNL     1      -5.547   3.563  25.255  0.00  0.00    +0.124 C 
BRANCH  14  18
ATOM      3  O   UNL     1      -6.268   2.137  27.094  0.00  0.00    -0.251 OA
ATOM     18  C   UNL     1      -6.213   2.379  25.898  0.00  0.00    +0.305 C 
BRANCH  18   1
ATOM      1  O   UNL     1      -6.762   1.587  24.941  0.00  0.00    -0.481 OA
ATOM     31  H   UNL     1      -7.593   1.968  24.584  0.00  0.00    +0.295 HD
ENDBRANCH  18   1
ENDBRANCH  14  18
ENDBRANCH   9  14
BRANCH   7  25
ATOM     25  C   UNL     1       1.594   2.252  23.188  0.00  0.00    +0.132 C 
BRANCH  25  27
ATOM     27  C   UNL     1       2.130   0.875  23.389  0.00  0.00    -0.016 C 
ATOM     29  C   UNL     1       2.764   0.176  22.440  0.00  0.00    +0.005 C 
ENDBRANCH  25  27
ENDBRANCH   7  25
TORSDOF 8
ENDMDL
MODEL 10
REMARK VINA RESULT:       2.5      1.981      6.630
REMARK  Name = 51136670
REMARK  9 active torsions:
REMARK  status: ('A' for Active; 'I' for Inactive)
REMARK    1  A    between atoms: O_1  and  C_18
REMARK    2  A    between atoms: O_4  and  C_26
REMARK    3  A    between atoms: O_4  and  C_28
REMARK    4  A    between atoms: N_7  and  C_25
REMARK    5  A    between atoms: C_8  and  C_12
REMARK    6  A    between atoms: C_9  and  C_14
REMARK    7  A    between atoms: C_12  and  C_15
REMARK    8  A    between atoms: C_14  and  C_18
REMARK    9  A    between atoms: C_25  and  C_27
REMARK                            x       y       z     vdW  Elec       q    Type
REMARK                         _______ _______ _______ _____ _____    ______ ____
ROOT
ATOM      2  O   UNL     1       0.586   4.161  23.340  0.00  0.00    -0.253 OA
ATOM      5  N   UNL     1      -0.928   3.862  25.071  0.00  0.00    -0.285 N 
ATOM      7  N   UNL     1       0.634   2.182  24.496  0.00  0.00    -0.296 N 
ATOM      8  C   UNL     1      -3.033   2.862  25.916  0.00  0.00    +0.016 C 
ATOM      9  C   UNL     1      -3.734   4.226  25.679  0.00  0.00    +0.006 C 
ATOM     10  C   UNL     1      -3.024   5.052  24.591  0.00  0.00    +0.023 C 
ATOM     11  C   UNL     1      -1.532   3.091  26.167  0.00  0.00    +0.113 C 
ATOM     13  C   UNL     1      -1.528   5.181  24.873  0.00  0.00    +0.109 C 
ATOM     16  C   UNL     1       0.130   3.451  24.243  0.00  0.00    +0.302 C 
ATOM     30  H   UNL     1       0.194   1.578  25.178  0.00  0.00    +0.151 HD
ENDROOT
BRANCH   8  12
ATOM     12  C   UNL     1      -3.238   1.850  24.783  0.00  0.00    +0.061 C 
BRANCH  12  15
ATOM      6  N   UNL     1      -1.460   0.615  25.823  0.00  0.00    -0.287 NA
ATOM     15  C   UNL     1      -2.544   0.552  25.122  0.00  0.00    +0.044 C 
ATOM     17  C   UNL     1      -3.131  -0.721  24.634  0.00  0.00    -0.001 A 
ATOM     19  C   UNL     1      -2.289  -1.841  24.622  0.00  0.00    -0.033 A 
ATOM     20  C   UNL     1      -0.871  -1.680  25.083  0.00  0.00    +0.059 C 
ATOM     21  C   UNL     1      -0.819  -0.649  26.203  0.00  0.00    +0.146 C 
ATOM     22  C   UNL     1      -4.450  -0.823  24.187  0.00  0.00    +0.013 A 
ATOM     23  C   UNL     1      -2.769  -3.060  24.137  0.00  0.00    +0.050 A 
ATOM     24  C   UNL     1      -4.924  -2.048  23.719  0.00  0.00    +0.046 A 
ATOM     26  C   UNL     1      -4.087  -3.164  23.690  0.00  0.00    +0.120 A 
BRANCH  26   4
ATOM      4  O   UNL     1      -4.555  -4.354  23.224  0.00  0.00    -0.495 OA
ATOM     28  C   UNL     1      -5.672  -4.308  22.338  0.00  0.00    +0.277 C 
ENDBRANCH  26   4
ENDBRANCH  12  15
ENDBRANCH   8  12
BRANCH   9  14
ATOM     14  C   UNL     1      -5.223   4.089  25.367  0.00  0.00    +0.124 C 
BRANCH  14  18
ATOM      3  O   UNL     1      -5.810   2.557  27.168  0.00  0.00    -0.251 OA
ATOM     18  C   UNL     1      -5.807   2.848  25.982  0.00  0.00    +0.305 C 
BRANCH  18   1
ATOM      1  O   UNL     1      -6.349   2.068  25.012  0.00  0.00    -0.481 OA
ATOM     31  H   UNL     1      -5.668   1.730  24.390  0.00  0.00    +0.295 HD
ENDBRANCH  18   1
ENDBRANCH  14  18
ENDBRANCH   9  14
BRANCH   7  25
ATOM     25  C   UNL     1       1.717   1.615  23.724  0.00  0.00    +0.132 C 
BRANCH  25  27
ATOM     27  C   UNL     1       1.309   0.267  23.229  0.00  0.00    -0.016 C 
ATOM     29  C   UNL     1       1.659  -0.225  22.035  0.00  0.00    +0.005 C 
ENDBRANCH  25  27
ENDBRANCH   7  25
TORSDOF 8
ENDMDL
