MODEL 1
REMARK VINA RESULT:      -5.4      0.000      0.000
REMARK  Name = 38027918
REMARK  11 active torsions:
REMARK  status: ('A' for Active; 'I' for Inactive)
REMARK    1  A    between atoms: N_4  and  C_15
REMARK    2  A    between atoms: N_5  and  C_25
REMARK    3  A    between atoms: N_6  and  C_26
REMARK    4  A    between atoms: C_7  and  C_11
REMARK    5  A    between atoms: C_8  and  C_15
REMARK    6  A    between atoms: C_10  and  C_14
REMARK    7  A    between atoms: C_11  and  C_16
REMARK    8  A    between atoms: C_11  and  C_17
REMARK    9  A    between atoms: C_12  and  C_18
REMARK   10  A    between atoms: C_14  and  C_19
REMARK   11  A    between atoms: C_26  and  C_27
REMARK                            x       y       z     vdW  Elec       q    Type
REMARK                         _______ _______ _______ _____ _____    ______ ____
ROOT
ATOM      7  C   UNL     1      -1.216   0.406  24.986  0.00  0.00    +0.000 C 
ATOM      8  C   UNL     1      -0.509  -0.868  24.459  0.00  0.00    +0.032 C 
ATOM      9  C   UNL     1      -2.349   0.030  25.954  0.00  0.00    +0.012 C 
ATOM     10  C   UNL     1      -3.404  -0.876  25.291  0.00  0.00    +0.023 C 
ATOM     12  C   UNL     1      -2.767  -2.014  24.521  0.00  0.00    -0.073 C 
ATOM     13  C   UNL     1      -1.469  -1.999  24.169  0.00  0.00    -0.022 C 
ATOM     18  C   UNL     1      -3.645  -3.192  24.202  0.00  0.00    +0.039 C 
ENDROOT
BRANCH   7  11
ATOM     11  C   UNL     1      -0.234   1.355  25.680  0.00  0.00    -0.013 C 
ATOM     16  C   UNL     1       0.432   2.271  24.659  0.00  0.00    +0.007 C 
ATOM     17  C   UNL     1      -0.951   2.170  26.752  0.00  0.00    +0.007 C 
ENDBRANCH   7  11
BRANCH  10  14
ATOM     14  C   UNL     1      -4.343  -0.063  24.393  0.00  0.00    +0.103 C 
BRANCH  14  19
ATOM      1  O   UNL     1      -5.714   0.973  26.025  0.00  0.00    -0.276 OA
ATOM      3  N   UNL     1      -4.332   2.374  24.792  0.00  0.00    -0.299 N 
ATOM      5  N   UNL     1      -2.775   4.777  24.681  0.00  0.00    -0.302 NA
ATOM     19  C   UNL     1      -4.864   1.136  25.146  0.00  0.00    +0.216 C 
ATOM     20  C   UNL     1      -4.783   3.584  25.479  0.00  0.00    +0.123 C 
ATOM     21  C   UNL     1      -3.424   2.617  23.668  0.00  0.00    +0.123 C 
ATOM     22  C   UNL     1      -3.603   4.478  25.859  0.00  0.00    +0.103 C 
ATOM     23  C   UNL     1      -2.271   3.534  24.079  0.00  0.00    +0.103 C 
ATOM     25  C   UNL     1      -1.667   5.659  25.043  0.00  0.00    +0.105 C 
ENDBRANCH  14  19
ENDBRANCH  10  14
BRANCH   8  15
ATOM     15  C   UNL     1       0.316  -0.564  23.203  0.00  0.00    +0.113 C 
BRANCH  15   4
ATOM      2  O   UNL     1       2.663   1.016  22.634  0.00  0.00    -0.253 OA
ATOM      4  N   UNL     1       1.680  -0.951  23.386  0.00  0.00    -0.299 N 
ATOM      6  N   UNL     1       3.984  -0.749  23.357  0.00  0.00    -0.300 N 
ATOM     24  C   UNL     1       2.770  -0.124  23.084  0.00  0.00    +0.300 C 
ATOM     28  H   UNL     1       1.876  -1.849  23.819  0.00  0.00    +0.150 HD
ATOM     29  H   UNL     1       3.974  -1.699  23.715  0.00  0.00    +0.150 HD
BRANCH   6  26
ATOM     26  C   UNL     1       5.260  -0.112  23.134  0.00  0.00    +0.102 C 
ATOM     27  C   UNL     1       5.761   0.578  24.385  0.00  0.00    +0.024 C 
ENDBRANCH   6  26
ENDBRANCH  15   4
ENDBRANCH   8  15
TORSDOF 6
ENDMDL
MODEL 2
REMARK VINA RESULT:      -3.0      2.180      5.321
REMARK  Name = 38027918
REMARK  11 active torsions:
REMARK  status: ('A' for Active; 'I' for Inactive)
REMARK    1  A    between atoms: N_4  and  C_15
REMARK    2  A    between atoms: N_5  and  C_25
REMARK    3  A    between atoms: N_6  and  C_26
REMARK    4  A    between atoms: C_7  and  C_11
REMARK    5  A    between atoms: C_8  and  C_15
REMARK    6  A    between atoms: C_10  and  C_14
REMARK    7  A    between atoms: C_11  and  C_16
REMARK    8  A    between atoms: C_11  and  C_17
REMARK    9  A    between atoms: C_12  and  C_18
REMARK   10  A    between atoms: C_14  and  C_19
REMARK   11  A    between atoms: C_26  and  C_27
REMARK                            x       y       z     vdW  Elec       q    Type
REMARK                         _______ _______ _______ _____ _____    ______ ____
ROOT
ATOM      7  C   UNL     1      -3.407   2.153  23.909  0.00  0.00    +0.000 C 
ATOM      8  C   UNL     1      -4.161   3.391  24.456  0.00  0.00    +0.032 C 
ATOM      9  C   UNL     1      -4.373   0.972  23.729  0.00  0.00    +0.012 C 
ATOM     10  C   UNL     1      -5.065   0.579  25.048  0.00  0.00    +0.023 C 
ATOM     12  C   UNL     1      -5.604   1.788  25.784  0.00  0.00    -0.073 C 
ATOM     13  C   UNL     1      -5.199   3.038  25.496  0.00  0.00    -0.022 C 
ATOM     18  C   UNL     1      -6.655   1.533  26.828  0.00  0.00    +0.039 C 
ENDROOT
BRANCH   7  11
ATOM     11  C   UNL     1      -2.705   2.456  22.581  0.00  0.00    -0.013 C 
ATOM     16  C   UNL     1      -2.293   1.160  21.890  0.00  0.00    +0.007 C 
ATOM     17  C   UNL     1      -3.611   3.287  21.679  0.00  0.00    +0.007 C 
ENDBRANCH   7  11
BRANCH  10  14
ATOM     14  C   UNL     1      -4.123  -0.233  25.944  0.00  0.00    +0.103 C 
BRANCH  14  19
ATOM      1  O   UNL     1      -4.149  -2.246  24.693  0.00  0.00    -0.276 OA
ATOM      3  N   UNL     1      -2.087  -1.208  24.944  0.00  0.00    -0.299 N 
ATOM      5  N   UNL     1       0.509  -0.656  23.863  0.00  0.00    -0.302 NA
ATOM     19  C   UNL     1      -3.462  -1.324  25.139  0.00  0.00    +0.216 C 
ATOM     20  C   UNL     1      -1.373  -2.223  24.170  0.00  0.00    +0.123 C 
ATOM     21  C   UNL     1      -1.223  -0.201  25.568  0.00  0.00    +0.123 C 
ATOM     22  C   UNL     1      -0.404  -1.583  23.177  0.00  0.00    +0.103 C 
ATOM     23  C   UNL     1      -0.251   0.398  24.550  0.00  0.00    +0.103 C 
ATOM     25  C   UNL     1       1.455  -0.071  22.914  0.00  0.00    +0.105 C 
ENDBRANCH  14  19
ENDBRANCH  10  14
BRANCH   8  15
ATOM     15  C   UNL     1      -3.187   4.421  25.035  0.00  0.00    +0.113 C 
BRANCH  15   4
ATOM      2  O   UNL     1      -0.378   3.773  24.879  0.00  0.00    -0.253 OA
ATOM      4  N   UNL     1      -2.379   3.836  26.059  0.00  0.00    -0.299 N 
ATOM      6  N   UNL     1      -0.474   2.984  27.058  0.00  0.00    -0.300 N 
ATOM     24  C   UNL     1      -1.016   3.549  25.906  0.00  0.00    +0.300 C 
ATOM     28  H   UNL     1      -2.794   3.676  26.973  0.00  0.00    +0.150 HD
ATOM     29  H   UNL     1      -1.082   2.824  27.855  0.00  0.00    +0.150 HD
BRANCH   6  26
ATOM     26  C   UNL     1       0.912   2.596  27.161  0.00  0.00    +0.102 C 
ATOM     27  C   UNL     1       1.369   2.551  28.605  0.00  0.00    +0.024 C 
ENDBRANCH   6  26
ENDBRANCH  15   4
ENDBRANCH   8  15
TORSDOF 6
ENDMDL
MODEL 3
REMARK VINA RESULT:      -2.8      1.833      4.478
REMARK  Name = 38027918
REMARK  11 active torsions:
REMARK  status: ('A' for Active; 'I' for Inactive)
REMARK    1  A    between atoms: N_4  and  C_15
REMARK    2  A    between atoms: N_5  and  C_25
REMARK    3  A    between atoms: N_6  and  C_26
REMARK    4  A    between atoms: C_7  and  C_11
REMARK    5  A    between atoms: C_8  and  C_15
REMARK    6  A    between atoms: C_10  and  C_14
REMARK    7  A    between atoms: C_11  and  C_16
REMARK    8  A    between atoms: C_11  and  C_17
REMARK    9  A    between atoms: C_12  and  C_18
REMARK   10  A    between atoms: C_14  and  C_19
REMARK   11  A    between atoms: C_26  and  C_27
REMARK                            x       y       z     vdW  Elec       q    Type
REMARK                         _______ _______ _______ _____ _____    ______ ____
ROOT
ATOM      7  C   UNL     1      -2.475   2.297  23.965  0.00  0.00    +0.000 C 
ATOM      8  C   UNL     1      -1.276   2.882  24.754  0.00  0.00    +0.032 C 
ATOM      9  C   UNL     1      -3.646   3.292  23.954  0.00  0.00    +0.012 C 
ATOM     10  C   UNL     1      -4.123   3.646  25.376  0.00  0.00    +0.023 C 
ATOM     12  C   UNL     1      -2.964   3.977  26.293  0.00  0.00    -0.073 C 
ATOM     13  C   UNL     1      -1.697   3.639  25.992  0.00  0.00    -0.022 C 
ATOM     18  C   UNL     1      -3.287   4.745  27.544  0.00  0.00    +0.039 C 
ENDROOT
BRANCH   7  11
ATOM     11  C   UNL     1      -2.088   1.936  22.528  0.00  0.00    -0.013 C 
ATOM     16  C   UNL     1      -1.892   0.429  22.393  0.00  0.00    +0.007 C 
ATOM     17  C   UNL     1      -3.148   2.434  21.551  0.00  0.00    +0.007 C 
ENDBRANCH   7  11
BRANCH  10  14
ATOM     14  C   UNL     1      -4.985   2.524  25.964  0.00  0.00    +0.103 C 
BRANCH  14  19
ATOM      1  O   UNL     1      -6.047   1.816  23.967  0.00  0.00    -0.276 OA
ATOM      3  N   UNL     1      -4.703   0.253  25.038  0.00  0.00    -0.299 N 
ATOM      5  N   UNL     1      -2.958  -2.010  24.828  0.00  0.00    -0.302 NA
ATOM     19  C   UNL     1      -5.299   1.505  24.898  0.00  0.00    +0.216 C 
ATOM     20  C   UNL     1      -4.954  -0.789  24.043  0.00  0.00    +0.123 C 
ATOM     21  C   UNL     1      -3.920  -0.189  26.196  0.00  0.00    +0.123 C 
ATOM     22  C   UNL     1      -3.659  -1.496  23.643  0.00  0.00    +0.103 C 
ATOM     23  C   UNL     1      -2.647  -0.913  25.756  0.00  0.00    +0.103 C 
ATOM     25  C   UNL     1      -1.738  -2.714  24.437  0.00  0.00    +0.105 C 
ENDBRANCH  14  19
ENDBRANCH  10  14
BRANCH   8  15
ATOM     15  C   UNL     1      -0.280   1.783  25.141  0.00  0.00    +0.113 C 
BRANCH  15   4
ATOM      2  O   UNL     1       1.154  -0.148  23.545  0.00  0.00    -0.253 OA
ATOM      4  N   UNL     1       0.970   1.974  24.474  0.00  0.00    -0.299 N 
ATOM      6  N   UNL     1       2.809   1.435  23.178  0.00  0.00    -0.300 N 
ATOM     24  C   UNL     1       1.607   0.983  23.716  0.00  0.00    +0.300 C 
ATOM     28  H   UNL     1       1.395   2.897  24.494  0.00  0.00    +0.150 HD
ATOM     29  H   UNL     1       3.110   2.383  23.384  0.00  0.00    +0.150 HD
BRANCH   6  26
ATOM     26  C   UNL     1       3.659   0.608  22.356  0.00  0.00    +0.102 C 
ATOM     27  C   UNL     1       4.932   0.226  23.082  0.00  0.00    +0.024 C 
ENDBRANCH   6  26
ENDBRANCH  15   4
ENDBRANCH   8  15
TORSDOF 6
ENDMDL
MODEL 4
REMARK VINA RESULT:      -2.4     15.243     17.437
REMARK  Name = 38027918
REMARK  11 active torsions:
REMARK  status: ('A' for Active; 'I' for Inactive)
REMARK    1  A    between atoms: N_4  and  C_15
REMARK    2  A    between atoms: N_5  and  C_25
REMARK    3  A    between atoms: N_6  and  C_26
REMARK    4  A    between atoms: C_7  and  C_11
REMARK    5  A    between atoms: C_8  and  C_15
REMARK    6  A    between atoms: C_10  and  C_14
REMARK    7  A    between atoms: C_11  and  C_16
REMARK    8  A    between atoms: C_11  and  C_17
REMARK    9  A    between atoms: C_12  and  C_18
REMARK   10  A    between atoms: C_14  and  C_19
REMARK   11  A    between atoms: C_26  and  C_27
REMARK                            x       y       z     vdW  Elec       q    Type
REMARK                         _______ _______ _______ _____ _____    ______ ____
ROOT
ATOM      7  C   UNL     1      -4.975  -9.526  11.238  0.00  0.00    +0.000 C 
ATOM      8  C   UNL     1      -3.962  -9.729  12.393  0.00  0.00    +0.032 C 
ATOM      9  C   UNL     1      -6.238  -8.816  11.750  0.00  0.00    +0.012 C 
ATOM     10  C   UNL     1      -6.933  -9.604  12.877  0.00  0.00    +0.023 C 
ATOM     12  C   UNL     1      -5.948 -10.074  13.927  0.00  0.00    -0.073 C 
ATOM     13  C   UNL     1      -4.623 -10.110  13.698  0.00  0.00    -0.022 C 
ATOM     18  C   UNL     1      -6.516 -10.459  15.265  0.00  0.00    +0.039 C 
ENDROOT
BRANCH   7  11
ATOM     11  C   UNL     1      -4.365  -8.729  10.081  0.00  0.00    -0.013 C 
ATOM     16  C   UNL     1      -4.473  -9.515   8.779  0.00  0.00    +0.007 C 
ATOM     17  C   UNL     1      -5.049  -7.371   9.953  0.00  0.00    +0.007 C 
ENDBRANCH   7  11
BRANCH  10  14
ATOM     14  C   UNL     1      -7.736 -10.781  12.311  0.00  0.00    +0.103 C 
BRANCH  14  19
ATOM      1  O   UNL     1     -10.029 -10.558  12.866  0.00  0.00    -0.276 OA
ATOM      3  N   UNL     1      -9.375  -9.718  10.801  0.00  0.00    -0.299 N 
ATOM      5  N   UNL     1      -9.761  -7.779   8.727  0.00  0.00    -0.302 NA
ATOM     19  C   UNL     1      -9.151 -10.347  12.025  0.00  0.00    +0.216 C 
ATOM     20  C   UNL     1     -10.719  -9.263  10.451  0.00  0.00    +0.123 C 
ATOM     21  C   UNL     1      -8.385  -9.573   9.729  0.00  0.00    +0.123 C 
ATOM     22  C   UNL     1     -10.692  -7.853   9.863  0.00  0.00    +0.103 C 
ATOM     23  C   UNL     1      -8.405  -8.157   9.150  0.00  0.00    +0.103 C 
ATOM     25  C   UNL     1      -9.764  -6.436   8.148  0.00  0.00    +0.105 C 
ENDBRANCH  14  19
ENDBRANCH  10  14
BRANCH   8  15
ATOM     15  C   UNL     1      -2.910 -10.781  12.028  0.00  0.00    +0.113 C 
BRANCH  15   4
ATOM      2  O   UNL     1      -1.005  -8.999  13.263  0.00  0.00    -0.253 OA
ATOM      4  N   UNL     1      -1.775 -10.170  11.410  0.00  0.00    -0.299 N 
ATOM      6  N   UNL     1       0.124  -8.859  11.242  0.00  0.00    -0.300 N 
ATOM     24  C   UNL     1      -0.893  -9.311  12.079  0.00  0.00    +0.300 C 
ATOM     28  H   UNL     1      -1.552 -10.419  10.450  0.00  0.00    +0.150 HD
ATOM     29  H   UNL     1       0.128  -9.161  10.272  0.00  0.00    +0.150 HD
BRANCH   6  26
ATOM     26  C   UNL     1       1.163  -7.962  11.687  0.00  0.00    +0.102 C 
ATOM     27  C   UNL     1       0.607  -6.860  12.564  0.00  0.00    +0.024 C 
ENDBRANCH   6  26
ENDBRANCH  15   4
ENDBRANCH   8  15
TORSDOF 6
ENDMDL
MODEL 5
REMARK VINA RESULT:      -1.7      1.353      1.673
REMARK  Name = 38027918
REMARK  11 active torsions:
REMARK  status: ('A' for Active; 'I' for Inactive)
REMARK    1  A    between atoms: N_4  and  C_15
REMARK    2  A    between atoms: N_5  and  C_25
REMARK    3  A    between atoms: N_6  and  C_26
REMARK    4  A    between atoms: C_7  and  C_11
REMARK    5  A    between atoms: C_8  and  C_15
REMARK    6  A    between atoms: C_10  and  C_14
REMARK    7  A    between atoms: C_11  and  C_16
REMARK    8  A    between atoms: C_11  and  C_17
REMARK    9  A    between atoms: C_12  and  C_18
REMARK   10  A    between atoms: C_14  and  C_19
REMARK   11  A    between atoms: C_26  and  C_27
REMARK                            x       y       z     vdW  Elec       q    Type
REMARK                         _______ _______ _______ _____ _____    ______ ____
ROOT
ATOM      7  C   UNL     1      -0.514   0.945  24.480  0.00  0.00    +0.000 C 
ATOM      8  C   UNL     1       0.520  -0.195  24.298  0.00  0.00    +0.032 C 
ATOM      9  C   UNL     1      -1.642   0.501  25.424  0.00  0.00    +0.012 C 
ATOM     10  C   UNL     1      -2.378  -0.748  24.903  0.00  0.00    +0.023 C 
ATOM     12  C   UNL     1      -1.413  -1.824  24.450  0.00  0.00    -0.073 C 
ATOM     13  C   UNL     1      -0.118  -1.560  24.197  0.00  0.00    -0.022 C 
ATOM     18  C   UNL     1      -1.959  -3.220  24.337  0.00  0.00    +0.039 C 
ENDROOT
BRANCH   7  11
ATOM     11  C   UNL     1       0.138   2.224  25.016  0.00  0.00    -0.013 C 
ATOM     16  C   UNL     1      -0.282   3.427  24.178  0.00  0.00    +0.007 C 
ATOM     17  C   UNL     1      -0.227   2.431  26.483  0.00  0.00    +0.007 C 
ENDBRANCH   7  11
BRANCH  10  14
ATOM     14  C   UNL     1      -3.359  -0.383  23.784  0.00  0.00    +0.103 C 
BRANCH  14  19
ATOM      1  O   UNL     1      -5.460  -0.815  24.792  0.00  0.00    -0.276 OA
ATOM      3  N   UNL     1      -4.928   1.415  24.419  0.00  0.00    -0.299 N 
ATOM      5  N   UNL     1      -5.176   4.148  25.242  0.00  0.00    -0.302 NA
ATOM     19  C   UNL     1      -4.679   0.044  24.376  0.00  0.00    +0.216 C 
ATOM     20  C   UNL     1      -6.183   1.910  24.983  0.00  0.00    +0.123 C 
ATOM     21  C   UNL     1      -4.082   2.450  23.816  0.00  0.00    +0.123 C 
ATOM     22  C   UNL     1      -5.941   3.092  25.921  0.00  0.00    +0.103 C 
ATOM     23  C   UNL     1      -3.884   3.626  24.774  0.00  0.00    +0.103 C 
ATOM     25  C   UNL     1      -4.976   5.290  26.133  0.00  0.00    +0.105 C 
ENDBRANCH  14  19
ENDBRANCH  10  14
BRANCH   8  15
ATOM     15  C   UNL     1       1.402   0.049  23.068  0.00  0.00    +0.113 C 
BRANCH  15   4
ATOM      2  O   UNL     1       3.891   1.510  23.057  0.00  0.00    -0.253 OA
ATOM      4  N   UNL     1       2.714  -0.482  23.271  0.00  0.00    -0.299 N 
ATOM      6  N   UNL     1       5.018  -0.474  23.475  0.00  0.00    -0.300 N 
ATOM     24  C   UNL     1       3.879   0.295  23.250  0.00  0.00    +0.300 C 
ATOM     28  H   UNL     1       2.808  -1.466  23.508  0.00  0.00    +0.150 HD
ATOM     29  H   UNL     1       4.911  -1.475  23.612  0.00  0.00    +0.150 HD
BRANCH   6  26
ATOM     26  C   UNL     1       6.348   0.086  23.504  0.00  0.00    +0.102 C 
ATOM     27  C   UNL     1       7.341  -0.806  22.788  0.00  0.00    +0.024 C 
ENDBRANCH   6  26
ENDBRANCH  15   4
ENDBRANCH   8  15
TORSDOF 6
ENDMDL
