MODEL 1
REMARK VINA RESULT:      -3.8      0.000      0.000
REMARK  Name = 28963020
REMARK  12 active torsions:
REMARK  status: ('A' for Active; 'I' for Inactive)
REMARK    1  A    between atoms: O_1  and  C_10
REMARK    2  A    between atoms: O_4  and  C_29
REMARK    3  A    between atoms: O_4  and  C_30
REMARK    4  A    between atoms: N_5  and  C_14
REMARK    5  A    between atoms: N_6  and  C_23
REMARK    6  A    between atoms: C_7  and  C_17
REMARK    7  A    between atoms: C_9  and  C_19
REMARK    8  A    between atoms: C_12  and  C_18
REMARK    9  A    between atoms: C_18  and  C_20
REMARK   10  A    between atoms: C_18  and  C_21
REMARK   11  A    between atoms: C_22  and  C_24
REMARK   12  A    between atoms: C_24  and  C_29
REMARK                            x       y       z     vdW  Elec       q    Type
REMARK                         _______ _______ _______ _____ _____    ______ ____
ROOT
ATOM      7  C   UNL     1      -2.139  -0.943  25.336  0.00  0.00    -0.027 C 
ATOM      8  C   UNL     1      -2.211   0.129  24.197  0.00  0.00    +0.028 C 
ATOM      9  C   UNL     1      -0.773   0.627  23.807  0.00  0.00    +0.012 C 
ATOM     10  C   UNL     1      -3.235   1.249  24.540  0.00  0.00    +0.122 C 
ATOM     11  C   UNL     1      -3.558  -1.492  25.616  0.00  0.00    +0.007 C 
ATOM     12  C   UNL     1      -4.624   0.687  24.922  0.00  0.00    +0.029 C 
ATOM     13  C   UNL     1      -1.263  -2.124  24.861  0.00  0.00    +0.009 C 
ATOM     14  C   UNL     1       0.123  -0.579  23.405  0.00  0.00    +0.076 C 
ATOM     15  C   UNL     1      -4.554  -0.403  25.991  0.00  0.00    +0.007 C 
ATOM     16  C   UNL     1       0.138  -1.699  24.444  0.00  0.00    +0.023 C 
ATOM     17  C   UNL     1      -1.558  -0.372  26.654  0.00  0.00    +0.011 C 
ATOM     19  C   UNL     1      -0.766   1.663  22.672  0.00  0.00    +0.010 C 
ENDROOT
BRANCH  14   5
ATOM      3  O   UNL     1       1.491  -0.573  20.863  0.00  0.00    -0.276 OA
ATOM      5  N   UNL     1       1.489  -0.170  23.151  0.00  0.00    -0.312 N 
ATOM     22  C   UNL     1       2.059  -0.204  21.887  0.00  0.00    +0.215 C 
ATOM     31  H   UNL     1       2.066   0.091  23.946  0.00  0.00    +0.149 HD
BRANCH  22  24
ATOM     24  C   UNL     1       3.500   0.281  21.916  0.00  0.00    +0.124 C 
BRANCH  24  29
ATOM     29  C   UNL     1       3.801   1.175  23.109  0.00  0.00    +0.168 C 
BRANCH  29   4
ATOM      4  O   UNL     1       5.091   0.865  23.619  0.00  0.00    -0.382 OA
ATOM     30  C   UNL     1       5.235  -0.527  23.863  0.00  0.00    +0.194 C 
ENDBRANCH  29   4
ENDBRANCH  24  29
ENDBRANCH  22  24
ENDBRANCH  14   5
BRANCH  10   1
ATOM      1  O   UNL     1      -3.431   2.082  23.398  0.00  0.00    -0.391 OA
ATOM     32  H   UNL     1      -3.990   2.833  23.661  0.00  0.00    +0.210 HD
ENDBRANCH  10   1
BRANCH  12  18
ATOM     18  C   UNL     1      -5.579   1.795  25.382  0.00  0.00    +0.077 C 
ATOM     20  C   UNL     1      -6.733   1.936  24.396  0.00  0.00    +0.017 C 
BRANCH  18  21
ATOM      2  O   UNL     1      -5.229   4.173  25.081  0.00  0.00    -0.276 OA
ATOM      6  N   UNL     1      -3.630   2.954  26.237  0.00  0.00    -0.312 N 
ATOM     21  C   UNL     1      -4.818   3.108  25.537  0.00  0.00    +0.216 C 
ATOM     33  H   UNL     1      -3.376   2.041  26.601  0.00  0.00    +0.149 HD
BRANCH   6  23
ATOM     23  C   UNL     1      -2.736   4.053  26.509  0.00  0.00    +0.073 C 
ATOM     25  C   UNL     1      -1.376   3.571  27.001  0.00  0.00    +0.022 C 
ATOM     26  C   UNL     1      -2.384   4.817  25.239  0.00  0.00    +0.022 C 
ATOM     27  C   UNL     1      -0.595   3.232  25.733  0.00  0.00    +0.002 C 
ATOM     28  C   UNL     1      -1.269   4.000  24.594  0.00  0.00    +0.002 C 
ENDBRANCH   6  23
ENDBRANCH  18  21
ENDBRANCH  12  18
TORSDOF 8
ENDMDL
