MODEL 1
REMARK VINA RESULT:      -5.2      0.000      0.000
REMARK  Name = 75536599
REMARK  7 active torsions:
REMARK  status: ('A' for Active; 'I' for Inactive)
REMARK    1  A    between atoms: O_4  and  C_9
REMARK    2  A    between atoms: N_6  and  C_8
REMARK    3  A    between atoms: N_6  and  C_13
REMARK    4  A    between atoms: N_7  and  C_12
REMARK    5  A    between atoms: C_10  and  C_12
REMARK    6  A    between atoms: C_13  and  C_14
REMARK    7  A    between atoms: C_15  and  C_18
REMARK                            x       y       z     vdW  Elec       q    Type
REMARK                         _______ _______ _______ _____ _____    ______ ____
ROOT
ATOM      3  O   UNL     1      -2.419  -2.972  23.641  0.00  0.00    -0.371 OA
ATOM      8  C   UNL     1      -1.092  -1.962  25.331  0.00  0.00    +0.111 C 
ATOM      9  C   UNL     1      -2.484  -1.361  25.371  0.00  0.00    +0.164 C 
ATOM     10  C   UNL     1      -3.288  -2.436  24.651  0.00  0.00    +0.165 C 
ATOM     11  C   UNL     1      -1.069  -2.578  23.943  0.00  0.00    +0.181 C 
ENDROOT
BRANCH   9   4
ATOM      4  O   UNL     1      -2.950  -1.147  26.688  0.00  0.00    -0.388 OA
ATOM     26  H   UNL     1      -3.558  -1.869  26.919  0.00  0.00    +0.210 HD
ENDBRANCH   9   4
BRANCH   8   6
ATOM      6  N   UNL     1      -0.031  -0.989  25.537  0.00  0.00    -0.305 NA
ATOM     25  H   UNL     1       0.844  -1.483  25.716  0.00  0.00    +0.123 HD
BRANCH   6  13
ATOM     13  C   UNL     1       0.138  -0.138  24.365  0.00  0.00    +0.116 C 
BRANCH  13  14
ATOM      2  F   UNL     1      -1.179   5.229  25.461  0.00  0.00    -0.205 F 
ATOM     14  C   UNL     1      -0.215   1.295  24.658  0.00  0.00    -0.033 A 
ATOM     16  C   UNL     1      -0.061   2.268  23.669  0.00  0.00    +0.008 A 
ATOM     17  C   UNL     1      -0.694   1.653  25.918  0.00  0.00    +0.008 A 
ATOM     19  C   UNL     1      -0.387   3.596  23.940  0.00  0.00    +0.038 A 
ATOM     20  C   UNL     1      -1.020   2.981  26.190  0.00  0.00    +0.038 A 
ATOM     21  C   UNL     1      -0.866   3.953  25.200  0.00  0.00    +0.123 A 
ENDBRANCH  13  14
ENDBRANCH   6  13
ENDBRANCH   8   6
BRANCH  10  12
ATOM     12  C   UNL     1      -4.558  -1.907  24.009  0.00  0.00    +0.138 C 
BRANCH  12   7
ATOM      5  O   UNL     1      -3.227   0.424  22.988  0.00  0.00    -0.270 OA
ATOM      7  N   UNL     1      -4.805  -0.545  24.386  0.00  0.00    -0.308 N 
ATOM     15  C   UNL     1      -4.109   0.527  23.837  0.00  0.00    +0.251 C 
ATOM     27  H   UNL     1      -5.513  -0.385  25.094  0.00  0.00    +0.149 HD
BRANCH  15  18
ATOM      1  S   UNL     1      -5.657   2.009  25.575  0.00  0.00    -0.092 S 
ATOM     18  C   UNL     1      -4.465   1.874  24.353  0.00  0.00    +0.074 A 
ATOM     22  C   UNL     1      -3.960   3.101  23.985  0.00  0.00    +0.021 A 
ATOM     23  C   UNL     1      -4.560   4.167  24.717  0.00  0.00    +0.008 A 
ATOM     24  C   UNL     1      -5.500   3.714  25.615  0.00  0.00    +0.046 A 
ENDBRANCH  15  18
ENDBRANCH  12   7
ENDBRANCH  10  12
TORSDOF 7
ENDMDL
MODEL 2
REMARK VINA RESULT:      -5.2      3.376      6.223
REMARK  Name = 75536599
REMARK  7 active torsions:
REMARK  status: ('A' for Active; 'I' for Inactive)
REMARK    1  A    between atoms: O_4  and  C_9
REMARK    2  A    between atoms: N_6  and  C_8
REMARK    3  A    between atoms: N_6  and  C_13
REMARK    4  A    between atoms: N_7  and  C_12
REMARK    5  A    between atoms: C_10  and  C_12
REMARK    6  A    between atoms: C_13  and  C_14
REMARK    7  A    between atoms: C_15  and  C_18
REMARK                            x       y       z     vdW  Elec       q    Type
REMARK                         _______ _______ _______ _____ _____    ______ ____
ROOT
ATOM      3  O   UNL     1      -3.116   4.233  23.763  0.00  0.00    -0.371 OA
ATOM      8  C   UNL     1      -4.530   3.268  25.408  0.00  0.00    +0.111 C 
ATOM      9  C   UNL     1      -3.155   3.489  26.008  0.00  0.00    +0.164 C 
ATOM     10  C   UNL     1      -2.589   4.543  25.064  0.00  0.00    +0.165 C 
ATOM     11  C   UNL     1      -4.225   3.331  23.921  0.00  0.00    +0.181 C 
ENDROOT
BRANCH   9   4
ATOM      4  O   UNL     1      -3.209   3.952  27.343  0.00  0.00    -0.388 OA
ATOM     26  H   UNL     1      -2.770   3.296  27.911  0.00  0.00    +0.210 HD
ENDBRANCH   9   4
BRANCH   8   6
ATOM      6  N   UNL     1      -5.146   2.012  25.807  0.00  0.00    -0.305 NA
ATOM     25  H   UNL     1      -6.080   2.200  26.172  0.00  0.00    +0.123 HD
BRANCH   6  13
ATOM     13  C   UNL     1      -5.256   1.098  24.676  0.00  0.00    +0.116 C 
BRANCH  13  14
ATOM      2  F   UNL     1      -1.501  -3.090  24.992  0.00  0.00    -0.205 F 
ATOM     14  C   UNL     1      -4.254  -0.021  24.761  0.00  0.00    -0.033 A 
ATOM     16  C   UNL     1      -3.123   0.115  25.566  0.00  0.00    +0.008 A 
ATOM     17  C   UNL     1      -4.453  -1.194  24.033  0.00  0.00    +0.008 A 
ATOM     19  C   UNL     1      -2.193  -0.921  25.644  0.00  0.00    +0.038 A 
ATOM     20  C   UNL     1      -3.524  -2.231  24.110  0.00  0.00    +0.038 A 
ATOM     21  C   UNL     1      -2.393  -2.094  24.916  0.00  0.00    +0.123 A 
ENDBRANCH  13  14
ENDBRANCH   6  13
ENDBRANCH   8   6
BRANCH  10  12
ATOM     12  C   UNL     1      -1.072   4.552  25.015  0.00  0.00    +0.138 C 
BRANCH  12   7
ATOM      5  O   UNL     1       0.466   2.359  26.050  0.00  0.00    -0.270 OA
ATOM      7  N   UNL     1      -0.567   3.434  24.272  0.00  0.00    -0.308 N 
ATOM     15  C   UNL     1       0.173   2.412  24.858  0.00  0.00    +0.251 C 
ATOM     27  H   UNL     1      -0.760   3.418  23.277  0.00  0.00    +0.149 HD
BRANCH  15  18
ATOM      1  S   UNL     1       2.271   1.360  23.406  0.00  0.00    -0.092 S 
ATOM     18  C   UNL     1       0.646   1.339  23.946  0.00  0.00    +0.074 A 
ATOM     22  C   UNL     1      -0.054   0.267  23.437  0.00  0.00    +0.021 A 
ATOM     23  C   UNL     1       0.755  -0.547  22.591  0.00  0.00    +0.008 A 
ATOM     24  C   UNL     1       2.042  -0.066  22.487  0.00  0.00    +0.046 A 
ENDBRANCH  15  18
ENDBRANCH  12   7
ENDBRANCH  10  12
TORSDOF 7
ENDMDL
MODEL 3
REMARK VINA RESULT:      -4.5      3.170      3.897
REMARK  Name = 75536599
REMARK  7 active torsions:
REMARK  status: ('A' for Active; 'I' for Inactive)
REMARK    1  A    between atoms: O_4  and  C_9
REMARK    2  A    between atoms: N_6  and  C_8
REMARK    3  A    between atoms: N_6  and  C_13
REMARK    4  A    between atoms: N_7  and  C_12
REMARK    5  A    between atoms: C_10  and  C_12
REMARK    6  A    between atoms: C_13  and  C_14
REMARK    7  A    between atoms: C_15  and  C_18
REMARK                            x       y       z     vdW  Elec       q    Type
REMARK                         _______ _______ _______ _____ _____    ______ ____
ROOT
ATOM      3  O   UNL     1      -1.853  -2.677  24.001  0.00  0.00    -0.371 OA
ATOM      8  C   UNL     1      -0.148  -1.082  24.436  0.00  0.00    +0.111 C 
ATOM      9  C   UNL     1      -1.324  -0.812  25.356  0.00  0.00    +0.164 C 
ATOM     10  C   UNL     1      -2.032  -2.161  25.330  0.00  0.00    +0.165 C 
ATOM     11  C   UNL     1      -0.796  -1.939  23.362  0.00  0.00    +0.181 C 
ENDROOT
BRANCH   9   4
ATOM      4  O   UNL     1      -0.924  -0.452  26.664  0.00  0.00    -0.388 OA
ATOM     26  H   UNL     1      -0.552  -1.239  27.097  0.00  0.00    +0.210 HD
ENDBRANCH   9   4
BRANCH   8   6
ATOM      6  N   UNL     1       0.465   0.125  23.905  0.00  0.00    -0.305 NA
ATOM     25  H   UNL     1       1.077   0.529  24.615  0.00  0.00    +0.123 HD
BRANCH   6  13
ATOM     13  C   UNL     1       1.255  -0.168  22.714  0.00  0.00    +0.116 C 
BRANCH  13  14
ATOM      2  F   UNL     1       6.784  -0.085  23.795  0.00  0.00    -0.205 F 
ATOM     14  C   UNL     1       2.732  -0.145  23.002  0.00  0.00    -0.033 A 
ATOM     16  C   UNL     1       3.352  -1.266  23.556  0.00  0.00    +0.008 A 
ATOM     17  C   UNL     1       3.482   0.996  22.717  0.00  0.00    +0.008 A 
ATOM     19  C   UNL     1       4.720  -1.245  23.824  0.00  0.00    +0.038 A 
ATOM     20  C   UNL     1       4.850   1.017  22.985  0.00  0.00    +0.038 A 
ATOM     21  C   UNL     1       5.469  -0.104  23.539  0.00  0.00    +0.123 A 
ENDBRANCH  13  14
ENDBRANCH   6  13
ENDBRANCH   8   6
BRANCH  10  12
ATOM     12  C   UNL     1      -3.513  -2.067  25.649  0.00  0.00    +0.138 C 
BRANCH  12   7
ATOM      5  O   UNL     1      -4.133  -0.256  23.508  0.00  0.00    -0.270 OA
ATOM      7  N   UNL     1      -3.934  -0.701  25.777  0.00  0.00    -0.308 N 
ATOM     15  C   UNL     1      -4.214   0.107  24.679  0.00  0.00    +0.251 C 
ATOM     27  H   UNL     1      -4.010  -0.329  26.716  0.00  0.00    +0.149 HD
BRANCH  15  18
ATOM      1  S   UNL     1      -3.493   2.770  24.692  0.00  0.00    -0.092 S 
ATOM     18  C   UNL     1      -4.612   1.506  24.979  0.00  0.00    +0.074 A 
ATOM     22  C   UNL     1      -5.806   1.976  25.480  0.00  0.00    +0.021 A 
ATOM     23  C   UNL     1      -5.802   3.394  25.630  0.00  0.00    +0.008 A 
ATOM     24  C   UNL     1      -4.606   3.952  25.238  0.00  0.00    +0.046 A 
ENDBRANCH  15  18
ENDBRANCH  12   7
ENDBRANCH  10  12
TORSDOF 7
ENDMDL
MODEL 4
REMARK VINA RESULT:      -4.4      3.026      5.169
REMARK  Name = 75536599
REMARK  7 active torsions:
REMARK  status: ('A' for Active; 'I' for Inactive)
REMARK    1  A    between atoms: O_4  and  C_9
REMARK    2  A    between atoms: N_6  and  C_8
REMARK    3  A    between atoms: N_6  and  C_13
REMARK    4  A    between atoms: N_7  and  C_12
REMARK    5  A    between atoms: C_10  and  C_12
REMARK    6  A    between atoms: C_13  and  C_14
REMARK    7  A    between atoms: C_15  and  C_18
REMARK                            x       y       z     vdW  Elec       q    Type
REMARK                         _______ _______ _______ _____ _____    ______ ____
ROOT
ATOM      3  O   UNL     1       0.106   3.770  26.058  0.00  0.00    -0.371 OA
ATOM      8  C   UNL     1       0.376   1.757  24.826  0.00  0.00    +0.111 C 
ATOM      9  C   UNL     1      -0.712   2.592  24.177  0.00  0.00    +0.164 C 
ATOM     10  C   UNL     1      -0.385   3.976  24.723  0.00  0.00    +0.165 C 
ATOM     11  C   UNL     1       0.450   2.381  26.210  0.00  0.00    +0.181 C 
ENDROOT
BRANCH   9   4
ATOM      4  O   UNL     1      -0.658   2.556  22.764  0.00  0.00    -0.388 OA
ATOM     26  H   UNL     1      -0.093   1.811  22.499  0.00  0.00    +0.210 HD
ENDBRANCH   9   4
BRANCH   8   6
ATOM      6  N   UNL     1       0.077   0.335  24.861  0.00  0.00    -0.305 NA
ATOM     25  H   UNL     1       0.908  -0.173  25.167  0.00  0.00    +0.123 HD
BRANCH   6  13
ATOM     13  C   UNL     1      -1.016   0.050  25.783  0.00  0.00    +0.116 C 
BRANCH  13  14
ATOM      2  F   UNL     1      -4.960  -3.201  23.412  0.00  0.00    -0.205 F 
ATOM     14  C   UNL     1      -2.070  -0.819  25.150  0.00  0.00    -0.033 A 
ATOM     16  C   UNL     1      -1.786  -2.151  24.846  0.00  0.00    +0.008 A 
ATOM     17  C   UNL     1      -3.330  -0.292  24.866  0.00  0.00    +0.008 A 
ATOM     19  C   UNL     1      -2.762  -2.955  24.258  0.00  0.00    +0.038 A 
ATOM     20  C   UNL     1      -4.306  -1.097  24.279  0.00  0.00    +0.038 A 
ATOM     21  C   UNL     1      -4.022  -2.428  23.975  0.00  0.00    +0.123 A 
ENDBRANCH  13  14
ENDBRANCH   6  13
ENDBRANCH   8   6
BRANCH  10  12
ATOM     12  C   UNL     1      -1.584   4.907  24.755  0.00  0.00    +0.138 C 
BRANCH  12   7
ATOM      5  O   UNL     1      -3.076   4.007  27.037  0.00  0.00    -0.270 OA
ATOM      7  N   UNL     1      -2.816   4.171  24.737  0.00  0.00    -0.308 N 
ATOM     15  C   UNL     1      -3.473   3.775  25.898  0.00  0.00    +0.251 C 
ATOM     27  H   UNL     1      -3.196   3.932  23.829  0.00  0.00    +0.149 HD
BRANCH  15  18
ATOM      1  S   UNL     1      -5.162   2.492  24.133  0.00  0.00    -0.092 S 
ATOM     18  C   UNL     1      -4.724   2.997  25.710  0.00  0.00    +0.074 A 
ATOM     22  C   UNL     1      -5.642   2.594  26.655  0.00  0.00    +0.021 A 
ATOM     23  C   UNL     1      -6.718   1.860  26.076  0.00  0.00    +0.008 A 
ATOM     24  C   UNL     1      -6.583   1.731  24.712  0.00  0.00    +0.046 A 
ENDBRANCH  15  18
ENDBRANCH  12   7
ENDBRANCH  10  12
TORSDOF 7
ENDMDL
MODEL 5
REMARK VINA RESULT:      -4.1      2.710      4.946
REMARK  Name = 75536599
REMARK  7 active torsions:
REMARK  status: ('A' for Active; 'I' for Inactive)
REMARK    1  A    between atoms: O_4  and  C_9
REMARK    2  A    between atoms: N_6  and  C_8
REMARK    3  A    between atoms: N_6  and  C_13
REMARK    4  A    between atoms: N_7  and  C_12
REMARK    5  A    between atoms: C_10  and  C_12
REMARK    6  A    between atoms: C_13  and  C_14
REMARK    7  A    between atoms: C_15  and  C_18
REMARK                            x       y       z     vdW  Elec       q    Type
REMARK                         _______ _______ _______ _____ _____    ______ ____
ROOT
ATOM      3  O   UNL     1      -4.234   3.444  26.668  0.00  0.00    -0.371 OA
ATOM      8  C   UNL     1      -2.533   4.460  25.359  0.00  0.00    +0.111 C 
ATOM      9  C   UNL     1      -3.583   3.874  24.435  0.00  0.00    +0.164 C 
ATOM     10  C   UNL     1      -4.776   3.767  25.377  0.00  0.00    +0.165 C 
ATOM     11  C   UNL     1      -2.822   3.719  26.654  0.00  0.00    +0.181 C 
ENDROOT
BRANCH   9   4
ATOM      4  O   UNL     1      -3.860   4.704  23.325  0.00  0.00    -0.388 OA
ATOM     26  H   UNL     1      -3.132   5.342  23.231  0.00  0.00    +0.210 HD
ENDBRANCH   9   4
BRANCH   8   6
ATOM      6  N   UNL     1      -1.170   4.269  24.889  0.00  0.00    -0.305 NA
ATOM     25  H   UNL     1      -0.688   5.169  24.891  0.00  0.00    +0.123 HD
BRANCH   6  13
ATOM     13  C   UNL     1      -0.443   3.341  25.748  0.00  0.00    +0.116 C 
BRANCH  13  14
ATOM      2  F   UNL     1      -0.409  -1.880  23.632  0.00  0.00    -0.205 F 
ATOM     14  C   UNL     1      -0.433   1.947  25.183  0.00  0.00    -0.033 A 
ATOM     16  C   UNL     1      -0.255   1.749  23.814  0.00  0.00    +0.008 A 
ATOM     17  C   UNL     1      -0.604   0.850  26.028  0.00  0.00    +0.008 A 
ATOM     19  C   UNL     1      -0.247   0.457  23.290  0.00  0.00    +0.038 A 
ATOM     20  C   UNL     1      -0.596  -0.443  25.505  0.00  0.00    +0.038 A 
ATOM     21  C   UNL     1      -0.418  -0.639  24.135  0.00  0.00    +0.123 A 
ENDBRANCH  13  14
ENDBRANCH   6  13
ENDBRANCH   8   6
BRANCH  10  12
ATOM     12  C   UNL     1      -5.777   2.705  24.959  0.00  0.00    +0.138 C 
BRANCH  12   7
ATOM      5  O   UNL     1      -3.867   1.238  23.396  0.00  0.00    -0.270 OA
ATOM      7  N   UNL     1      -5.281   1.386  25.229  0.00  0.00    -0.308 N 
ATOM     15  C   UNL     1      -4.351   0.749  24.413  0.00  0.00    +0.251 C 
ATOM     27  H   UNL     1      -5.648   0.915  26.048  0.00  0.00    +0.149 HD
BRANCH  15  18
ATOM      1  S   UNL     1      -4.016  -1.883  23.654  0.00  0.00    -0.092 S 
ATOM     18  C   UNL     1      -3.958  -0.626  24.815  0.00  0.00    +0.074 A 
ATOM     22  C   UNL     1      -3.530  -1.077  26.045  0.00  0.00    +0.021 A 
ATOM     23  C   UNL     1      -3.246  -2.474  26.032  0.00  0.00    +0.008 A 
ATOM     24  C   UNL     1      -3.467  -3.036  24.795  0.00  0.00    +0.046 A 
ENDBRANCH  15  18
ENDBRANCH  12   7
ENDBRANCH  10  12
TORSDOF 7
ENDMDL
MODEL 6
REMARK VINA RESULT:      -4.0      3.390      5.678
REMARK  Name = 75536599
REMARK  7 active torsions:
REMARK  status: ('A' for Active; 'I' for Inactive)
REMARK    1  A    between atoms: O_4  and  C_9
REMARK    2  A    between atoms: N_6  and  C_8
REMARK    3  A    between atoms: N_6  and  C_13
REMARK    4  A    between atoms: N_7  and  C_12
REMARK    5  A    between atoms: C_10  and  C_12
REMARK    6  A    between atoms: C_13  and  C_14
REMARK    7  A    between atoms: C_15  and  C_18
REMARK                            x       y       z     vdW  Elec       q    Type
REMARK                         _______ _______ _______ _____ _____    ______ ____
ROOT
ATOM      3  O   UNL     1      -0.747  -0.451  25.449  0.00  0.00    -0.371 OA
ATOM      8  C   UNL     1      -3.101  -0.701  25.640  0.00  0.00    +0.111 C 
ATOM      9  C   UNL     1      -2.697  -0.916  24.194  0.00  0.00    +0.164 C 
ATOM     10  C   UNL     1      -1.218  -1.246  24.348  0.00  0.00    +0.165 C 
ATOM     11  C   UNL     1      -1.885   0.027  26.188  0.00  0.00    +0.181 C 
ENDROOT
BRANCH   9   4
ATOM      4  O   UNL     1      -3.411  -1.970  23.578  0.00  0.00    -0.388 OA
ATOM     26  H   UNL     1      -3.206  -1.964  22.628  0.00  0.00    +0.210 HD
ENDBRANCH   9   4
BRANCH   8   6
ATOM      6  N   UNL     1      -4.333   0.057  25.795  0.00  0.00    -0.305 NA
ATOM     25  H   UNL     1      -4.299   0.571  26.676  0.00  0.00    +0.123 HD
BRANCH   6  13
ATOM     13  C   UNL     1      -4.507   1.006  24.701  0.00  0.00    +0.116 C 
BRANCH  13  14
ATOM      2  F   UNL     1      -1.350   5.619  25.403  0.00  0.00    -0.205 F 
ATOM     14  C   UNL     1      -3.663   2.238  24.888  0.00  0.00    -0.033 A 
ATOM     16  C   UNL     1      -3.948   3.128  25.925  0.00  0.00    +0.008 A 
ATOM     17  C   UNL     1      -2.597   2.492  24.026  0.00  0.00    +0.008 A 
ATOM     19  C   UNL     1      -3.167   4.269  26.098  0.00  0.00    +0.038 A 
ATOM     20  C   UNL     1      -1.815   3.634  24.199  0.00  0.00    +0.038 A 
ATOM     21  C   UNL     1      -2.101   4.523  25.235  0.00  0.00    +0.123 A 
ENDBRANCH  13  14
ENDBRANCH   6  13
ENDBRANCH   8   6
BRANCH  10  12
ATOM     12  C   UNL     1      -0.401  -0.939  23.106  0.00  0.00    +0.138 C 
BRANCH  12   7
ATOM      5  O   UNL     1       1.711  -0.300  21.269  0.00  0.00    -0.270 OA
ATOM      7  N   UNL     1       0.970  -0.677  23.435  0.00  0.00    -0.308 N 
ATOM     15  C   UNL     1       1.931  -0.374  22.475  0.00  0.00    +0.251 C 
ATOM     27  H   UNL     1       1.228  -0.735  24.414  0.00  0.00    +0.149 HD
BRANCH  15  18
ATOM      1  S   UNL     1       4.115  -1.430  23.792  0.00  0.00    -0.092 S 
ATOM     18  C   UNL     1       3.312  -0.155  22.976  0.00  0.00    +0.074 A 
ATOM     22  C   UNL     1       4.096   0.974  22.885  0.00  0.00    +0.021 A 
ATOM     23  C   UNL     1       5.372   0.790  23.492  0.00  0.00    +0.008 A 
ATOM     24  C   UNL     1       5.515  -0.472  24.024  0.00  0.00    +0.046 A 
ENDBRANCH  15  18
ENDBRANCH  12   7
ENDBRANCH  10  12
TORSDOF 7
ENDMDL
MODEL 7
REMARK VINA RESULT:      -3.8      3.808      6.355
REMARK  Name = 75536599
REMARK  7 active torsions:
REMARK  status: ('A' for Active; 'I' for Inactive)
REMARK    1  A    between atoms: O_4  and  C_9
REMARK    2  A    between atoms: N_6  and  C_8
REMARK    3  A    between atoms: N_6  and  C_13
REMARK    4  A    between atoms: N_7  and  C_12
REMARK    5  A    between atoms: C_10  and  C_12
REMARK    6  A    between atoms: C_13  and  C_14
REMARK    7  A    between atoms: C_15  and  C_18
REMARK                            x       y       z     vdW  Elec       q    Type
REMARK                         _______ _______ _______ _____ _____    ______ ____
ROOT
ATOM      3  O   UNL     1      -0.600   0.184  25.606  0.00  0.00    -0.371 OA
ATOM      8  C   UNL     1      -1.322   2.363  25.000  0.00  0.00    +0.111 C 
ATOM      9  C   UNL     1      -0.974   1.591  23.742  0.00  0.00    +0.164 C 
ATOM     10  C   UNL     1      -1.062   0.156  24.245  0.00  0.00    +0.165 C 
ATOM     11  C   UNL     1      -0.606   1.547  26.063  0.00  0.00    +0.181 C 
ENDROOT
BRANCH   9   4
ATOM      4  O   UNL     1      -1.878   1.836  22.683  0.00  0.00    -0.388 OA
ATOM     26  H   UNL     1      -1.923   2.795  22.535  0.00  0.00    +0.210 HD
ENDBRANCH   9   4
BRANCH   8   6
ATOM      6  N   UNL     1      -0.894   3.753  24.969  0.00  0.00    -0.305 NA
ATOM     25  H   UNL     1      -0.448   3.945  24.072  0.00  0.00    +0.123 HD
BRANCH   6  13
ATOM     13  C   UNL     1      -2.028   4.655  25.134  0.00  0.00    +0.116 C 
BRANCH  13  14
ATOM      2  F   UNL     1      -6.937   1.890  25.071  0.00  0.00    -0.205 F 
ATOM     14  C   UNL     1      -3.339   3.916  25.118  0.00  0.00    -0.033 A 
ATOM     16  C   UNL     1      -3.850   3.429  23.914  0.00  0.00    +0.008 A 
ATOM     17  C   UNL     1      -4.045   3.719  26.305  0.00  0.00    +0.008 A 
ATOM     19  C   UNL     1      -5.065   2.745  23.899  0.00  0.00    +0.038 A 
ATOM     20  C   UNL     1      -5.260   3.035  26.290  0.00  0.00    +0.038 A 
ATOM     21  C   UNL     1      -5.770   2.548  25.086  0.00  0.00    +0.123 A 
ENDBRANCH  13  14
ENDBRANCH   6  13
ENDBRANCH   8   6
BRANCH  10  12
ATOM     12  C   UNL     1      -0.220  -0.816  23.436  0.00  0.00    +0.138 C 
BRANCH  12   7
ATOM      5  O   UNL     1       1.785  -0.185  21.481  0.00  0.00    -0.270 OA
ATOM      7  N   UNL     1       1.180  -0.619  23.678  0.00  0.00    -0.308 N 
ATOM     15  C   UNL     1       2.084  -0.315  22.665  0.00  0.00    +0.251 C 
ATOM     27  H   UNL     1       1.501  -0.725  24.634  0.00  0.00    +0.149 HD
BRANCH  15  18
ATOM      1  S   UNL     1       4.297  -1.491  23.820  0.00  0.00    -0.092 S 
ATOM     18  C   UNL     1       3.504  -0.168  23.076  0.00  0.00    +0.074 A 
ATOM     22  C   UNL     1       4.332   0.925  22.947  0.00  0.00    +0.021 A 
ATOM     23  C   UNL     1       5.636   0.672  23.465  0.00  0.00    +0.008 A 
ATOM     24  C   UNL     1       5.754  -0.604  23.971  0.00  0.00    +0.046 A 
ENDBRANCH  15  18
ENDBRANCH  12   7
ENDBRANCH  10  12
TORSDOF 7
ENDMDL
MODEL 8
REMARK VINA RESULT:      -3.8      2.067      4.218
REMARK  Name = 75536599
REMARK  7 active torsions:
REMARK  status: ('A' for Active; 'I' for Inactive)
REMARK    1  A    between atoms: O_4  and  C_9
REMARK    2  A    between atoms: N_6  and  C_8
REMARK    3  A    between atoms: N_6  and  C_13
REMARK    4  A    between atoms: N_7  and  C_12
REMARK    5  A    between atoms: C_10  and  C_12
REMARK    6  A    between atoms: C_13  and  C_14
REMARK    7  A    between atoms: C_15  and  C_18
REMARK                            x       y       z     vdW  Elec       q    Type
REMARK                         _______ _______ _______ _____ _____    ______ ____
ROOT
ATOM      3  O   UNL     1      -0.923  -0.378  26.161  0.00  0.00    -0.371 OA
ATOM      8  C   UNL     1      -2.477  -2.007  25.405  0.00  0.00    +0.111 C 
ATOM      9  C   UNL     1      -1.608  -1.575  24.239  0.00  0.00    +0.164 C 
ATOM     10  C   UNL     1      -0.405  -0.993  24.970  0.00  0.00    +0.165 C 
ATOM     11  C   UNL     1      -2.258  -0.867  26.385  0.00  0.00    +0.181 C 
ENDROOT
BRANCH   9   4
ATOM      4  O   UNL     1      -1.245  -2.653  23.399  0.00  0.00    -0.388 OA
ATOM     26  H   UNL     1      -0.411  -3.029  23.728  0.00  0.00    +0.210 HD
ENDBRANCH   9   4
BRANCH   8   6
ATOM      6  N   UNL     1      -3.876  -2.192  25.054  0.00  0.00    -0.305 NA
ATOM     25  H   UNL     1      -4.459  -1.889  25.835  0.00  0.00    +0.123 HD
BRANCH   6  13
ATOM     13  C   UNL     1      -4.227  -1.413  23.872  0.00  0.00    +0.116 C 
BRANCH  13  14
ATOM      2  F   UNL     1      -5.171   3.997  25.131  0.00  0.00    -0.205 F 
ATOM     14  C   UNL     1      -4.479   0.032  24.209  0.00  0.00    -0.033 A 
ATOM     16  C   UNL     1      -5.409   0.368  25.193  0.00  0.00    +0.008 A 
ATOM     17  C   UNL     1      -3.784   1.037  23.535  0.00  0.00    +0.008 A 
ATOM     19  C   UNL     1      -5.642   1.707  25.504  0.00  0.00    +0.038 A 
ATOM     20  C   UNL     1      -4.017   2.376  23.847  0.00  0.00    +0.038 A 
ATOM     21  C   UNL     1      -4.947   2.711  24.831  0.00  0.00    +0.123 A 
ENDBRANCH  13  14
ENDBRANCH   6  13
ENDBRANCH   8   6
BRANCH  10  12
ATOM     12  C   UNL     1       0.356   0.034  24.151  0.00  0.00    +0.138 C 
BRANCH  12   7
ATOM      5  O   UNL     1       0.948   2.106  26.049  0.00  0.00    -0.270 OA
ATOM      7  N   UNL     1      -0.263   1.326  24.230  0.00  0.00    -0.308 N 
ATOM     15  C   UNL     1       0.089   2.272  25.188  0.00  0.00    +0.251 C 
ATOM     27  H   UNL     1      -0.993   1.528  23.557  0.00  0.00    +0.149 HD
BRANCH  15  18
ATOM      1  S   UNL     1      -2.038   3.738  26.158  0.00  0.00    -0.092 S 
ATOM     18  C   UNL     1      -0.664   3.552  25.152  0.00  0.00    +0.074 A 
ATOM     22  C   UNL     1      -0.421   4.677  24.396  0.00  0.00    +0.021 A 
ATOM     23  C   UNL     1      -1.375   5.706  24.646  0.00  0.00    +0.008 A 
ATOM     24  C   UNL     1      -2.311   5.328  25.583  0.00  0.00    +0.046 A 
ENDBRANCH  15  18
ENDBRANCH  12   7
ENDBRANCH  10  12
TORSDOF 7
ENDMDL
MODEL 9
REMARK VINA RESULT:      -3.4     15.426     17.284
REMARK  Name = 75536599
REMARK  7 active torsions:
REMARK  status: ('A' for Active; 'I' for Inactive)
REMARK    1  A    between atoms: O_4  and  C_9
REMARK    2  A    between atoms: N_6  and  C_8
REMARK    3  A    between atoms: N_6  and  C_13
REMARK    4  A    between atoms: N_7  and  C_12
REMARK    5  A    between atoms: C_10  and  C_12
REMARK    6  A    between atoms: C_13  and  C_14
REMARK    7  A    between atoms: C_15  and  C_18
REMARK                            x       y       z     vdW  Elec       q    Type
REMARK                         _______ _______ _______ _____ _____    ______ ____
ROOT
ATOM      3  O   UNL     1      -4.727 -10.023  12.599  0.00  0.00    -0.371 OA
ATOM      8  C   UNL     1      -6.918 -10.773  13.124  0.00  0.00    +0.111 C 
ATOM      9  C   UNL     1      -6.938 -10.105  11.762  0.00  0.00    +0.164 C 
ATOM     10  C   UNL     1      -5.466 -10.182  11.377  0.00  0.00    +0.165 C 
ATOM     11  C   UNL     1      -5.622 -10.235  13.705  0.00  0.00    +0.181 C 
ENDROOT
BRANCH   9   4
ATOM      4  O   UNL     1      -7.763 -10.781  10.833  0.00  0.00    -0.388 OA
ATOM     26  H   UNL     1      -8.690 -10.617  11.072  0.00  0.00    +0.210 HD
ENDBRANCH   9   4
BRANCH   8   6
ATOM      6  N   UNL     1      -8.079 -10.462  13.943  0.00  0.00    -0.305 NA
ATOM     25  H   UNL     1      -8.354 -11.297  14.462  0.00  0.00    +0.123 HD
BRANCH   6  13
ATOM     13  C   UNL     1      -7.782  -9.394  14.891  0.00  0.00    +0.116 C 
BRANCH  13  14
ATOM      2  F   UNL     1     -10.719  -9.957  19.666  0.00  0.00    -0.205 F 
ATOM     14  C   UNL     1      -8.567  -9.544  16.167  0.00  0.00    -0.033 A 
ATOM     16  C   UNL     1      -8.257 -10.570  17.060  0.00  0.00    +0.008 A 
ATOM     17  C   UNL     1      -9.605  -8.658  16.456  0.00  0.00    +0.008 A 
ATOM     19  C   UNL     1      -8.984 -10.709  18.242  0.00  0.00    +0.038 A 
ATOM     20  C   UNL     1     -10.332  -8.798  17.638  0.00  0.00    +0.038 A 
ATOM     21  C   UNL     1     -10.022  -9.824  18.530  0.00  0.00    +0.123 A 
ENDBRANCH  13  14
ENDBRANCH   6  13
ENDBRANCH   8   6
BRANCH  10  12
ATOM     12  C   UNL     1      -5.050  -9.113  10.382  0.00  0.00    +0.138 C 
BRANCH  12   7
ATOM      5  O   UNL     1      -6.828  -9.408   8.147  0.00  0.00    -0.270 OA
ATOM      7  N   UNL     1      -6.152  -8.257  10.045  0.00  0.00    -0.308 N 
ATOM     15  C   UNL     1      -6.964  -8.478   8.937  0.00  0.00    +0.251 C 
ATOM     27  H   UNL     1      -6.315  -7.459  10.647  0.00  0.00    +0.149 HD
BRANCH  15  18
ATOM      1  S   UNL     1      -9.678  -8.000   8.784  0.00  0.00    -0.092 S 
ATOM     18  C   UNL     1      -8.046  -7.485   8.710  0.00  0.00    +0.074 A 
ATOM     22  C   UNL     1      -7.941  -6.140   8.434  0.00  0.00    +0.021 A 
ATOM     23  C   UNL     1      -9.217  -5.524   8.282  0.00  0.00    +0.008 A 
ATOM     24  C   UNL     1     -10.249  -6.421   8.447  0.00  0.00    +0.046 A 
ENDBRANCH  15  18
ENDBRANCH  12   7
ENDBRANCH  10  12
TORSDOF 7
ENDMDL
MODEL 10
REMARK VINA RESULT:      -2.9      3.660      6.243
REMARK  Name = 75536599
REMARK  7 active torsions:
REMARK  status: ('A' for Active; 'I' for Inactive)
REMARK    1  A    between atoms: O_4  and  C_9
REMARK    2  A    between atoms: N_6  and  C_8
REMARK    3  A    between atoms: N_6  and  C_13
REMARK    4  A    between atoms: N_7  and  C_12
REMARK    5  A    between atoms: C_10  and  C_12
REMARK    6  A    between atoms: C_13  and  C_14
REMARK    7  A    between atoms: C_15  and  C_18
REMARK                            x       y       z     vdW  Elec       q    Type
REMARK                         _______ _______ _______ _____ _____    ______ ____
ROOT
ATOM      3  O   UNL     1      -0.617   0.078  25.433  0.00  0.00    -0.371 OA
ATOM      8  C   UNL     1      -2.530  -1.313  25.647  0.00  0.00    +0.111 C 
ATOM      9  C   UNL     1      -1.917  -1.523  24.275  0.00  0.00    +0.164 C 
ATOM     10  C   UNL     1      -0.500  -1.013  24.505  0.00  0.00    +0.165 C 
ATOM     11  C   UNL     1      -1.914   0.016  26.052  0.00  0.00    +0.181 C 
ENDROOT
BRANCH   9   4
ATOM      4  O   UNL     1      -1.932  -2.878  23.871  0.00  0.00    -0.388 OA
ATOM     26  H   UNL     1      -2.060  -2.908  22.908  0.00  0.00    +0.210 HD
ENDBRANCH   9   4
BRANCH   8   6
ATOM      6  N   UNL     1      -3.984  -1.284  25.638  0.00  0.00    -0.305 NA
ATOM     25  H   UNL     1      -4.312  -0.792  26.469  0.00  0.00    +0.123 HD
BRANCH   6  13
ATOM     13  C   UNL     1      -4.489  -0.600  24.454  0.00  0.00    +0.116 C 
BRANCH  13  14
ATOM      2  F   UNL     1      -5.245   4.906  25.379  0.00  0.00    -0.205 F 
ATOM     14  C   UNL     1      -4.692   0.871  24.701  0.00  0.00    -0.033 A 
ATOM     16  C   UNL     1      -3.961   1.808  23.970  0.00  0.00    +0.008 A 
ATOM     17  C   UNL     1      -5.609   1.298  25.661  0.00  0.00    +0.008 A 
ATOM     19  C   UNL     1      -4.148   3.171  24.199  0.00  0.00    +0.038 A 
ATOM     20  C   UNL     1      -5.796   2.661  25.891  0.00  0.00    +0.038 A 
ATOM     21  C   UNL     1      -5.065   3.597  25.159  0.00  0.00    +0.123 A 
ENDBRANCH  13  14
ENDBRANCH   6  13
ENDBRANCH   8   6
BRANCH  10  12
ATOM     12  C   UNL     1       0.181  -0.537  23.234  0.00  0.00    +0.138 C 
BRANCH  12   7
ATOM      5  O   UNL     1       2.120   1.580  23.267  0.00  0.00    -0.270 OA
ATOM      7  N   UNL     1       1.605  -0.682  23.320  0.00  0.00    -0.308 N 
ATOM     15  C   UNL     1       2.474   0.406  23.330  0.00  0.00    +0.251 C 
ATOM     27  H   UNL     1       1.970  -1.627  23.362  0.00  0.00    +0.149 HD
BRANCH  15  18
ATOM      1  S   UNL     1       4.408  -1.511  23.781  0.00  0.00    -0.092 S 
ATOM     18  C   UNL     1       3.923   0.086  23.397  0.00  0.00    +0.074 A 
ATOM     22  C   UNL     1       5.001   0.917  23.188  0.00  0.00    +0.021 A 
ATOM     23  C   UNL     1       6.242   0.233  23.344  0.00  0.00    +0.008 A 
ATOM     24  C   UNL     1       6.065  -1.094  23.668  0.00  0.00    +0.046 A 
ENDBRANCH  15  18
ENDBRANCH  12   7
ENDBRANCH  10  12
TORSDOF 7
ENDMDL
