MODEL 1
REMARK VINA RESULT:       2.1      0.000      0.000
REMARK  Name = 71693178
REMARK  13 active torsions:
REMARK  status: ('A' for Active; 'I' for Inactive)
REMARK    1  A    between atoms: O_2  and  C_34
REMARK    2  A    between atoms: O_2  and  C_35
REMARK    3  A    between atoms: N_4  and  C_13
REMARK    4  A    between atoms: N_4  and  C_17
REMARK    5  A    between atoms: C_8  and  C_12
REMARK    6  A    between atoms: C_9  and  C_13
REMARK    7  A    between atoms: C_11  and  C_16
REMARK    8  A    between atoms: C_12  and  C_18
REMARK    9  A    between atoms: C_12  and  C_19
REMARK   10  A    between atoms: C_14  and  C_22
REMARK   11  A    between atoms: C_16  and  C_25
REMARK   12  A    between atoms: C_26  and  C_29
REMARK   13  A    between atoms: C_32  and  C_34
REMARK                            x       y       z     vdW  Elec       q    Type
REMARK                         _______ _______ _______ _____ _____    ______ ____
ROOT
ATOM      8  C   UNL     1      -2.709   3.465  25.722  0.00  0.00    +0.000 C 
ATOM      9  C   UNL     1      -4.069   3.464  24.986  0.00  0.00    +0.029 C 
ATOM     10  C   UNL     1      -1.885   2.230  25.329  0.00  0.00    +0.012 C 
ATOM     11  C   UNL     1      -1.646   2.112  23.809  0.00  0.00    +0.022 C 
ATOM     14  C   UNL     1      -2.862   2.503  22.983  0.00  0.00    -0.073 C 
ATOM     15  C   UNL     1      -3.940   3.095  23.530  0.00  0.00    -0.023 C 
ATOM     22  C   UNL     1      -2.803   2.258  21.500  0.00  0.00    +0.039 C 
ENDROOT
BRANCH   8  12
ATOM     12  C   UNL     1      -1.930   4.760  25.456  0.00  0.00    -0.013 C 
ATOM     18  C   UNL     1      -2.672   5.628  24.445  0.00  0.00    +0.007 C 
ATOM     19  C   UNL     1      -0.520   4.443  24.966  0.00  0.00    +0.007 C 
ENDBRANCH   8  12
BRANCH   9  13
ATOM     13  C   UNL     1      -5.074   2.523  25.656  0.00  0.00    +0.089 C 
BRANCH  13   4
ATOM      4  N   UNL     1      -5.571   1.540  24.707  0.00  0.00    -0.313 NA
ATOM     36  H   UNL     1      -5.253   1.795  23.772  0.00  0.00    +0.122 HD
BRANCH   4  17
ATOM      1  O   UNL     1      -0.809  -2.233  25.653  0.00  0.00    -0.276 OA
ATOM      5  N   UNL     1      -3.006  -1.803  25.031  0.00  0.00    -0.302 N 
ATOM     17  C   UNL     1      -5.097   0.200  25.041  0.00  0.00    +0.057 C 
ATOM     20  C   UNL     1      -3.895   0.287  25.990  0.00  0.00    +0.037 C 
ATOM     21  C   UNL     1      -4.717  -0.558  23.762  0.00  0.00    +0.037 C 
ATOM     23  C   UNL     1      -3.324  -1.101  26.276  0.00  0.00    +0.109 C 
ATOM     24  C   UNL     1      -4.128  -1.930  24.092  0.00  0.00    +0.109 C 
ATOM     26  C   UNL     1      -1.728  -2.322  24.833  0.00  0.00    +0.212 C 
ATOM     29  C   UNL     1      -1.479  -3.029  23.525  0.00  0.00    +0.109 C 
ENDBRANCH   4  17
ENDBRANCH  13   4
ENDBRANCH   9  13
BRANCH  11  16
ATOM     16  C   UNL     1      -1.146   0.696  23.500  0.00  0.00    +0.082 C 
BRANCH  16  25
ATOM      6  N   UNL     1       1.045  -0.511  23.586  0.00  0.00    -0.342 N 
ATOM      7  N   UNL     1       1.151   1.662  23.130  0.00  0.00    -0.232 NA
ATOM     25  C   UNL     1       0.352   0.653  23.397  0.00  0.00    +0.109 A 
ATOM     27  C   UNL     1       2.378  -0.234  23.429  0.00  0.00    +0.067 A 
ATOM     28  C   UNL     1       2.419   1.129  23.145  0.00  0.00    +0.089 A 
ATOM     30  C   UNL     1       3.519  -1.034  23.510  0.00  0.00    +0.042 A 
ATOM     31  C   UNL     1       3.662   1.745  22.926  0.00  0.00    +0.030 A 
ATOM     32  C   UNL     1       4.747  -0.404  23.287  0.00  0.00    +0.061 A 
ATOM     33  C   UNL     1       4.820   0.962  23.001  0.00  0.00    +0.017 A 
ATOM     37  H   UNL     1       0.647  -1.415  23.801  0.00  0.00    +0.167 HD
BRANCH  32  34
ATOM      3  O   UNL     1       6.127  -2.178  24.082  0.00  0.00    -0.245 OA
ATOM     34  C   UNL     1       5.972  -1.186  23.358  0.00  0.00    +0.339 C 
BRANCH  34   2
ATOM      2  O   UNL     1       6.935  -0.689  22.525  0.00  0.00    -0.464 OA
ATOM     35  C   UNL     1       8.183  -0.322  23.124  0.00  0.00    +0.280 C 
ENDBRANCH  34   2
ENDBRANCH  32  34
ENDBRANCH  16  25
ENDBRANCH  11  16
TORSDOF 8
ENDMDL
MODEL 2
REMARK VINA RESULT:       5.4      1.551      2.685
REMARK  Name = 71693178
REMARK  13 active torsions:
REMARK  status: ('A' for Active; 'I' for Inactive)
REMARK    1  A    between atoms: O_2  and  C_34
REMARK    2  A    between atoms: O_2  and  C_35
REMARK    3  A    between atoms: N_4  and  C_13
REMARK    4  A    between atoms: N_4  and  C_17
REMARK    5  A    between atoms: C_8  and  C_12
REMARK    6  A    between atoms: C_9  and  C_13
REMARK    7  A    between atoms: C_11  and  C_16
REMARK    8  A    between atoms: C_12  and  C_18
REMARK    9  A    between atoms: C_12  and  C_19
REMARK   10  A    between atoms: C_14  and  C_22
REMARK   11  A    between atoms: C_16  and  C_25
REMARK   12  A    between atoms: C_26  and  C_29
REMARK   13  A    between atoms: C_32  and  C_34
REMARK                            x       y       z     vdW  Elec       q    Type
REMARK                         _______ _______ _______ _____ _____    ______ ____
ROOT
ATOM      8  C   UNL     1      -4.956   3.263  25.746  0.00  0.00    +0.000 C 
ATOM      9  C   UNL     1      -4.669   3.231  24.226  0.00  0.00    +0.029 C 
ATOM     10  C   UNL     1      -3.688   2.919  26.539  0.00  0.00    +0.012 C 
ATOM     11  C   UNL     1      -2.497   3.848  26.223  0.00  0.00    +0.022 C 
ATOM     14  C   UNL     1      -2.393   4.199  24.746  0.00  0.00    -0.073 C 
ATOM     15  C   UNL     1      -3.369   3.904  23.868  0.00  0.00    -0.023 C 
ATOM     22  C   UNL     1      -1.170   4.951  24.295  0.00  0.00    +0.039 C 
ENDROOT
BRANCH   8  12
ATOM     12  C   UNL     1      -5.531   4.619  26.178  0.00  0.00    -0.013 C 
ATOM     18  C   UNL     1      -6.335   5.242  25.040  0.00  0.00    +0.007 C 
ATOM     19  C   UNL     1      -4.412   5.554  26.625  0.00  0.00    +0.007 C 
ENDBRANCH   8  12
BRANCH   9  13
ATOM     13  C   UNL     1      -4.661   1.799  23.682  0.00  0.00    +0.089 C 
BRANCH  13   4
ATOM      4  N   UNL     1      -5.634   0.978  24.384  0.00  0.00    -0.313 NA
ATOM     36  H   UNL     1      -6.420   0.794  23.762  0.00  0.00    +0.122 HD
BRANCH   4  17
ATOM      1  O   UNL     1      -0.551  -2.262  25.597  0.00  0.00    -0.276 OA
ATOM      5  N   UNL     1      -2.776  -2.083  24.950  0.00  0.00    -0.302 N 
ATOM     17  C   UNL     1      -5.041  -0.285  24.817  0.00  0.00    +0.057 C 
ATOM     20  C   UNL     1      -3.855  -0.017  25.752  0.00  0.00    +0.037 C 
ATOM     21  C   UNL     1      -4.588  -1.099  23.597  0.00  0.00    +0.037 C 
ATOM     23  C   UNL     1      -3.160  -1.321  26.140  0.00  0.00    +0.109 C 
ATOM     24  C   UNL     1      -3.878  -2.383  24.028  0.00  0.00    +0.109 C 
ATOM     26  C   UNL     1      -1.454  -2.497  24.789  0.00  0.00    +0.212 C 
ATOM     29  C   UNL     1      -1.137  -3.274  23.536  0.00  0.00    +0.109 C 
ENDBRANCH   4  17
ENDBRANCH  13   4
ENDBRANCH   9  13
BRANCH  11  16
ATOM     16  C   UNL     1      -1.217   3.209  26.776  0.00  0.00    +0.082 C 
BRANCH  16  25
ATOM      6  N   UNL     1       0.795   2.557  25.440  0.00  0.00    -0.342 N 
ATOM      7  N   UNL     1      -1.064   1.414  25.015  0.00  0.00    -0.232 NA
ATOM     25  C   UNL     1      -0.527   2.373  25.736  0.00  0.00    +0.109 A 
ATOM     27  C   UNL     1       1.134   1.656  24.463  0.00  0.00    +0.067 A 
ATOM     28  C   UNL     1      -0.044   0.955  24.215  0.00  0.00    +0.089 A 
ATOM     30  C   UNL     1       2.332   1.402  23.795  0.00  0.00    +0.042 A 
ATOM     31  C   UNL     1      -0.042  -0.063  23.247  0.00  0.00    +0.030 A 
ATOM     32  C   UNL     1       2.315   0.385  22.835  0.00  0.00    +0.061 A 
ATOM     33  C   UNL     1       1.149  -0.336  22.564  0.00  0.00    +0.017 A 
ATOM     37  H   UNL     1       1.415   3.233  25.864  0.00  0.00    +0.167 HD
BRANCH  32  34
ATOM      3  O   UNL     1       3.735   0.371  20.920  0.00  0.00    -0.245 OA
ATOM     34  C   UNL     1       3.535   0.075  22.105  0.00  0.00    +0.339 C 
BRANCH  34   2
ATOM      2  O   UNL     1       4.436  -0.588  22.891  0.00  0.00    -0.464 OA
ATOM     35  C   UNL     1       5.454   0.202  23.515  0.00  0.00    +0.280 C 
ENDBRANCH  34   2
ENDBRANCH  32  34
ENDBRANCH  16  25
ENDBRANCH  11  16
TORSDOF 8
ENDMDL
