MODEL 1
REMARK VINA RESULT:      15.6      0.000      0.000
REMARK  Name = 7113406
REMARK  10 active torsions:
REMARK  status: ('A' for Active; 'I' for Inactive)
REMARK    1  A    between atoms: N_6  and  C_18
REMARK    2  A    between atoms: N_10  and  C_35
REMARK    3  A    between atoms: N_10  and  C_37
REMARK    4  A    between atoms: N_10  and  C_38
REMARK    5  A    between atoms: C_11  and  C_14
REMARK    6  A    between atoms: C_14  and  C_18
REMARK    7  A    between atoms: C_18  and  C_24
REMARK    8  A    between atoms: C_19  and  C_21
REMARK    9  A    between atoms: C_25  and  C_27
REMARK   10  A    between atoms: C_26  and  C_28
REMARK                            x       y       z     vdW  Elec       q    Type
REMARK                         _______ _______ _______ _____ _____    ______ ____
ROOT
ATOM      4  O   UNL     1      -4.287   3.063  22.448  0.00  0.00    -0.269 OA
ATOM      5  O   UNL     1       1.969   3.102  25.154  0.00  0.00    -0.270 OA
ATOM      7  N   UNL     1      -2.845   2.877  24.257  0.00  0.00    -0.283 N 
ATOM      8  N   UNL     1      -0.320   3.491  25.414  0.00  0.00    -0.294 N 
ATOM     19  C   UNL     1      -1.658   3.003  23.397  0.00  0.00    +0.179 C 
ATOM     20  C   UNL     1      -0.542   3.843  24.015  0.00  0.00    +0.140 C 
ATOM     22  C   UNL     1      -2.601   2.641  25.693  0.00  0.00    +0.128 C 
ATOM     23  C   UNL     1      -1.524   3.567  26.245  0.00  0.00    +0.127 C 
ATOM     25  C   UNL     1      -4.123   2.861  23.653  0.00  0.00    +0.254 C 
ATOM     26  C   UNL     1       0.962   3.163  25.857  0.00  0.00    +0.247 C 
ENDROOT
BRANCH  26  28
ATOM     28  C   UNL     1       1.141   2.846  27.280  0.00  0.00    +0.037 A 
ATOM     29  C   UNL     1       0.090   2.287  28.008  0.00  0.00    +0.015 A 
ATOM     30  C   UNL     1       2.361   3.106  27.905  0.00  0.00    +0.015 A 
ATOM     32  C   UNL     1       0.259   1.987  29.359  0.00  0.00    +0.024 A 
ATOM     33  C   UNL     1       2.530   2.805  29.256  0.00  0.00    +0.024 A 
ATOM     35  C   UNL     1       1.480   2.246  29.983  0.00  0.00    +0.029 A 
BRANCH  35  10
ATOM     10  N   UNL     1       1.650   1.943  31.351  0.00  0.00    -0.336 N 
ATOM     37  C   UNL     1       2.885   1.352  31.825  0.00  0.00    +0.129 C 
ATOM     38  C   UNL     1       0.584   2.205  32.298  0.00  0.00    +0.129 C 
ENDBRANCH  35  10
ENDBRANCH  26  28
BRANCH  25  27
ATOM      1  S   UNL     1      -5.820   3.814  25.578  0.00  0.00    -0.092 S 
ATOM     27  C   UNL     1      -5.271   2.591  24.512  0.00  0.00    +0.074 A 
ATOM     31  C   UNL     1      -6.027   1.443  24.609  0.00  0.00    +0.021 A 
ATOM     34  C   UNL     1      -7.071   1.570  25.571  0.00  0.00    +0.008 A 
ATOM     36  C   UNL     1      -7.073   2.810  26.172  0.00  0.00    +0.046 A 
ENDBRANCH  25  27
BRANCH  19  21
ATOM      2  O   UNL     1      -1.858   0.838  22.406  0.00  0.00    -0.274 OA
ATOM      6  N   UNL     1      -0.011   1.298  23.747  0.00  0.00    -0.302 N 
ATOM     21  C   UNL     1      -1.203   1.601  23.112  0.00  0.00    +0.236 C 
ATOM     39  H   UNL     1       0.412   1.987  24.362  0.00  0.00    +0.150 HD
BRANCH   6  18
ATOM     18  C   UNL     1       0.627   0.005  23.653  0.00  0.00    +0.159 C 
BRANCH  18  24
ATOM      3  O   UNL     1       1.794  -0.458  21.573  0.00  0.00    -0.274 OA
ATOM      9  N   UNL     1       2.835   0.854  23.144  0.00  0.00    -0.328 N 
ATOM     24  C   UNL     1       1.783   0.101  22.667  0.00  0.00    +0.231 C 
ATOM     40  H   UNL     1       3.673   0.989  22.588  0.00  0.00    +0.145 HD
ATOM     41  H   UNL     1       2.821   1.294  24.059  0.00  0.00    +0.145 HD
ENDBRANCH  18  24
BRANCH  18  14
ATOM     14  C   UNL     1      -0.367  -1.106  23.296  0.00  0.00    +0.035 C 
BRANCH  14  11
ATOM     11  C   UNL     1      -1.174  -1.631  24.482  0.00  0.00    -0.009 C 
ATOM     12  C   UNL     1      -1.210  -0.596  25.614  0.00  0.00    +0.003 C 
ATOM     13  C   UNL     1      -2.594  -2.011  24.043  0.00  0.00    +0.003 C 
ATOM     15  C   UNL     1      -2.056  -1.077  26.791  0.00  0.00    +0.000 C 
ATOM     16  C   UNL     1      -3.439  -2.489  25.223  0.00  0.00    +0.000 C 
ATOM     17  C   UNL     1      -3.465  -1.463  26.350  0.00  0.00    +0.000 C 
ENDBRANCH  14  11
ENDBRANCH  18  14
ENDBRANCH   6  18
ENDBRANCH  19  21
TORSDOF 8
ENDMDL
MODEL 2
REMARK VINA RESULT:      17.0      1.611      3.377
REMARK  Name = 7113406
REMARK  10 active torsions:
REMARK  status: ('A' for Active; 'I' for Inactive)
REMARK    1  A    between atoms: N_6  and  C_18
REMARK    2  A    between atoms: N_10  and  C_35
REMARK    3  A    between atoms: N_10  and  C_37
REMARK    4  A    between atoms: N_10  and  C_38
REMARK    5  A    between atoms: C_11  and  C_14
REMARK    6  A    between atoms: C_14  and  C_18
REMARK    7  A    between atoms: C_18  and  C_24
REMARK    8  A    between atoms: C_19  and  C_21
REMARK    9  A    between atoms: C_25  and  C_27
REMARK   10  A    between atoms: C_26  and  C_28
REMARK                            x       y       z     vdW  Elec       q    Type
REMARK                         _______ _______ _______ _____ _____    ______ ____
ROOT
ATOM      4  O   UNL     1      -4.333   3.227  22.549  0.00  0.00    -0.269 OA
ATOM      5  O   UNL     1       1.918   2.353  25.122  0.00  0.00    -0.270 OA
ATOM      7  N   UNL     1      -2.880   2.989  24.343  0.00  0.00    -0.283 N 
ATOM      8  N   UNL     1      -0.236   3.226  25.364  0.00  0.00    -0.294 N 
ATOM     19  C   UNL     1      -1.730   2.761  23.454  0.00  0.00    +0.179 C 
ATOM     20  C   UNL     1      -0.444   3.432  23.934  0.00  0.00    +0.140 C 
ATOM     22  C   UNL     1      -2.625   2.897  25.793  0.00  0.00    +0.128 C 
ATOM     23  C   UNL     1      -1.363   3.649  26.197  0.00  0.00    +0.127 C 
ATOM     25  C   UNL     1      -4.160   3.153  23.767  0.00  0.00    +0.254 C 
ATOM     26  C   UNL     1       0.974   2.707  25.827  0.00  0.00    +0.247 C 
ENDROOT
BRANCH  26  28
ATOM     28  C   UNL     1       1.148   2.546  27.276  0.00  0.00    +0.037 A 
ATOM     29  C   UNL     1       2.372   2.855  27.871  0.00  0.00    +0.015 A 
ATOM     30  C   UNL     1       0.091   2.081  28.059  0.00  0.00    +0.015 A 
ATOM     32  C   UNL     1       2.538   2.701  29.247  0.00  0.00    +0.024 A 
ATOM     33  C   UNL     1       0.257   1.928  29.435  0.00  0.00    +0.024 A 
ATOM     35  C   UNL     1       1.480   2.238  30.029  0.00  0.00    +0.029 A 
BRANCH  35  10
ATOM     10  N   UNL     1       1.649   2.082  31.421  0.00  0.00    -0.336 N 
ATOM     37  C   UNL     1       0.591   2.459  32.337  0.00  0.00    +0.129 C 
ATOM     38  C   UNL     1       2.890   1.554  31.954  0.00  0.00    +0.129 C 
ENDBRANCH  35  10
ENDBRANCH  26  28
BRANCH  25  27
ATOM      1  S   UNL     1      -6.146   1.798  25.077  0.00  0.00    -0.092 S 
ATOM     27  C   UNL     1      -5.301   3.233  24.674  0.00  0.00    +0.074 A 
ATOM     31  C   UNL     1      -5.839   4.341  25.292  0.00  0.00    +0.021 A 
ATOM     34  C   UNL     1      -6.958   4.008  26.108  0.00  0.00    +0.008 A 
ATOM     36  C   UNL     1      -7.234   2.658  26.082  0.00  0.00    +0.046 A 
ENDBRANCH  25  27
BRANCH  19  21
ATOM      2  O   UNL     1      -2.538   0.514  23.418  0.00  0.00    -0.274 OA
ATOM      6  N   UNL     1      -0.250   0.892  23.211  0.00  0.00    -0.302 N 
ATOM     21  C   UNL     1      -1.573   1.272  23.354  0.00  0.00    +0.236 C 
ATOM     39  H   UNL     1       0.476   1.603  23.236  0.00  0.00    +0.150 HD
BRANCH   6  18
ATOM     18  C   UNL     1       0.170  -0.487  23.116  0.00  0.00    +0.159 C 
BRANCH  18  24
ATOM      3  O   UNL     1       0.618  -2.217  24.762  0.00  0.00    -0.274 OA
ATOM      9  N   UNL     1      -0.257  -0.221  25.483  0.00  0.00    -0.328 N 
ATOM     24  C   UNL     1       0.221  -1.080  24.517  0.00  0.00    +0.231 C 
ATOM     40  H   UNL     1      -0.287  -0.498  26.459  0.00  0.00    +0.145 HD
ATOM     41  H   UNL     1      -0.601   0.710  25.265  0.00  0.00    +0.145 HD
ENDBRANCH  18  24
BRANCH  18  14
ATOM     14  C   UNL     1       1.494  -0.638  22.359  0.00  0.00    +0.035 C 
BRANCH  14  11
ATOM     11  C   UNL     1       2.729  -0.253  23.171  0.00  0.00    -0.009 C 
ATOM     12  C   UNL     1       3.623  -1.476  23.413  0.00  0.00    +0.003 C 
ATOM     13  C   UNL     1       3.511   0.865  22.469  0.00  0.00    +0.003 C 
ATOM     15  C   UNL     1       4.891  -1.105  24.179  0.00  0.00    +0.000 C 
ATOM     16  C   UNL     1       4.780   1.232  23.235  0.00  0.00    +0.000 C 
ATOM     17  C   UNL     1       5.662   0.012  23.482  0.00  0.00    +0.000 C 
ENDBRANCH  14  11
ENDBRANCH  18  14
ENDBRANCH   6  18
ENDBRANCH  19  21
TORSDOF 8
ENDMDL
MODEL 3
REMARK VINA RESULT:      19.3      3.588      5.297
REMARK  Name = 7113406
REMARK  10 active torsions:
REMARK  status: ('A' for Active; 'I' for Inactive)
REMARK    1  A    between atoms: N_6  and  C_18
REMARK    2  A    between atoms: N_10  and  C_35
REMARK    3  A    between atoms: N_10  and  C_37
REMARK    4  A    between atoms: N_10  and  C_38
REMARK    5  A    between atoms: C_11  and  C_14
REMARK    6  A    between atoms: C_14  and  C_18
REMARK    7  A    between atoms: C_18  and  C_24
REMARK    8  A    between atoms: C_19  and  C_21
REMARK    9  A    between atoms: C_25  and  C_27
REMARK   10  A    between atoms: C_26  and  C_28
REMARK                            x       y       z     vdW  Elec       q    Type
REMARK                         _______ _______ _______ _____ _____    ______ ____
ROOT
ATOM      4  O   UNL     1      -4.424   3.066  23.186  0.00  0.00    -0.269 OA
ATOM      5  O   UNL     1       0.445  -1.196  21.045  0.00  0.00    -0.270 OA
ATOM      7  N   UNL     1      -2.256   2.243  23.261  0.00  0.00    -0.283 N 
ATOM      8  N   UNL     1      -0.135   0.882  21.941  0.00  0.00    -0.294 N 
ATOM     19  C   UNL     1      -2.562   1.188  22.282  0.00  0.00    +0.179 C 
ATOM     20  C   UNL     1      -1.436   0.940  21.280  0.00  0.00    +0.140 C 
ATOM     22  C   UNL     1      -0.894   2.244  23.830  0.00  0.00    +0.128 C 
ATOM     23  C   UNL     1       0.170   2.060  22.756  0.00  0.00    +0.127 C 
ATOM     25  C   UNL     1      -3.298   3.096  23.687  0.00  0.00    +0.254 C 
ATOM     26  C   UNL     1       0.708  -0.210  21.732  0.00  0.00    +0.247 C 
ENDROOT
BRANCH  26  28
ATOM     28  C   UNL     1       2.019  -0.208  22.393  0.00  0.00    +0.037 A 
ATOM     29  C   UNL     1       2.890   0.867  22.213  0.00  0.00    +0.015 A 
ATOM     30  C   UNL     1       2.395  -1.282  23.200  0.00  0.00    +0.015 A 
ATOM     32  C   UNL     1       4.135   0.869  22.840  0.00  0.00    +0.024 A 
ATOM     33  C   UNL     1       3.640  -1.280  23.828  0.00  0.00    +0.024 A 
ATOM     35  C   UNL     1       4.510  -0.205  23.648  0.00  0.00    +0.029 A 
BRANCH  35  10
ATOM     10  N   UNL     1       5.771  -0.203  24.281  0.00  0.00    -0.336 N 
ATOM     37  C   UNL     1       6.599   0.986  24.266  0.00  0.00    +0.129 C 
ATOM     38  C   UNL     1       6.261  -1.396  24.944  0.00  0.00    +0.129 C 
ENDBRANCH  35  10
ENDBRANCH  26  28
BRANCH  25  27
ATOM      1  S   UNL     1      -1.886   5.306  24.476  0.00  0.00    -0.092 S 
ATOM     27  C   UNL     1      -3.002   4.037  24.763  0.00  0.00    +0.074 A 
ATOM     31  C   UNL     1      -3.502   4.070  26.046  0.00  0.00    +0.021 A 
ATOM     34  C   UNL     1      -2.965   5.151  26.802  0.00  0.00    +0.008 A 
ATOM     36  C   UNL     1      -2.073   5.903  26.070  0.00  0.00    +0.046 A 
ENDBRANCH  25  27
BRANCH  19  21
ATOM      2  O   UNL     1      -3.597  -0.933  22.648  0.00  0.00    -0.274 OA
ATOM      6  N   UNL     1      -2.272  -0.021  24.330  0.00  0.00    -0.302 N 
ATOM     21  C   UNL     1      -2.871  -0.043  23.083  0.00  0.00    +0.236 C 
ATOM     39  H   UNL     1      -1.743   0.800  24.612  0.00  0.00    +0.150 HD
BRANCH   6  18
ATOM     18  C   UNL     1      -2.432  -1.078  25.303  0.00  0.00    +0.159 C 
BRANCH  18  24
ATOM      3  O   UNL     1      -1.266  -2.813  24.065  0.00  0.00    -0.274 OA
ATOM      9  N   UNL     1      -3.482  -3.134  24.576  0.00  0.00    -0.328 N 
ATOM     24  C   UNL     1      -2.303  -2.419  24.594  0.00  0.00    +0.231 C 
ATOM     40  H   UNL     1      -3.533  -4.042  24.126  0.00  0.00    +0.145 HD
ATOM     41  H   UNL     1      -4.337  -2.788  25.000  0.00  0.00    +0.145 HD
ENDBRANCH  18  24
BRANCH  18  14
ATOM     14  C   UNL     1      -3.741  -0.946  26.089  0.00  0.00    +0.035 C 
BRANCH  14  11
ATOM     11  C   UNL     1      -4.529   0.327  25.787  0.00  0.00    -0.009 C 
ATOM     12  C   UNL     1      -5.494   0.103  24.616  0.00  0.00    +0.003 C 
ATOM     13  C   UNL     1      -5.285   0.804  27.034  0.00  0.00    +0.003 C 
ATOM     15  C   UNL     1      -6.332   1.347  24.329  0.00  0.00    +0.000 C 
ATOM     16  C   UNL     1      -6.124   2.047  26.744  0.00  0.00    +0.000 C 
ATOM     17  C   UNL     1      -7.075   1.823  25.573  0.00  0.00    +0.000 C 
ENDBRANCH  14  11
ENDBRANCH  18  14
ENDBRANCH   6  18
ENDBRANCH  19  21
TORSDOF 8
ENDMDL
