MODEL 1
REMARK VINA RESULT:       1.6      0.000      0.000
REMARK  Name = 40777671
REMARK  8 active torsions:
REMARK  status: ('A' for Active; 'I' for Inactive)
REMARK    1  A    between atoms: S_1  and  N_8
REMARK    2  A    between atoms: S_1  and  C_22
REMARK    3  A    between atoms: N_8  and  C_13
REMARK    4  A    between atoms: N_9  and  C_21
REMARK    5  A    between atoms: C_11  and  C_14
REMARK    6  A    between atoms: C_17  and  C_19
REMARK    7  A    between atoms: C_18  and  C_20
REMARK    8  A    between atoms: C_28  and  C_31
REMARK                            x       y       z     vdW  Elec       q    Type
REMARK                         _______ _______ _______ _____ _____    ______ ____
ROOT
ATOM      9  N   UNL     1       0.425  -0.354  23.979  0.00  0.00    -0.236 N 
ATOM     10  N   UNL     1      -0.240  -1.522  23.951  0.00  0.00    -0.171 NA
ATOM     14  C   UNL     1      -1.638   0.227  24.399  0.00  0.00    +0.003 A 
ATOM     17  C   UNL     1      -0.367   0.724  24.243  0.00  0.00    +0.046 A 
ATOM     18  C   UNL     1      -1.500  -1.161  24.209  0.00  0.00    +0.064 A 
ATOM     19  C   UNL     1       0.145   2.107  24.325  0.00  0.00    +0.066 C 
ATOM     20  C   UNL     1      -2.551  -2.191  24.264  0.00  0.00    +0.068 C 
ENDROOT
BRANCH   9  21
ATOM     21  C   UNL     1       1.800  -0.334  23.746  0.00  0.00    +0.066 A 
ATOM     23  C   UNL     1       2.583  -1.432  24.101  0.00  0.00    +0.028 A 
ATOM     24  C   UNL     1       2.393   0.785  23.162  0.00  0.00    +0.028 A 
ATOM     26  C   UNL     1       3.959  -1.410  23.871  0.00  0.00    +0.014 A 
ATOM     27  C   UNL     1       3.768   0.807  22.933  0.00  0.00    +0.014 A 
ATOM     28  C   UNL     1       4.552  -0.291  23.288  0.00  0.00    +0.055 A 
BRANCH  28  31
ATOM      3  F   UNL     1       6.662  -1.344  23.587  0.00  0.00    -0.166 F 
ATOM      4  F   UNL     1       6.358  -0.273  21.719  0.00  0.00    -0.166 F 
ATOM      5  F   UNL     1       6.647   0.830  23.564  0.00  0.00    -0.166 F 
ATOM     31  C   UNL     1       6.023  -0.268  23.043  0.00  0.00    +0.417 C 
ENDBRANCH  28  31
ENDBRANCH   9  21
BRANCH  14  11
ATOM     11  C   UNL     1      -2.900   0.998  24.709  0.00  0.00    +0.047 C 
ATOM     12  C   UNL     1      -3.912   1.007  23.544  0.00  0.00    +0.037 C 
ATOM     13  C   UNL     1      -5.300   0.967  24.193  0.00  0.00    +0.100 C 
ATOM     15  C   UNL     1      -3.713   0.441  25.841  0.00  0.00    -0.021 C 
ATOM     16  C   UNL     1      -5.020   0.431  25.557  0.00  0.00    -0.010 C 
BRANCH  13   8
ATOM      8  N   UNL     1      -5.859   2.330  24.314  0.00  0.00    -0.183 NA
ATOM     32  H   UNL     1      -6.721   2.497  23.777  0.00  0.00    +0.149 HD
BRANCH   8   1
ATOM      1  S   UNL     1      -5.646   3.213  25.751  0.00  0.00    +0.065 S 
ATOM      6  O   UNL     1      -5.691   2.308  26.884  0.00  0.00    -0.153 OA
ATOM      7  O   UNL     1      -6.506   4.381  25.717  0.00  0.00    -0.153 OA
BRANCH   1  22
ATOM      2  S   UNL     1      -3.589   4.386  24.023  0.00  0.00    -0.077 S 
ATOM     22  C   UNL     1      -3.984   3.791  25.580  0.00  0.00    +0.142 A 
ATOM     25  C   UNL     1      -2.919   3.869  26.450  0.00  0.00    +0.036 A 
ATOM     29  C   UNL     1      -1.762   4.422  25.829  0.00  0.00    +0.010 A 
ATOM     30  C   UNL     1      -1.988   4.747  24.510  0.00  0.00    +0.047 A 
ENDBRANCH   1  22
ENDBRANCH   8   1
ENDBRANCH  13   8
ENDBRANCH  14  11
TORSDOF 6
ENDMDL
MODEL 2
REMARK VINA RESULT:       4.0      1.636      3.339
REMARK  Name = 40777671
REMARK  8 active torsions:
REMARK  status: ('A' for Active; 'I' for Inactive)
REMARK    1  A    between atoms: S_1  and  N_8
REMARK    2  A    between atoms: S_1  and  C_22
REMARK    3  A    between atoms: N_8  and  C_13
REMARK    4  A    between atoms: N_9  and  C_21
REMARK    5  A    between atoms: C_11  and  C_14
REMARK    6  A    between atoms: C_17  and  C_19
REMARK    7  A    between atoms: C_18  and  C_20
REMARK    8  A    between atoms: C_28  and  C_31
REMARK                            x       y       z     vdW  Elec       q    Type
REMARK                         _______ _______ _______ _____ _____    ______ ____
ROOT
ATOM      9  N   UNL     1       1.231   1.516  23.714  0.00  0.00    -0.236 N 
ATOM     10  N   UNL     1       1.182   2.808  24.084  0.00  0.00    -0.171 NA
ATOM     14  C   UNL     1      -0.909   1.954  23.752  0.00  0.00    +0.003 A 
ATOM     17  C   UNL     1       0.004   0.959  23.503  0.00  0.00    +0.046 A 
ATOM     18  C   UNL     1      -0.127   3.070  24.105  0.00  0.00    +0.064 A 
ATOM     19  C   UNL     1      -0.187  -0.447  23.089  0.00  0.00    +0.066 C 
ATOM     20  C   UNL     1      -0.590   4.419  24.473  0.00  0.00    +0.068 C 
ENDROOT
BRANCH   9  21
ATOM     21  C   UNL     1       2.465   0.879  23.583  0.00  0.00    +0.066 A 
ATOM     23  C   UNL     1       2.581  -0.481  23.866  0.00  0.00    +0.028 A 
ATOM     24  C   UNL     1       3.584   1.605  23.173  0.00  0.00    +0.028 A 
ATOM     26  C   UNL     1       3.816  -1.117  23.738  0.00  0.00    +0.014 A 
ATOM     27  C   UNL     1       4.818   0.969  23.046  0.00  0.00    +0.014 A 
ATOM     28  C   UNL     1       4.935  -0.392  23.328  0.00  0.00    +0.055 A 
BRANCH  28  31
ATOM      3  F   UNL     1       6.154  -2.431  23.253  0.00  0.00    -0.166 F 
ATOM      4  F   UNL     1       6.891  -0.804  22.013  0.00  0.00    -0.166 F 
ATOM      5  F   UNL     1       7.150  -0.727  24.165  0.00  0.00    -0.166 F 
ATOM     31  C   UNL     1       6.255  -1.072  23.192  0.00  0.00    +0.417 C 
ENDBRANCH  28  31
ENDBRANCH   9  21
BRANCH  14  11
ATOM     11  C   UNL     1      -2.415   1.868  23.663  0.00  0.00    +0.047 C 
ATOM     12  C   UNL     1      -3.140   2.880  24.576  0.00  0.00    +0.037 C 
ATOM     13  C   UNL     1      -4.395   3.313  23.811  0.00  0.00    +0.100 C 
ATOM     15  C   UNL     1      -2.982   2.190  22.310  0.00  0.00    -0.021 C 
ATOM     16  C   UNL     1      -4.063   2.972  22.397  0.00  0.00    -0.010 C 
BRANCH  13   8
ATOM      8  N   UNL     1      -5.566   2.518  24.238  0.00  0.00    -0.183 NA
ATOM     32  H   UNL     1      -6.153   2.162  23.472  0.00  0.00    +0.149 HD
BRANCH   8   1
ATOM      1  S   UNL     1      -5.497   1.600  25.667  0.00  0.00    +0.065 S 
ATOM      6  O   UNL     1      -6.843   1.270  26.094  0.00  0.00    -0.153 OA
ATOM      7  O   UNL     1      -4.574   2.234  26.589  0.00  0.00    -0.153 OA
BRANCH   1  22
ATOM      2  S   UNL     1      -3.569  -0.546  26.185  0.00  0.00    -0.077 S 
ATOM     22  C   UNL     1      -4.723   0.113  25.105  0.00  0.00    +0.142 A 
ATOM     25  C   UNL     1      -4.855  -0.646  23.963  0.00  0.00    +0.036 A 
ATOM     29  C   UNL     1      -3.995  -1.782  23.973  0.00  0.00    +0.010 A 
ATOM     30  C   UNL     1      -3.240  -1.849  25.123  0.00  0.00    +0.047 A 
ENDBRANCH   1  22
ENDBRANCH   8   1
ENDBRANCH  13   8
ENDBRANCH  14  11
TORSDOF 6
ENDMDL
MODEL 3
REMARK VINA RESULT:       4.8      1.306      1.830
REMARK  Name = 40777671
REMARK  8 active torsions:
REMARK  status: ('A' for Active; 'I' for Inactive)
REMARK    1  A    between atoms: S_1  and  N_8
REMARK    2  A    between atoms: S_1  and  C_22
REMARK    3  A    between atoms: N_8  and  C_13
REMARK    4  A    between atoms: N_9  and  C_21
REMARK    5  A    between atoms: C_11  and  C_14
REMARK    6  A    between atoms: C_17  and  C_19
REMARK    7  A    between atoms: C_18  and  C_20
REMARK    8  A    between atoms: C_28  and  C_31
REMARK                            x       y       z     vdW  Elec       q    Type
REMARK                         _______ _______ _______ _____ _____    ______ ____
ROOT
ATOM      9  N   UNL     1       0.796   0.371  23.448  0.00  0.00    -0.236 N 
ATOM     10  N   UNL     1       0.209   1.150  22.522  0.00  0.00    -0.171 NA
ATOM     14  C   UNL     1      -1.306   0.373  24.044  0.00  0.00    +0.003 A 
ATOM     17  C   UNL     1      -0.069  -0.119  24.382  0.00  0.00    +0.046 A 
ATOM     18  C   UNL     1      -1.075   1.147  22.891  0.00  0.00    +0.064 A 
ATOM     19  C   UNL     1       0.351  -0.998  25.493  0.00  0.00    +0.066 C 
ATOM     20  C   UNL     1      -2.057   1.908  22.101  0.00  0.00    +0.068 C 
ENDROOT
BRANCH   9  21
ATOM     21  C   UNL     1       2.169   0.138  23.387  0.00  0.00    +0.066 A 
ATOM     23  C   UNL     1       2.679  -1.117  23.719  0.00  0.00    +0.028 A 
ATOM     24  C   UNL     1       3.034   1.161  22.996  0.00  0.00    +0.028 A 
ATOM     26  C   UNL     1       4.054  -1.348  23.661  0.00  0.00    +0.014 A 
ATOM     27  C   UNL     1       4.407   0.929  22.938  0.00  0.00    +0.014 A 
ATOM     28  C   UNL     1       4.918  -0.325  23.271  0.00  0.00    +0.055 A 
BRANCH  28  31
ATOM      3  F   UNL     1       7.118   0.470  23.698  0.00  0.00    -0.166 F 
ATOM      4  F   UNL     1       6.788  -1.668  23.924  0.00  0.00    -0.166 F 
ATOM      5  F   UNL     1       6.853  -0.785  21.943  0.00  0.00    -0.166 F 
ATOM     31  C   UNL     1       6.387  -0.574  23.210  0.00  0.00    +0.417 C 
ENDBRANCH  28  31
ENDBRANCH   9  21
BRANCH  14  11
ATOM     11  C   UNL     1      -2.620   0.133  24.751  0.00  0.00    +0.047 C 
ATOM     12  C   UNL     1      -3.795   0.928  24.143  0.00  0.00    +0.037 C 
ATOM     13  C   UNL     1      -5.025   0.022  24.268  0.00  0.00    +0.100 C 
ATOM     15  C   UNL     1      -3.117  -1.282  24.685  0.00  0.00    -0.021 C 
ATOM     16  C   UNL     1      -4.428  -1.337  24.428  0.00  0.00    -0.010 C 
BRANCH  13   8
ATOM      8  N   UNL     1      -5.797   0.357  25.484  0.00  0.00    -0.183 NA
ATOM     32  H   UNL     1      -5.545  -0.184  26.322  0.00  0.00    +0.149 HD
BRANCH   8   1
ATOM      1  S   UNL     1      -6.380   1.936  25.714  0.00  0.00    +0.065 S 
ATOM      6  O   UNL     1      -6.939   2.055  27.047  0.00  0.00    -0.153 OA
ATOM      7  O   UNL     1      -7.167   2.320  24.557  0.00  0.00    -0.153 OA
BRANCH   1  22
ATOM      2  S   UNL     1      -4.592   3.670  24.168  0.00  0.00    -0.077 S 
ATOM     22  C   UNL     1      -4.889   2.885  25.661  0.00  0.00    +0.142 A 
ATOM     25  C   UNL     1      -3.897   3.134  26.583  0.00  0.00    +0.036 A 
ATOM     29  C   UNL     1      -2.877   3.979  26.057  0.00  0.00    +0.010 A 
ATOM     30  C   UNL     1      -3.130   4.345  24.753  0.00  0.00    +0.047 A 
ENDBRANCH   1  22
ENDBRANCH   8   1
ENDBRANCH  13   8
ENDBRANCH  14  11
TORSDOF 6
ENDMDL
MODEL 4
REMARK VINA RESULT:       5.6      1.329      2.565
REMARK  Name = 40777671
REMARK  8 active torsions:
REMARK  status: ('A' for Active; 'I' for Inactive)
REMARK    1  A    between atoms: S_1  and  N_8
REMARK    2  A    between atoms: S_1  and  C_22
REMARK    3  A    between atoms: N_8  and  C_13
REMARK    4  A    between atoms: N_9  and  C_21
REMARK    5  A    between atoms: C_11  and  C_14
REMARK    6  A    between atoms: C_17  and  C_19
REMARK    7  A    between atoms: C_18  and  C_20
REMARK    8  A    between atoms: C_28  and  C_31
REMARK                            x       y       z     vdW  Elec       q    Type
REMARK                         _______ _______ _______ _____ _____    ______ ____
ROOT
ATOM      9  N   UNL     1       0.950  -0.041  23.586  0.00  0.00    -0.236 N 
ATOM     10  N   UNL     1       0.233  -1.172  23.705  0.00  0.00    -0.171 NA
ATOM     14  C   UNL     1      -1.115   0.670  23.623  0.00  0.00    +0.003 A 
ATOM     17  C   UNL     1       0.190   1.090  23.534  0.00  0.00    +0.046 A 
ATOM     18  C   UNL     1      -1.028  -0.731  23.727  0.00  0.00    +0.064 A 
ATOM     19  C   UNL     1       0.762   2.446  23.406  0.00  0.00    +0.066 C 
ATOM     20  C   UNL     1      -2.132  -1.699  23.851  0.00  0.00    +0.068 C 
ENDROOT
BRANCH   9  21
ATOM     21  C   UNL     1       2.342  -0.108  23.529  0.00  0.00    +0.066 A 
ATOM     23  C   UNL     1       3.002  -1.273  23.918  0.00  0.00    +0.028 A 
ATOM     24  C   UNL     1       3.075   0.994  23.085  0.00  0.00    +0.028 A 
ATOM     26  C   UNL     1       4.394  -1.337  23.863  0.00  0.00    +0.014 A 
ATOM     27  C   UNL     1       4.467   0.929  23.031  0.00  0.00    +0.014 A 
ATOM     28  C   UNL     1       5.127  -0.236  23.420  0.00  0.00    +0.055 A 
BRANCH  28  31
ATOM      3  F   UNL     1       7.072  -0.840  22.193  0.00  0.00    -0.166 F 
ATOM      4  F   UNL     1       7.226   0.912  23.472  0.00  0.00    -0.166 F 
ATOM      5  F   UNL     1       7.166  -1.070  24.353  0.00  0.00    -0.166 F 
ATOM     31  C   UNL     1       6.616  -0.306  23.363  0.00  0.00    +0.417 C 
ENDBRANCH  28  31
ENDBRANCH   9  21
BRANCH  14  11
ATOM     11  C   UNL     1      -2.362   1.523  23.615  0.00  0.00    +0.047 C 
ATOM     12  C   UNL     1      -2.181   2.877  24.335  0.00  0.00    +0.037 C 
ATOM     13  C   UNL     1      -3.026   3.886  23.550  0.00  0.00    +0.100 C 
ATOM     15  C   UNL     1      -2.826   1.941  22.250  0.00  0.00    -0.021 C 
ATOM     16  C   UNL     1      -3.192   3.227  22.221  0.00  0.00    -0.010 C 
BRANCH  13   8
ATOM      8  N   UNL     1      -4.355   4.053  24.176  0.00  0.00    -0.183 NA
ATOM     32  H   UNL     1      -5.149   4.050  23.521  0.00  0.00    +0.149 HD
BRANCH   8   1
ATOM      1  S   UNL     1      -4.633   3.471  25.749  0.00  0.00    +0.065 S 
ATOM      6  O   UNL     1      -5.946   3.897  26.195  0.00  0.00    -0.153 OA
ATOM      7  O   UNL     1      -3.463   3.742  26.564  0.00  0.00    -0.153 OA
BRANCH   1  22
ATOM      2  S   UNL     1      -5.907   1.198  24.406  0.00  0.00    -0.077 S 
ATOM     22  C   UNL     1      -4.686   1.724  25.487  0.00  0.00    +0.142 A 
ATOM     25  C   UNL     1      -3.940   0.674  25.974  0.00  0.00    +0.036 A 
ATOM     29  C   UNL     1      -4.377  -0.579  25.456  0.00  0.00    +0.010 A 
ATOM     30  C   UNL     1      -5.439  -0.439  24.591  0.00  0.00    +0.047 A 
ENDBRANCH   1  22
ENDBRANCH   8   1
ENDBRANCH  13   8
ENDBRANCH  14  11
TORSDOF 6
ENDMDL
