MODEL 1
REMARK VINA RESULT:      -4.9      0.000      0.000
REMARK  Name = 45784321
REMARK  3 active torsions:
REMARK  status: ('A' for Active; 'I' for Inactive)
REMARK    1  A    between atoms: N_1  and  C_10
REMARK    2  A    between atoms: C_5  and  C_9
REMARK    3  A    between atoms: C_15  and  C_17
REMARK                            x       y       z     vdW  Elec       q    Type
REMARK                         _______ _______ _______ _____ _____    ______ ____
ROOT
ATOM      2  N   UNL     1      -6.742  -9.771  14.202  0.00  0.00    -0.342 N 
ATOM      3  N   UNL     1      -4.652 -10.332  13.699  0.00  0.00    -0.232 NA
ATOM      9  C   UNL     1      -5.811  -9.943  13.217  0.00  0.00    +0.113 A 
ATOM     11  C   UNL     1      -6.144 -10.066  15.400  0.00  0.00    +0.067 A 
ATOM     12  C   UNL     1      -4.841 -10.414  15.059  0.00  0.00    +0.089 A 
ATOM     13  C   UNL     1      -6.618 -10.060  16.713  0.00  0.00    +0.046 A 
ATOM     14  C   UNL     1      -3.941 -10.780  16.076  0.00  0.00    +0.031 A 
ATOM     15  C   UNL     1      -5.711 -10.428  17.711  0.00  0.00    +0.054 A 
ATOM     16  C   UNL     1      -4.395 -10.781  17.400  0.00  0.00    +0.021 A 
ATOM     18  H   UNL     1      -7.702  -9.477  14.075  0.00  0.00    +0.167 HD
ENDROOT
BRANCH   9   5
ATOM      1  N   UNL     1      -5.369 -10.046   9.580  0.00  0.00    -0.305 NA
ATOM      5  C   UNL     1      -6.150  -9.697  11.764  0.00  0.00    +0.070 C 
ATOM      6  C   UNL     1      -5.615  -8.373  11.191  0.00  0.00    +0.028 C 
ATOM      7  C   UNL     1      -5.593 -10.778  10.829  0.00  0.00    +0.095 C 
ATOM      8  C   UNL     1      -4.769  -8.776   9.991  0.00  0.00    +0.085 C 
ATOM     10  C   UNL     1      -4.528 -10.781   8.648  0.00  0.00    +0.104 C 
ENDBRANCH   9   5
BRANCH  15  17
ATOM      4  N   UNL     1      -6.485 -10.453  20.183  0.00  0.00    -0.191 NA
ATOM     17  C   UNL     1      -6.138 -10.441  19.076  0.00  0.00    +0.099 C 
ENDBRANCH  15  17
TORSDOF 2
ENDMDL
MODEL 2
REMARK VINA RESULT:      -4.5      2.343      2.679
REMARK  Name = 45784321
REMARK  3 active torsions:
REMARK  status: ('A' for Active; 'I' for Inactive)
REMARK    1  A    between atoms: N_1  and  C_10
REMARK    2  A    between atoms: C_5  and  C_9
REMARK    3  A    between atoms: C_15  and  C_17
REMARK                            x       y       z     vdW  Elec       q    Type
REMARK                         _______ _______ _______ _____ _____    ______ ____
ROOT
ATOM      2  N   UNL     1      -5.739 -10.354  13.561  0.00  0.00    -0.342 N 
ATOM      3  N   UNL     1      -3.962 -10.631  14.868  0.00  0.00    -0.232 NA
ATOM      9  C   UNL     1      -4.395 -10.593  13.627  0.00  0.00    +0.113 A 
ATOM     11  C   UNL     1      -6.205 -10.229  14.845  0.00  0.00    +0.067 A 
ATOM     12  C   UNL     1      -5.078 -10.406  15.641  0.00  0.00    +0.089 A 
ATOM     13  C   UNL     1      -7.479  -9.984  15.361  0.00  0.00    +0.046 A 
ATOM     14  C   UNL     1      -5.209 -10.338  17.039  0.00  0.00    +0.031 A 
ATOM     15  C   UNL     1      -7.591  -9.920  16.754  0.00  0.00    +0.054 A 
ATOM     16  C   UNL     1      -6.477 -10.093  17.579  0.00  0.00    +0.021 A 
ATOM     18  H   UNL     1      -6.295 -10.282  12.719  0.00  0.00    +0.167 HD
ENDROOT
BRANCH   9   5
ATOM      1  N   UNL     1      -1.833  -9.824  11.122  0.00  0.00    -0.305 NA
ATOM      5  C   UNL     1      -3.568 -10.781  12.375  0.00  0.00    +0.070 C 
ATOM      6  C   UNL     1      -4.148 -10.123  11.112  0.00  0.00    +0.028 C 
ATOM      7  C   UNL     1      -2.153 -10.202  12.500  0.00  0.00    +0.095 C 
ATOM      8  C   UNL     1      -3.051  -9.193  10.612  0.00  0.00    +0.085 C 
ATOM     10  C   UNL     1      -0.677  -8.942  11.043  0.00  0.00    +0.104 C 
ENDBRANCH   9   5
BRANCH  15  17
ATOM      4  N   UNL     1      -9.909  -9.471  17.820  0.00  0.00    -0.191 NA
ATOM     17  C   UNL     1      -8.871  -9.672  17.342  0.00  0.00    +0.099 C 
ENDBRANCH  15  17
TORSDOF 2
ENDMDL
MODEL 3
REMARK VINA RESULT:      -4.0     15.067     16.469
REMARK  Name = 45784321
REMARK  3 active torsions:
REMARK  status: ('A' for Active; 'I' for Inactive)
REMARK    1  A    between atoms: N_1  and  C_10
REMARK    2  A    between atoms: C_5  and  C_9
REMARK    3  A    between atoms: C_15  and  C_17
REMARK                            x       y       z     vdW  Elec       q    Type
REMARK                         _______ _______ _______ _____ _____    ______ ____
ROOT
ATOM      2  N   UNL     1       0.874   1.464  23.537  0.00  0.00    -0.342 N 
ATOM      3  N   UNL     1       0.341  -0.693  23.596  0.00  0.00    -0.232 NA
ATOM      9  C   UNL     1       1.276   0.180  23.292  0.00  0.00    +0.113 A 
ATOM     11  C   UNL     1      -0.404   1.416  24.033  0.00  0.00    +0.067 A 
ATOM     12  C   UNL     1      -0.713   0.059  24.059  0.00  0.00    +0.089 A 
ATOM     13  C   UNL     1      -1.288   2.413  24.447  0.00  0.00    +0.046 A 
ATOM     14  C   UNL     1      -1.977  -0.346  24.525  0.00  0.00    +0.031 A 
ATOM     15  C   UNL     1      -2.541   1.992  24.906  0.00  0.00    +0.054 A 
ATOM     16  C   UNL     1      -2.880   0.637  24.945  0.00  0.00    +0.021 A 
ATOM     18  H   UNL     1       1.418   2.302  23.382  0.00  0.00    +0.167 HD
ENDROOT
BRANCH   9   5
ATOM      1  N   UNL     1       4.852  -0.614  23.367  0.00  0.00    -0.305 NA
ATOM      5  C   UNL     1       2.648  -0.121  22.735  0.00  0.00    +0.070 C 
ATOM      6  C   UNL     1       3.537   1.113  22.505  0.00  0.00    +0.028 C 
ATOM      7  C   UNL     1       3.478  -1.032  23.649  0.00  0.00    +0.095 C 
ATOM      8  C   UNL     1       4.798   0.848  23.317  0.00  0.00    +0.085 C 
ATOM     10  C   UNL     1       5.796  -1.100  24.361  0.00  0.00    +0.104 C 
ENDBRANCH   9   5
BRANCH  15  17
ATOM      4  N   UNL     1      -4.260   3.760  25.697  0.00  0.00    -0.191 NA
ATOM     17  C   UNL     1      -3.490   2.968  25.343  0.00  0.00    +0.099 C 
ENDBRANCH  15  17
TORSDOF 2
ENDMDL
MODEL 4
REMARK VINA RESULT:      -3.7     21.775     25.010
REMARK  Name = 45784321
REMARK  3 active torsions:
REMARK  status: ('A' for Active; 'I' for Inactive)
REMARK    1  A    between atoms: N_1  and  C_10
REMARK    2  A    between atoms: C_5  and  C_9
REMARK    3  A    between atoms: C_15  and  C_17
REMARK                            x       y       z     vdW  Elec       q    Type
REMARK                         _______ _______ _______ _____ _____    ______ ____
ROOT
ATOM      2  N   UNL     1      10.934  -6.673  32.873  0.00  0.00    -0.342 N 
ATOM      3  N   UNL     1      11.384  -8.184  31.306  0.00  0.00    -0.232 NA
ATOM      9  C   UNL     1      10.562  -7.844  32.275  0.00  0.00    +0.113 A 
ATOM     11  C   UNL     1      12.070  -6.226  32.249  0.00  0.00    +0.067 A 
ATOM     12  C   UNL     1      12.330  -7.186  31.275  0.00  0.00    +0.089 A 
ATOM     13  C   UNL     1      12.869  -5.098  32.447  0.00  0.00    +0.046 A 
ATOM     14  C   UNL     1      13.449  -7.027  30.439  0.00  0.00    +0.031 A 
ATOM     15  C   UNL     1      13.978  -4.957  31.607  0.00  0.00    +0.054 A 
ATOM     16  C   UNL     1      14.264  -5.903  30.620  0.00  0.00    +0.021 A 
ATOM     18  H   UNL     1      10.460  -6.214  33.640  0.00  0.00    +0.167 HD
ENDROOT
BRANCH   9   5
ATOM      1  N   UNL     1       7.506  -9.838  31.941  0.00  0.00    -0.305 NA
ATOM      5  C   UNL     1       9.338  -8.605  32.730  0.00  0.00    +0.070 C 
ATOM      6  C   UNL     1       8.059  -7.759  32.849  0.00  0.00    +0.028 C 
ATOM      7  C   UNL     1       8.959  -9.751  31.783  0.00  0.00    +0.095 C 
ATOM      8  C   UNL     1       7.044  -8.450  31.948  0.00  0.00    +0.085 C 
ATOM     10  C   UNL     1       6.880 -10.626  30.891  0.00  0.00    +0.104 C 
ENDBRANCH   9   5
BRANCH  15  17
ATOM      4  N   UNL     1      15.529  -2.902  31.889  0.00  0.00    -0.191 NA
ATOM     17  C   UNL     1      14.834  -3.822  31.762  0.00  0.00    +0.099 C 
ENDBRANCH  15  17
TORSDOF 2
ENDMDL
MODEL 5
REMARK VINA RESULT:      -3.5     14.727     16.786
REMARK  Name = 45784321
REMARK  3 active torsions:
REMARK  status: ('A' for Active; 'I' for Inactive)
REMARK    1  A    between atoms: N_1  and  C_10
REMARK    2  A    between atoms: C_5  and  C_9
REMARK    3  A    between atoms: C_15  and  C_17
REMARK                            x       y       z     vdW  Elec       q    Type
REMARK                         _______ _______ _______ _____ _____    ______ ____
ROOT
ATOM      2  N   UNL     1      -1.516   0.885  24.234  0.00  0.00    -0.342 N 
ATOM      3  N   UNL     1       0.057   2.400  24.648  0.00  0.00    -0.232 NA
ATOM      9  C   UNL     1      -0.181   1.177  24.228  0.00  0.00    +0.113 A 
ATOM     11  C   UNL     1      -2.185   1.993  24.688  0.00  0.00    +0.067 A 
ATOM     12  C   UNL     1      -1.181   2.923  24.939  0.00  0.00    +0.089 A 
ATOM     13  C   UNL     1      -3.541   2.251  24.893  0.00  0.00    +0.046 A 
ATOM     14  C   UNL     1      -1.533   4.195  25.425  0.00  0.00    +0.031 A 
ATOM     15  C   UNL     1      -3.873   3.521  25.378  0.00  0.00    +0.054 A 
ATOM     16  C   UNL     1      -2.888   4.477  25.639  0.00  0.00    +0.021 A 
ATOM     18  H   UNL     1      -1.939   0.009  23.955  0.00  0.00    +0.167 HD
ENDROOT
BRANCH   9   5
ATOM      1  N   UNL     1       2.822  -0.074  22.541  0.00  0.00    -0.305 NA
ATOM      5  C   UNL     1       0.844   0.161  23.778  0.00  0.00    +0.070 C 
ATOM      6  C   UNL     1       0.532  -0.519  22.434  0.00  0.00    +0.028 C 
ATOM      7  C   UNL     1       2.243   0.763  23.593  0.00  0.00    +0.095 C 
ATOM      8  C   UNL     1       1.749  -0.243  21.561  0.00  0.00    +0.085 C 
ATOM     10  C   UNL     1       4.018   0.515  21.958  0.00  0.00    +0.104 C 
ENDBRANCH   9   5
BRANCH  15  17
ATOM      4  N   UNL     1      -6.361   4.107  25.797  0.00  0.00    -0.191 NA
ATOM     17  C   UNL     1      -5.246   3.845  25.609  0.00  0.00    +0.099 C 
ENDBRANCH  15  17
TORSDOF 2
ENDMDL
MODEL 6
REMARK VINA RESULT:      -3.5     14.294     16.133
REMARK  Name = 45784321
REMARK  3 active torsions:
REMARK  status: ('A' for Active; 'I' for Inactive)
REMARK    1  A    between atoms: N_1  and  C_10
REMARK    2  A    between atoms: C_5  and  C_9
REMARK    3  A    between atoms: C_15  and  C_17
REMARK                            x       y       z     vdW  Elec       q    Type
REMARK                         _______ _______ _______ _____ _____    ______ ____
ROOT
ATOM      2  N   UNL     1      -1.219   1.560  24.392  0.00  0.00    -0.342 N 
ATOM      3  N   UNL     1      -2.161  -0.450  24.292  0.00  0.00    -0.232 NA
ATOM      9  C   UNL     1      -1.037   0.223  24.177  0.00  0.00    +0.113 A 
ATOM     11  C   UNL     1      -2.547   1.765  24.665  0.00  0.00    +0.067 A 
ATOM     12  C   UNL     1      -3.113   0.495  24.596  0.00  0.00    +0.089 A 
ATOM     13  C   UNL     1      -3.279   2.917  24.956  0.00  0.00    +0.046 A 
ATOM     14  C   UNL     1      -4.492   0.347  24.830  0.00  0.00    +0.031 A 
ATOM     15  C   UNL     1      -4.649   2.751  25.185  0.00  0.00    +0.054 A 
ATOM     16  C   UNL     1      -5.246   1.489  25.124  0.00  0.00    +0.021 A 
ATOM     18  H   UNL     1      -0.504   2.275  24.358  0.00  0.00    +0.167 HD
ENDROOT
BRANCH   9   5
ATOM      1  N   UNL     1       2.413   0.222  22.942  0.00  0.00    -0.305 NA
ATOM      5  C   UNL     1       0.325  -0.343  23.849  0.00  0.00    +0.070 C 
ATOM      6  C   UNL     1       0.453  -0.945  22.440  0.00  0.00    +0.028 C 
ATOM      7  C   UNL     1       1.443   0.705  23.927  0.00  0.00    +0.095 C 
ATOM      8  C   UNL     1       1.607  -0.191  21.792  0.00  0.00    +0.085 C 
ATOM     10  C   UNL     1       3.400   1.232  22.594  0.00  0.00    +0.104 C 
ENDBRANCH   9   5
BRANCH  15  17
ATOM      4  N   UNL     1      -6.102   4.823  25.735  0.00  0.00    -0.191 NA
ATOM     17  C   UNL     1      -5.451   3.895  25.488  0.00  0.00    +0.099 C 
ENDBRANCH  15  17
TORSDOF 2
ENDMDL
MODEL 7
REMARK VINA RESULT:      -3.5     25.020     26.162
REMARK  Name = 45784321
REMARK  3 active torsions:
REMARK  status: ('A' for Active; 'I' for Inactive)
REMARK    1  A    between atoms: N_1  and  C_10
REMARK    2  A    between atoms: C_5  and  C_9
REMARK    3  A    between atoms: C_15  and  C_17
REMARK                            x       y       z     vdW  Elec       q    Type
REMARK                         _______ _______ _______ _____ _____    ______ ____
ROOT
ATOM      2  N   UNL     1      16.876  -5.549  26.659  0.00  0.00    -0.342 N 
ATOM      3  N   UNL     1      17.404  -7.200  25.267  0.00  0.00    -0.232 NA
ATOM      9  C   UNL     1      17.164  -6.878  26.519  0.00  0.00    +0.113 A 
ATOM     11  C   UNL     1      16.933  -4.975  25.415  0.00  0.00    +0.067 A 
ATOM     12  C   UNL     1      17.265  -6.026  24.564  0.00  0.00    +0.089 A 
ATOM     13  C   UNL     1      16.730  -3.666  24.975  0.00  0.00    +0.046 A 
ATOM     14  C   UNL     1      17.405  -5.774  23.188  0.00  0.00    +0.031 A 
ATOM     15  C   UNL     1      16.875  -3.434  23.604  0.00  0.00    +0.054 A 
ATOM     16  C   UNL     1      17.206  -4.468  22.724  0.00  0.00    +0.021 A 
ATOM     18  H   UNL     1      16.659  -5.071  27.524  0.00  0.00    +0.167 HD
ENDROOT
BRANCH   9   5
ATOM      1  N   UNL     1      16.027  -9.580  28.718  0.00  0.00    -0.305 NA
ATOM      5  C   UNL     1      17.186  -7.807  27.711  0.00  0.00    +0.070 C 
ATOM      6  C   UNL     1      16.429  -7.291  28.947  0.00  0.00    +0.028 C 
ATOM      7  C   UNL     1      16.558  -9.176  27.415  0.00  0.00    +0.095 C 
ATOM      8  C   UNL     1      15.404  -8.372  29.262  0.00  0.00    +0.085 C 
ATOM     10  C   UNL     1      15.091 -10.689  28.616  0.00  0.00    +0.104 C 
ENDBRANCH   9   5
BRANCH  15  17
ATOM      4  N   UNL     1      16.520  -1.040  22.680  0.00  0.00    -0.191 NA
ATOM     17  C   UNL     1      16.679  -2.113  23.093  0.00  0.00    +0.099 C 
ENDBRANCH  15  17
TORSDOF 2
ENDMDL
MODEL 8
REMARK VINA RESULT:      -3.4      2.923      6.317
REMARK  Name = 45784321
REMARK  3 active torsions:
REMARK  status: ('A' for Active; 'I' for Inactive)
REMARK    1  A    between atoms: N_1  and  C_10
REMARK    2  A    between atoms: C_5  and  C_9
REMARK    3  A    between atoms: C_15  and  C_17
REMARK                            x       y       z     vdW  Elec       q    Type
REMARK                         _______ _______ _______ _____ _____    ______ ____
ROOT
ATOM      2  N   UNL     1      -6.972 -10.324  14.318  0.00  0.00    -0.342 N 
ATOM      3  N   UNL     1      -7.957  -9.380  12.563  0.00  0.00    -0.232 NA
ATOM      9  C   UNL     1      -8.131  -9.834  13.785  0.00  0.00    +0.113 A 
ATOM     11  C   UNL     1      -5.983 -10.174  13.380  0.00  0.00    +0.067 A 
ATOM     12  C   UNL     1      -6.623  -9.584  12.294  0.00  0.00    +0.089 A 
ATOM     13  C   UNL     1      -4.625 -10.496  13.387  0.00  0.00    +0.046 A 
ATOM     14  C   UNL     1      -5.879  -9.289  11.138  0.00  0.00    +0.031 A 
ATOM     15  C   UNL     1      -3.900 -10.196  12.229  0.00  0.00    +0.054 A 
ATOM     16  C   UNL     1      -4.515  -9.603  11.124  0.00  0.00    +0.021 A 
ATOM     18  H   UNL     1      -6.858 -10.725  15.240  0.00  0.00    +0.167 HD
ENDROOT
BRANCH   9   5
ATOM      1  N   UNL     1     -10.547  -8.796  16.337  0.00  0.00    -0.305 NA
ATOM      5  C   UNL     1      -9.424  -9.849  14.568  0.00  0.00    +0.070 C 
ATOM      6  C   UNL     1      -9.424 -10.772  15.798  0.00  0.00    +0.028 C 
ATOM      7  C   UNL     1      -9.806  -8.469  15.117  0.00  0.00    +0.095 C 
ATOM      8  C   UNL     1      -9.774  -9.865  16.971  0.00  0.00    +0.085 C 
ATOM     10  C   UNL     1     -10.719  -7.645  17.209  0.00  0.00    +0.104 C 
ENDBRANCH   9   5
BRANCH  15  17
ATOM      4  N   UNL     1      -1.372 -10.752  12.136  0.00  0.00    -0.191 NA
ATOM     17  C   UNL     1      -2.505 -10.503  12.177  0.00  0.00    +0.099 C 
ENDBRANCH  15  17
TORSDOF 2
ENDMDL
MODEL 9
REMARK VINA RESULT:      -3.3     24.768     25.298
REMARK  Name = 45784321
REMARK  3 active torsions:
REMARK  status: ('A' for Active; 'I' for Inactive)
REMARK    1  A    between atoms: N_1  and  C_10
REMARK    2  A    between atoms: C_5  and  C_9
REMARK    3  A    between atoms: C_15  and  C_17
REMARK                            x       y       z     vdW  Elec       q    Type
REMARK                         _______ _______ _______ _____ _____    ______ ____
ROOT
ATOM      2  N   UNL     1      16.344  -5.569  26.272  0.00  0.00    -0.342 N 
ATOM      3  N   UNL     1      17.152  -6.988  24.764  0.00  0.00    -0.232 NA
ATOM      9  C   UNL     1      16.980  -5.721  25.072  0.00  0.00    +0.113 A 
ATOM     11  C   UNL     1      16.089  -6.821  26.773  0.00  0.00    +0.067 A 
ATOM     12  C   UNL     1      16.602  -7.688  25.813  0.00  0.00    +0.089 A 
ATOM     13  C   UNL     1      15.471  -7.254  27.947  0.00  0.00    +0.046 A 
ATOM     14  C   UNL     1      16.503  -9.075  26.021  0.00  0.00    +0.031 A 
ATOM     15  C   UNL     1      15.381  -8.636  28.137  0.00  0.00    +0.054 A 
ATOM     16  C   UNL     1      15.888  -9.532  27.192  0.00  0.00    +0.021 A 
ATOM     18  H   UNL     1      16.103  -4.693  26.716  0.00  0.00    +0.167 HD
ENDROOT
BRANCH   9   5
ATOM      1  N   UNL     1      17.110  -2.210  24.034  0.00  0.00    -0.305 NA
ATOM      5  C   UNL     1      17.405  -4.526  24.251  0.00  0.00    +0.070 C 
ATOM      6  C   UNL     1      16.517  -4.232  23.029  0.00  0.00    +0.028 C 
ATOM      7  C   UNL     1      17.405  -3.218  25.053  0.00  0.00    +0.095 C 
ATOM      8  C   UNL     1      16.045  -2.798  23.220  0.00  0.00    +0.085 C 
ATOM     10  C   UNL     1      16.724  -0.932  24.613  0.00  0.00    +0.104 C 
ENDBRANCH   9   5
BRANCH  15  17
ATOM      4  N   UNL     1      14.254  -9.550  30.283  0.00  0.00    -0.191 NA
ATOM     17  C   UNL     1      14.758  -9.141  29.321  0.00  0.00    +0.099 C 
ENDBRANCH  15  17
TORSDOF 2
ENDMDL
MODEL 10
REMARK VINA RESULT:      -3.0     14.990     16.492
REMARK  Name = 45784321
REMARK  3 active torsions:
REMARK  status: ('A' for Active; 'I' for Inactive)
REMARK    1  A    between atoms: N_1  and  C_10
REMARK    2  A    between atoms: C_5  and  C_9
REMARK    3  A    between atoms: C_15  and  C_17
REMARK                            x       y       z     vdW  Elec       q    Type
REMARK                         _______ _______ _______ _____ _____    ______ ____
ROOT
ATOM      2  N   UNL     1      -2.397   1.708  23.608  0.00  0.00    -0.342 N 
ATOM      3  N   UNL     1      -2.996  -0.096  24.759  0.00  0.00    -0.232 NA
ATOM      9  C   UNL     1      -3.396   1.060  24.278  0.00  0.00    +0.113 A 
ATOM     11  C   UNL     1      -1.277   0.917  23.658  0.00  0.00    +0.067 A 
ATOM     12  C   UNL     1      -1.677  -0.202  24.381  0.00  0.00    +0.089 A 
ATOM     13  C   UNL     1       0.011   1.081  23.148  0.00  0.00    +0.046 A 
ATOM     14  C   UNL     1      -0.749  -1.230  24.620  0.00  0.00    +0.031 A 
ATOM     15  C   UNL     1       0.922   0.049  23.395  0.00  0.00    +0.054 A 
ATOM     16  C   UNL     1       0.550  -1.088  24.117  0.00  0.00    +0.021 A 
ATOM     18  H   UNL     1      -2.466   2.610  23.154  0.00  0.00    +0.167 HD
ENDROOT
BRANCH   9   5
ATOM      1  N   UNL     1      -5.928   3.507  25.294  0.00  0.00    -0.305 NA
ATOM      5  C   UNL     1      -4.775   1.666  24.411  0.00  0.00    +0.070 C 
ATOM      6  C   UNL     1      -5.553   1.232  25.665  0.00  0.00    +0.028 C 
ATOM      7  C   UNL     1      -4.751   3.198  24.480  0.00  0.00    +0.095 C 
ATOM      8  C   UNL     1      -5.899   2.529  26.383  0.00  0.00    +0.085 C 
ATOM     10  C   UNL     1      -5.924   4.878  25.780  0.00  0.00    +0.104 C 
ENDBRANCH   9   5
BRANCH  15  17
ATOM      4  N   UNL     1       3.342   0.250  22.493  0.00  0.00    -0.191 NA
ATOM     17  C   UNL     1       2.258   0.160  22.898  0.00  0.00    +0.099 C 
ENDBRANCH  15  17
TORSDOF 2
ENDMDL
