MODEL 1
REMARK VINA RESULT:      -2.2      0.000      0.000
REMARK  Name = 45361088
REMARK  7 active torsions:
REMARK  status: ('A' for Active; 'I' for Inactive)
REMARK    1  A    between atoms: N_4  and  C_17
REMARK    2  A    between atoms: N_5  and  C_16
REMARK    3  A    between atoms: C_12  and  C_15
REMARK    4  A    between atoms: C_15  and  C_18
REMARK    5  A    between atoms: C_16  and  C_19
REMARK    6  A    between atoms: C_18  and  C_20
REMARK    7  A    between atoms: C_27  and  C_30
REMARK                            x       y       z     vdW  Elec       q    Type
REMARK                         _______ _______ _______ _____ _____    ______ ____
ROOT
ATOM      1  O   UNL     1      12.762  -4.821  31.857  0.00  0.00    -0.274 OA
ATOM      4  N   UNL     1      15.947  -6.083  30.055  0.00  0.00    -0.296 NA
ATOM      5  N   UNL     1      12.975  -7.505  31.648  0.00  0.00    -0.286 NA
ATOM      6  N   UNL     1      14.989  -4.470  32.247  0.00  0.00    -0.312 N 
ATOM      8  C   UNL     1      15.202  -7.159  30.747  0.00  0.00    +0.084 C 
ATOM      9  C   UNL     1      14.227  -6.764  31.895  0.00  0.00    +0.161 C 
ATOM     10  C   UNL     1      14.290  -7.983  29.821  0.00  0.00    +0.036 C 
ATOM     11  C   UNL     1      13.306  -8.625  30.774  0.00  0.00    +0.087 C 
ATOM     12  C   UNL     1      16.897  -5.333  30.925  0.00  0.00    +0.074 C 
ATOM     13  C   UNL     1      13.897  -5.276  31.980  0.00  0.00    +0.232 C 
ATOM     14  C   UNL     1      16.350  -4.965  32.317  0.00  0.00    +0.123 C 
ATOM     17  C   UNL     1      16.647  -6.609  28.871  0.00  0.00    +0.105 C 
ATOM     31  H   UNL     1      14.825  -3.480  32.395  0.00  0.00    +0.149 HD
ENDROOT
BRANCH  12  15
ATOM     15  C   UNL     1      17.338  -4.023  30.238  0.00  0.00    +0.029 C 
BRANCH  15  18
ATOM     18  C   UNL     1      17.405  -4.169  28.730  0.00  0.00    +0.097 C 
BRANCH  18  20
ATOM      2  O   UNL     1      17.327  -1.799  28.692  0.00  0.00    -0.276 OA
ATOM      3  O   UNL     1      16.966  -2.856  23.875  0.00  0.00    -0.377 OA
ATOM      7  N   UNL     1      16.874  -2.886  26.690  0.00  0.00    -0.297 N 
ATOM     20  C   UNL     1      17.199  -2.841  28.045  0.00  0.00    +0.216 C 
ATOM     23  C   UNL     1      16.662  -1.643  25.948  0.00  0.00    +0.136 C 
ATOM     24  C   UNL     1      16.592  -4.102  25.922  0.00  0.00    +0.136 C 
ATOM     28  C   UNL     1      17.378  -1.699  24.605  0.00  0.00    +0.179 C 
ATOM     29  C   UNL     1      17.305  -4.055  24.577  0.00  0.00    +0.179 C 
ENDBRANCH  18  20
ENDBRANCH  15  18
ENDBRANCH  12  15
BRANCH   5  16
ATOM     16  C   UNL     1      12.311  -7.940  32.870  0.00  0.00    +0.120 C 
BRANCH  16  19
ATOM     19  C   UNL     1      10.973  -8.569  32.588  0.00  0.00    -0.033 A 
ATOM     21  C   UNL     1      10.857  -9.958  32.523  0.00  0.00    +0.005 A 
ATOM     22  C   UNL     1       9.852  -7.766  32.388  0.00  0.00    +0.005 A 
ATOM     25  C   UNL     1       9.618 -10.542  32.258  0.00  0.00    +0.003 A 
ATOM     26  C   UNL     1       8.613  -8.349  32.124  0.00  0.00    +0.003 A 
ATOM     27  C   UNL     1       8.496  -9.737  32.058  0.00  0.00    -0.050 A 
ATOM     30  C   UNL     1       7.171 -10.362  31.775  0.00  0.00    +0.044 C 
ENDBRANCH  16  19
ENDBRANCH   5  16
TORSDOF 5
ENDMDL
MODEL 2
REMARK VINA RESULT:       0.6     16.394     19.191
REMARK  Name = 45361088
REMARK  7 active torsions:
REMARK  status: ('A' for Active; 'I' for Inactive)
REMARK    1  A    between atoms: N_4  and  C_17
REMARK    2  A    between atoms: N_5  and  C_16
REMARK    3  A    between atoms: C_12  and  C_15
REMARK    4  A    between atoms: C_15  and  C_18
REMARK    5  A    between atoms: C_16  and  C_19
REMARK    6  A    between atoms: C_18  and  C_20
REMARK    7  A    between atoms: C_27  and  C_30
REMARK                            x       y       z     vdW  Elec       q    Type
REMARK                         _______ _______ _______ _____ _____    ______ ____
ROOT
ATOM      1  O   UNL     1      -0.676   1.932  23.915  0.00  0.00    -0.274 OA
ATOM      4  N   UNL     1      -2.908  -0.890  25.343  0.00  0.00    -0.296 NA
ATOM      5  N   UNL     1       0.408  -0.539  23.834  0.00  0.00    -0.286 NA
ATOM      6  N   UNL     1      -2.796   1.240  23.401  0.00  0.00    -0.312 N 
ATOM      8  C   UNL     1      -1.730  -1.395  24.601  0.00  0.00    +0.084 C 
ATOM      9  C   UNL     1      -1.041  -0.449  23.574  0.00  0.00    +0.161 C 
ATOM     10  C   UNL     1      -0.551  -1.802  25.503  0.00  0.00    +0.036 C 
ATOM     11  C   UNL     1       0.635  -1.782  24.563  0.00  0.00    +0.087 C 
ATOM     12  C   UNL     1      -4.086  -0.574  24.487  0.00  0.00    +0.074 C 
ATOM     13  C   UNL     1      -1.457   1.017  23.664  0.00  0.00    +0.232 C 
ATOM     14  C   UNL     1      -3.757   0.177  23.183  0.00  0.00    +0.123 C 
ATOM     17  C   UNL     1      -3.292  -1.825  26.414  0.00  0.00    +0.105 C 
ATOM     31  H   UNL     1      -3.120   2.201  23.368  0.00  0.00    +0.149 HD
ENDROOT
BRANCH  12  15
ATOM     15  C   UNL     1      -5.107   0.279  25.269  0.00  0.00    +0.029 C 
BRANCH  15  18
ATOM     18  C   UNL     1      -5.310   1.642  24.636  0.00  0.00    +0.097 C 
BRANCH  18  20
ATOM      2  O   UNL     1      -5.933   2.688  26.671  0.00  0.00    -0.276 OA
ATOM      3  O   UNL     1      -2.026   5.412  25.338  0.00  0.00    -0.377 OA
ATOM      7  N   UNL     1      -4.309   3.763  25.405  0.00  0.00    -0.297 N 
ATOM     20  C   UNL     1      -5.220   2.741  25.666  0.00  0.00    +0.216 C 
ATOM     23  C   UNL     1      -4.155   4.864  26.355  0.00  0.00    +0.136 C 
ATOM     24  C   UNL     1      -3.540   3.922  24.167  0.00  0.00    +0.136 C 
ATOM     28  C   UNL     1      -2.680   5.163  26.585  0.00  0.00    +0.179 C 
ATOM     29  C   UNL     1      -2.091   4.266  24.486  0.00  0.00    +0.179 C 
ENDBRANCH  18  20
ENDBRANCH  15  18
ENDBRANCH  12  15
BRANCH   5  16
ATOM     16  C   UNL     1       1.218  -0.456  22.625  0.00  0.00    +0.120 C 
BRANCH  16  19
ATOM     19  C   UNL     1       2.682  -0.303  22.941  0.00  0.00    -0.033 A 
ATOM     21  C   UNL     1       3.383  -1.357  23.525  0.00  0.00    +0.005 A 
ATOM     22  C   UNL     1       3.336   0.894  22.653  0.00  0.00    +0.005 A 
ATOM     25  C   UNL     1       4.738  -1.214  23.821  0.00  0.00    +0.003 A 
ATOM     26  C   UNL     1       4.692   1.037  22.948  0.00  0.00    +0.003 A 
ATOM     27  C   UNL     1       5.393  -0.016  23.532  0.00  0.00    -0.050 A 
ATOM     30  C   UNL     1       6.843   0.136  23.849  0.00  0.00    +0.044 C 
ENDBRANCH  16  19
ENDBRANCH   5  16
TORSDOF 5
ENDMDL
MODEL 3
REMARK VINA RESULT:       1.3     16.320     18.438
REMARK  Name = 45361088
REMARK  7 active torsions:
REMARK  status: ('A' for Active; 'I' for Inactive)
REMARK    1  A    between atoms: N_4  and  C_17
REMARK    2  A    between atoms: N_5  and  C_16
REMARK    3  A    between atoms: C_12  and  C_15
REMARK    4  A    between atoms: C_15  and  C_18
REMARK    5  A    between atoms: C_16  and  C_19
REMARK    6  A    between atoms: C_18  and  C_20
REMARK    7  A    between atoms: C_27  and  C_30
REMARK                            x       y       z     vdW  Elec       q    Type
REMARK                         _______ _______ _______ _____ _____    ______ ____
ROOT
ATOM      1  O   UNL     1      -2.693   1.779  22.629  0.00  0.00    -0.274 OA
ATOM      4  N   UNL     1      -1.667  -1.488  24.435  0.00  0.00    -0.296 NA
ATOM      5  N   UNL     1      -4.616   0.662  24.160  0.00  0.00    -0.286 NA
ATOM      6  N   UNL     1      -0.981   1.290  24.066  0.00  0.00    -0.312 N 
ATOM      8  C   UNL     1      -2.948  -0.928  24.922  0.00  0.00    +0.084 C 
ATOM      9  C   UNL     1      -3.237   0.582  24.677  0.00  0.00    +0.161 C 
ATOM     10  C   UNL     1      -4.194  -1.596  24.313  0.00  0.00    +0.036 C 
ATOM     11  C   UNL     1      -5.288  -0.576  24.541  0.00  0.00    +0.087 C 
ATOM     12  C   UNL     1      -0.456  -0.908  25.081  0.00  0.00    +0.074 C 
ATOM     13  C   UNL     1      -2.307   1.265  23.677  0.00  0.00    +0.232 C 
ATOM     14  C   UNL     1      -0.483   0.623  25.253  0.00  0.00    +0.123 C 
ATOM     17  C   UNL     1      -1.657  -2.955  24.558  0.00  0.00    +0.105 C 
ATOM     31  H   UNL     1      -0.323   1.798  23.484  0.00  0.00    +0.149 HD
ENDROOT
BRANCH  12  15
ATOM     15  C   UNL     1       0.809  -1.261  24.270  0.00  0.00    +0.029 C 
BRANCH  15  18
ATOM     18  C   UNL     1       0.903  -0.456  22.988  0.00  0.00    +0.097 C 
BRANCH  18  20
ATOM      2  O   UNL     1       1.726   1.763  23.124  0.00  0.00    -0.276 OA
ATOM      3  O   UNL     1       5.865  -0.849  23.832  0.00  0.00    -0.377 OA
ATOM      7  N   UNL     1       3.313   0.068  23.070  0.00  0.00    -0.297 N 
ATOM     20  C   UNL     1       2.011   0.565  23.066  0.00  0.00    +0.216 C 
ATOM     23  C   UNL     1       4.446   0.990  23.149  0.00  0.00    +0.136 C 
ATOM     24  C   UNL     1       3.690  -1.335  22.875  0.00  0.00    +0.136 C 
ATOM     28  C   UNL     1       5.470   0.486  24.156  0.00  0.00    +0.179 C 
ATOM     29  C   UNL     1       4.750  -1.743  23.890  0.00  0.00    +0.179 C 
ENDBRANCH  18  20
ENDBRANCH  15  18
ENDBRANCH  12  15
BRANCH   5  16
ATOM     16  C   UNL     1      -5.338   1.842  24.617  0.00  0.00    +0.120 C 
BRANCH  16  19
ATOM     19  C   UNL     1      -4.425   3.027  24.789  0.00  0.00    -0.033 A 
ATOM     21  C   UNL     1      -4.229   3.913  23.730  0.00  0.00    +0.005 A 
ATOM     22  C   UNL     1      -3.775   3.236  26.004  0.00  0.00    +0.005 A 
ATOM     25  C   UNL     1      -3.380   5.009  23.886  0.00  0.00    +0.003 A 
ATOM     26  C   UNL     1      -2.927   4.333  26.161  0.00  0.00    +0.003 A 
ATOM     27  C   UNL     1      -2.729   5.219  25.103  0.00  0.00    -0.050 A 
ATOM     30  C   UNL     1      -1.822   6.392  25.270  0.00  0.00    +0.044 C 
ENDBRANCH  16  19
ENDBRANCH   5  16
TORSDOF 5
ENDMDL
