MODEL 1
REMARK VINA RESULT:       1.9      0.000      0.000
REMARK  Name = 11884016
REMARK  14 active torsions:
REMARK  status: ('A' for Active; 'I' for Inactive)
REMARK    1  A    between atoms: S_1  and  N_12
REMARK    2  A    between atoms: S_1  and  C_20
REMARK    3  A    between atoms: O_4  and  C_17
REMARK    4  A    between atoms: O_4  and  C_21
REMARK    5  A    between atoms: O_8  and  C_22
REMARK    6  A    between atoms: O_8  and  C_30
REMARK    7  A    between atoms: O_9  and  C_24
REMARK    8  A    between atoms: O_9  and  C_33
REMARK    9  A    between atoms: O_10  and  C_35
REMARK   10  A    between atoms: O_10  and  C_36
REMARK   11  A    between atoms: N_12  and  C_16
REMARK   12  A    between atoms: N_13  and  C_26
REMARK   13  A    between atoms: C_31  and  C_35
REMARK   14  A    between atoms: C_36  and  C_37
REMARK                            x       y       z     vdW  Elec       q    Type
REMARK                         _______ _______ _______ _____ _____    ______ ____
ROOT
ATOM      2  O   UNL     1      -2.546  -0.490  24.395  0.00  0.00    -0.369 OA
ATOM      3  O   UNL     1      -4.974  -2.276  23.786  0.00  0.00    -0.368 OA
ATOM     14  C   UNL     1      -4.680  -1.398  24.893  0.00  0.00    +0.171 C 
ATOM     15  C   UNL     1      -3.193  -1.517  25.164  0.00  0.00    +0.191 C 
ATOM     16  C   UNL     1      -4.861   0.039  24.471  0.00  0.00    +0.133 C 
ATOM     17  C   UNL     1      -2.872  -2.895  24.641  0.00  0.00    +0.235 C 
ATOM     18  C   UNL     1      -3.538   0.364  23.804  0.00  0.00    +0.183 C 
ATOM     19  C   UNL     1      -3.784  -3.000  23.440  0.00  0.00    +0.207 C 
ENDROOT
BRANCH  16  12
ATOM     12  N   UNL     1      -5.044   0.898  25.665  0.00  0.00    -0.182 NA
ATOM     38  H   UNL     1      -5.219   0.434  26.565  0.00  0.00    +0.148 HD
BRANCH  12   1
ATOM      1  S   UNL     1      -5.358   2.555  25.472  0.00  0.00    +0.062 S 
ATOM      5  O   UNL     1      -5.975   3.074  26.677  0.00  0.00    -0.153 OA
ATOM      6  O   UNL     1      -5.988   2.763  24.182  0.00  0.00    -0.153 OA
BRANCH   1  20
ATOM     20  C   UNL     1      -3.725   3.226  25.363  0.00  0.00    +0.150 A 
ATOM     22  C   UNL     1      -3.343   4.005  24.271  0.00  0.00    +0.147 A 
ATOM     23  C   UNL     1      -2.815   2.964  26.387  0.00  0.00    +0.077 A 
ATOM     24  C   UNL     1      -1.523   3.483  26.319  0.00  0.00    +0.122 A 
ATOM     25  C   UNL     1      -2.051   4.524  24.204  0.00  0.00    +0.051 A 
ATOM     27  C   UNL     1      -1.140   4.264  25.228  0.00  0.00    +0.049 A 
BRANCH  22   8
ATOM      8  O   UNL     1      -4.216   4.272  23.260  0.00  0.00    -0.493 OA
ATOM     30  C   UNL     1      -3.993   3.605  22.019  0.00  0.00    +0.277 C 
ENDBRANCH  22   8
BRANCH  24   9
ATOM      9  O   UNL     1      -0.633   3.230  27.318  0.00  0.00    -0.495 OA
ATOM     33  C   UNL     1       0.514   2.452  26.983  0.00  0.00    +0.277 C 
ENDBRANCH  24   9
ENDBRANCH   1  20
ENDBRANCH  12   1
ENDBRANCH  16  12
BRANCH  17   4
ATOM      4  O   UNL     1      -1.517  -3.064  24.293  0.00  0.00    -0.442 OA
BRANCH   4  21
ATOM      7  O   UNL     1      -0.231  -1.920  25.799  0.00  0.00    -0.226 OA
ATOM     13  N   UNL     1      -0.360  -1.275  23.552  0.00  0.00    -0.251 N 
ATOM     21  C   UNL     1      -0.649  -2.054  24.656  0.00  0.00    +0.405 C 
ATOM     39  H   UNL     1      -0.805  -1.547  22.681  0.00  0.00    +0.158 HD
BRANCH  13  26
ATOM     26  C   UNL     1       0.484  -0.143  23.484  0.00  0.00    +0.037 A 
ATOM     28  C   UNL     1       1.804  -0.280  23.057  0.00  0.00    +0.038 A 
ATOM     29  C   UNL     1      -0.004   1.114  23.845  0.00  0.00    +0.023 A 
ATOM     31  C   UNL     1       2.636   0.836  22.990  0.00  0.00    +0.061 A 
ATOM     32  C   UNL     1       0.828   2.231  23.778  0.00  0.00    +0.003 A 
ATOM     34  C   UNL     1       2.147   2.093  23.351  0.00  0.00    +0.015 A 
BRANCH  31  35
ATOM     11  O   UNL     1       4.349   0.430  21.383  0.00  0.00    -0.245 OA
ATOM     35  C   UNL     1       4.013   0.694  22.544  0.00  0.00    +0.339 C 
BRANCH  35  10
ATOM     10  O   UNL     1       4.897   0.890  23.570  0.00  0.00    -0.461 OA
BRANCH  10  36
ATOM     36  C   UNL     1       5.807  -0.179  23.853  0.00  0.00    +0.229 C 
ATOM     37  C   UNL     1       5.021  -1.463  24.020  0.00  0.00    +0.048 C 
ENDBRANCH  10  36
ENDBRANCH  35  10
ENDBRANCH  31  35
ENDBRANCH  13  26
ENDBRANCH   4  21
ENDBRANCH  17   4
TORSDOF 11
ENDMDL
MODEL 2
REMARK VINA RESULT:       2.9      1.964      3.574
REMARK  Name = 11884016
REMARK  14 active torsions:
REMARK  status: ('A' for Active; 'I' for Inactive)
REMARK    1  A    between atoms: S_1  and  N_12
REMARK    2  A    between atoms: S_1  and  C_20
REMARK    3  A    between atoms: O_4  and  C_17
REMARK    4  A    between atoms: O_4  and  C_21
REMARK    5  A    between atoms: O_8  and  C_22
REMARK    6  A    between atoms: O_8  and  C_30
REMARK    7  A    between atoms: O_9  and  C_24
REMARK    8  A    between atoms: O_9  and  C_33
REMARK    9  A    between atoms: O_10  and  C_35
REMARK   10  A    between atoms: O_10  and  C_36
REMARK   11  A    between atoms: N_12  and  C_16
REMARK   12  A    between atoms: N_13  and  C_26
REMARK   13  A    between atoms: C_31  and  C_35
REMARK   14  A    between atoms: C_36  and  C_37
REMARK                            x       y       z     vdW  Elec       q    Type
REMARK                         _______ _______ _______ _____ _____    ______ ____
ROOT
ATOM      2  O   UNL     1      -4.294   2.444  24.050  0.00  0.00    -0.369 OA
ATOM      3  O   UNL     1      -6.456   2.422  26.238  0.00  0.00    -0.368 OA
ATOM     14  C   UNL     1      -5.052   2.754  26.277  0.00  0.00    +0.171 C 
ATOM     15  C   UNL     1      -4.348   1.799  25.334  0.00  0.00    +0.191 C 
ATOM     16  C   UNL     1      -4.827   4.111  25.658  0.00  0.00    +0.133 C 
ATOM     17  C   UNL     1      -5.274   0.607  25.322  0.00  0.00    +0.235 C 
ATOM     18  C   UNL     1      -4.757   3.797  24.175  0.00  0.00    +0.183 C 
ATOM     19  C   UNL     1      -6.635   1.259  25.417  0.00  0.00    +0.207 C 
ENDROOT
BRANCH  16  12
ATOM     12  N   UNL     1      -3.531   4.667  26.113  0.00  0.00    -0.182 NA
ATOM     38  H   UNL     1      -3.480   5.040  27.069  0.00  0.00    +0.148 HD
BRANCH  12   1
ATOM      1  S   UNL     1      -2.326   5.039  24.976  0.00  0.00    +0.062 S 
ATOM      5  O   UNL     1      -1.724   6.315  25.309  0.00  0.00    -0.153 OA
ATOM      6  O   UNL     1      -2.855   4.808  23.645  0.00  0.00    -0.153 OA
BRANCH   1  20
ATOM     20  C   UNL     1      -1.130   3.774  25.282  0.00  0.00    +0.150 A 
ATOM     22  C   UNL     1      -0.588   3.031  24.233  0.00  0.00    +0.147 A 
ATOM     23  C   UNL     1      -0.731   3.522  26.595  0.00  0.00    +0.077 A 
ATOM     24  C   UNL     1       0.211   2.528  26.858  0.00  0.00    +0.122 A 
ATOM     25  C   UNL     1       0.353   2.037  24.497  0.00  0.00    +0.051 A 
ATOM     27  C   UNL     1       0.754   1.785  25.810  0.00  0.00    +0.049 A 
BRANCH  22   8
ATOM      8  O   UNL     1      -0.965   3.260  22.945  0.00  0.00    -0.493 OA
ATOM     30  C   UNL     1      -1.799   2.280  22.329  0.00  0.00    +0.277 C 
ENDBRANCH  22   8
BRANCH  24   9
ATOM      9  O   UNL     1       0.602   2.282  28.139  0.00  0.00    -0.495 OA
ATOM     33  C   UNL     1       1.884   2.770  28.529  0.00  0.00    +0.277 C 
ENDBRANCH  24   9
ENDBRANCH   1  20
ENDBRANCH  12   1
ENDBRANCH  16  12
BRANCH  17   4
ATOM      4  O   UNL     1      -5.148  -0.193  24.169  0.00  0.00    -0.442 OA
BRANCH   4  21
ATOM      7  O   UNL     1      -4.190  -2.249  23.881  0.00  0.00    -0.226 OA
ATOM     13  N   UNL     1      -2.908  -0.353  24.375  0.00  0.00    -0.251 N 
ATOM     21  C   UNL     1      -4.071  -1.054  24.120  0.00  0.00    +0.405 C 
ATOM     39  H   UNL     1      -3.012   0.642  24.551  0.00  0.00    +0.158 HD
BRANCH  13  26
ATOM     26  C   UNL     1      -1.586  -0.851  24.421  0.00  0.00    +0.037 A 
ATOM     28  C   UNL     1      -0.664  -0.472  23.445  0.00  0.00    +0.038 A 
ATOM     29  C   UNL     1      -1.202  -1.721  25.442  0.00  0.00    +0.023 A 
ATOM     31  C   UNL     1       0.641  -0.964  23.489  0.00  0.00    +0.061 A 
ATOM     32  C   UNL     1       0.103  -2.211  25.487  0.00  0.00    +0.003 A 
ATOM     34  C   UNL     1       1.024  -1.834  24.511  0.00  0.00    +0.015 A 
BRANCH  31  35
ATOM     11  O   UNL     1       1.314  -0.308  21.298  0.00  0.00    -0.245 OA
ATOM     35  C   UNL     1       1.603  -0.570  22.473  0.00  0.00    +0.339 C 
BRANCH  35  10
ATOM     10  O   UNL     1       2.875  -0.522  22.976  0.00  0.00    -0.461 OA
BRANCH  10  36
ATOM     36  C   UNL     1       3.624   0.673  22.730  0.00  0.00    +0.229 C 
ATOM     37  C   UNL     1       4.963   0.568  23.428  0.00  0.00    +0.048 C 
ENDBRANCH  10  36
ENDBRANCH  35  10
ENDBRANCH  31  35
ENDBRANCH  13  26
ENDBRANCH   4  21
ENDBRANCH  17   4
TORSDOF 11
ENDMDL
MODEL 3
REMARK VINA RESULT:       3.1      1.659      4.451
REMARK  Name = 11884016
REMARK  14 active torsions:
REMARK  status: ('A' for Active; 'I' for Inactive)
REMARK    1  A    between atoms: S_1  and  N_12
REMARK    2  A    between atoms: S_1  and  C_20
REMARK    3  A    between atoms: O_4  and  C_17
REMARK    4  A    between atoms: O_4  and  C_21
REMARK    5  A    between atoms: O_8  and  C_22
REMARK    6  A    between atoms: O_8  and  C_30
REMARK    7  A    between atoms: O_9  and  C_24
REMARK    8  A    between atoms: O_9  and  C_33
REMARK    9  A    between atoms: O_10  and  C_35
REMARK   10  A    between atoms: O_10  and  C_36
REMARK   11  A    between atoms: N_12  and  C_16
REMARK   12  A    between atoms: N_13  and  C_26
REMARK   13  A    between atoms: C_31  and  C_35
REMARK   14  A    between atoms: C_36  and  C_37
REMARK                            x       y       z     vdW  Elec       q    Type
REMARK                         _______ _______ _______ _____ _____    ______ ____
ROOT
ATOM      2  O   UNL     1      -2.991   3.469  26.199  0.00  0.00    -0.369 OA
ATOM      3  O   UNL     1      -2.937   6.087  24.585  0.00  0.00    -0.368 OA
ATOM     14  C   UNL     1      -3.388   4.758  24.247  0.00  0.00    +0.171 C 
ATOM     15  C   UNL     1      -2.433   3.788  24.913  0.00  0.00    +0.191 C 
ATOM     16  C   UNL     1      -4.714   4.481  24.912  0.00  0.00    +0.133 C 
ATOM     17  C   UNL     1      -1.169   4.603  25.038  0.00  0.00    +0.235 C 
ATOM     18  C   UNL     1      -4.306   4.037  26.304  0.00  0.00    +0.183 C 
ATOM     19  C   UNL     1      -1.709   5.987  25.321  0.00  0.00    +0.207 C 
ENDROOT
BRANCH  16  12
ATOM     12  N   UNL     1      -5.407   3.371  24.216  0.00  0.00    -0.182 NA
ATOM     38  H   UNL     1      -5.765   3.550  23.270  0.00  0.00    +0.148 HD
BRANCH  12   1
ATOM      1  S   UNL     1      -5.936   2.021  25.100  0.00  0.00    +0.062 S 
ATOM      5  O   UNL     1      -7.183   1.536  24.541  0.00  0.00    -0.153 OA
ATOM      6  O   UNL     1      -5.841   2.324  26.515  0.00  0.00    -0.153 OA
BRANCH   1  20
ATOM     20  C   UNL     1      -4.678   0.833  24.741  0.00  0.00    +0.150 A 
ATOM     22  C   UNL     1      -3.805   1.016  23.669  0.00  0.00    +0.147 A 
ATOM     23  C   UNL     1      -4.565  -0.300  25.547  0.00  0.00    +0.077 A 
ATOM     24  C   UNL     1      -3.580  -1.250  25.281  0.00  0.00    +0.122 A 
ATOM     25  C   UNL     1      -2.819   0.066  23.403  0.00  0.00    +0.051 A 
ATOM     27  C   UNL     1      -2.705  -1.067  24.209  0.00  0.00    +0.049 A 
BRANCH  22   8
ATOM      8  O   UNL     1      -3.897   2.114  22.869  0.00  0.00    -0.493 OA
ATOM     30  C   UNL     1      -2.884   2.282  21.879  0.00  0.00    +0.277 C 
ENDBRANCH  22   8
BRANCH  24   9
ATOM      9  O   UNL     1      -3.468  -2.355  26.067  0.00  0.00    -0.495 OA
ATOM     33  C   UNL     1      -3.080  -3.570  25.426  0.00  0.00    +0.277 C 
ENDBRANCH  24   9
ENDBRANCH   1  20
ENDBRANCH  12   1
ENDBRANCH  16  12
BRANCH  17   4
ATOM      4  O   UNL     1      -0.306   4.152  26.056  0.00  0.00    -0.442 OA
BRANCH   4  21
ATOM      7  O   UNL     1       0.897   2.323  26.716  0.00  0.00    -0.226 OA
ATOM     13  N   UNL     1       0.363   2.697  24.467  0.00  0.00    -0.251 N 
ATOM     21  C   UNL     1       0.377   2.977  25.820  0.00  0.00    +0.405 C 
ATOM     39  H   UNL     1      -0.125   3.364  23.876  0.00  0.00    +0.158 HD
BRANCH  13  26
ATOM     26  C   UNL     1       0.943   1.594  23.801  0.00  0.00    +0.037 A 
ATOM     28  C   UNL     1       2.310   1.586  23.524  0.00  0.00    +0.038 A 
ATOM     29  C   UNL     1       0.149   0.511  23.421  0.00  0.00    +0.023 A 
ATOM     31  C   UNL     1       2.882   0.498  22.866  0.00  0.00    +0.061 A 
ATOM     32  C   UNL     1       0.721  -0.577  22.764  0.00  0.00    +0.003 A 
ATOM     34  C   UNL     1       2.087  -0.584  22.486  0.00  0.00    +0.015 A 
BRANCH  31  35
ATOM     11  O   UNL     1       4.796   0.236  21.468  0.00  0.00    -0.245 OA
ATOM     35  C   UNL     1       4.308   0.488  22.577  0.00  0.00    +0.339 C 
BRANCH  35  10
ATOM     10  O   UNL     1       5.048   0.795  23.687  0.00  0.00    -0.461 OA
BRANCH  10  36
ATOM     36  C   UNL     1       5.768  -0.279  24.301  0.00  0.00    +0.229 C 
ATOM     37  C   UNL     1       5.023  -1.575  24.058  0.00  0.00    +0.048 C 
ENDBRANCH  10  36
ENDBRANCH  35  10
ENDBRANCH  31  35
ENDBRANCH  13  26
ENDBRANCH   4  21
ENDBRANCH  17   4
TORSDOF 11
ENDMDL
MODEL 4
REMARK VINA RESULT:       3.1      1.068      2.002
REMARK  Name = 11884016
REMARK  14 active torsions:
REMARK  status: ('A' for Active; 'I' for Inactive)
REMARK    1  A    between atoms: S_1  and  N_12
REMARK    2  A    between atoms: S_1  and  C_20
REMARK    3  A    between atoms: O_4  and  C_17
REMARK    4  A    between atoms: O_4  and  C_21
REMARK    5  A    between atoms: O_8  and  C_22
REMARK    6  A    between atoms: O_8  and  C_30
REMARK    7  A    between atoms: O_9  and  C_24
REMARK    8  A    between atoms: O_9  and  C_33
REMARK    9  A    between atoms: O_10  and  C_35
REMARK   10  A    between atoms: O_10  and  C_36
REMARK   11  A    between atoms: N_12  and  C_16
REMARK   12  A    between atoms: N_13  and  C_26
REMARK   13  A    between atoms: C_31  and  C_35
REMARK   14  A    between atoms: C_36  and  C_37
REMARK                            x       y       z     vdW  Elec       q    Type
REMARK                         _______ _______ _______ _____ _____    ______ ____
ROOT
ATOM      2  O   UNL     1      -2.651  -0.699  24.406  0.00  0.00    -0.369 OA
ATOM      3  O   UNL     1      -5.062  -2.509  23.793  0.00  0.00    -0.368 OA
ATOM     14  C   UNL     1      -4.764  -1.651  24.914  0.00  0.00    +0.171 C 
ATOM     15  C   UNL     1      -3.272  -1.753  25.161  0.00  0.00    +0.191 C 
ATOM     16  C   UNL     1      -4.973  -0.208  24.528  0.00  0.00    +0.133 C 
ATOM     17  C   UNL     1      -2.938  -3.114  24.602  0.00  0.00    +0.235 C 
ATOM     18  C   UNL     1      -3.665   0.152  23.849  0.00  0.00    +0.183 C 
ATOM     19  C   UNL     1      -3.867  -3.207  23.413  0.00  0.00    +0.207 C 
ENDROOT
BRANCH  16  12
ATOM     12  N   UNL     1      -5.151   0.621  25.743  0.00  0.00    -0.182 NA
ATOM     38  H   UNL     1      -5.202   0.138  26.648  0.00  0.00    +0.148 HD
BRANCH  12   1
ATOM      1  S   UNL     1      -5.655   2.236  25.596  0.00  0.00    +0.062 S 
ATOM      5  O   UNL     1      -6.074   2.732  26.893  0.00  0.00    -0.153 OA
ATOM      6  O   UNL     1      -6.540   2.346  24.453  0.00  0.00    -0.153 OA
BRANCH   1  20
ATOM     20  C   UNL     1      -4.148   3.051  25.161  0.00  0.00    +0.150 A 
ATOM     22  C   UNL     1      -3.522   3.923  26.052  0.00  0.00    +0.147 A 
ATOM     23  C   UNL     1      -3.585   2.813  23.907  0.00  0.00    +0.077 A 
ATOM     24  C   UNL     1      -2.397   3.446  23.544  0.00  0.00    +0.122 A 
ATOM     25  C   UNL     1      -2.334   4.557  25.689  0.00  0.00    +0.051 A 
ATOM     27  C   UNL     1      -1.771   4.318  24.434  0.00  0.00    +0.049 A 
BRANCH  22   8
ATOM      8  O   UNL     1      -4.055   4.172  27.281  0.00  0.00    -0.493 OA
ATOM     30  C   UNL     1      -3.158   4.155  28.390  0.00  0.00    +0.277 C 
ENDBRANCH  22   8
BRANCH  24   9
ATOM      9  O   UNL     1      -1.847   3.213  22.321  0.00  0.00    -0.495 OA
ATOM     33  C   UNL     1      -2.470   2.219  21.508  0.00  0.00    +0.277 C 
ENDBRANCH  24   9
ENDBRANCH   1  20
ENDBRANCH  12   1
ENDBRANCH  16  12
BRANCH  17   4
ATOM      4  O   UNL     1      -1.586  -3.255  24.232  0.00  0.00    -0.442 OA
BRANCH   4  21
ATOM      7  O   UNL     1      -0.260  -2.241  25.795  0.00  0.00    -0.226 OA
ATOM     13  N   UNL     1      -0.473  -1.389  23.625  0.00  0.00    -0.251 N 
ATOM     21  C   UNL     1      -0.716  -2.273  24.659  0.00  0.00    +0.405 C 
ATOM     39  H   UNL     1      -0.946  -1.583  22.747  0.00  0.00    +0.158 HD
BRANCH  13  26
ATOM     26  C   UNL     1       0.356  -0.244  23.636  0.00  0.00    +0.037 A 
ATOM     28  C   UNL     1       1.626  -0.296  23.061  0.00  0.00    +0.038 A 
ATOM     29  C   UNL     1      -0.096   0.939  24.223  0.00  0.00    +0.023 A 
ATOM     31  C   UNL     1       2.444   0.833  23.073  0.00  0.00    +0.061 A 
ATOM     32  C   UNL     1       0.723   2.068  24.233  0.00  0.00    +0.003 A 
ATOM     34  C   UNL     1       1.992   2.016  23.659  0.00  0.00    +0.015 A 
BRANCH  31  35
ATOM     11  O   UNL     1       3.987   0.539  21.280  0.00  0.00    -0.245 OA
ATOM     35  C   UNL     1       3.768   0.780  22.474  0.00  0.00    +0.339 C 
BRANCH  35  10
ATOM     10  O   UNL     1       4.748   1.031  23.396  0.00  0.00    -0.461 OA
BRANCH  10  36
ATOM     36  C   UNL     1       5.800   0.067  23.501  0.00  0.00    +0.229 C 
ATOM     37  C   UNL     1       5.261  -1.181  24.169  0.00  0.00    +0.048 C 
ENDBRANCH  10  36
ENDBRANCH  35  10
ENDBRANCH  31  35
ENDBRANCH  13  26
ENDBRANCH   4  21
ENDBRANCH  17   4
TORSDOF 11
ENDMDL
MODEL 5
REMARK VINA RESULT:       3.2      1.420      2.122
REMARK  Name = 11884016
REMARK  14 active torsions:
REMARK  status: ('A' for Active; 'I' for Inactive)
REMARK    1  A    between atoms: S_1  and  N_12
REMARK    2  A    between atoms: S_1  and  C_20
REMARK    3  A    between atoms: O_4  and  C_17
REMARK    4  A    between atoms: O_4  and  C_21
REMARK    5  A    between atoms: O_8  and  C_22
REMARK    6  A    between atoms: O_8  and  C_30
REMARK    7  A    between atoms: O_9  and  C_24
REMARK    8  A    between atoms: O_9  and  C_33
REMARK    9  A    between atoms: O_10  and  C_35
REMARK   10  A    between atoms: O_10  and  C_36
REMARK   11  A    between atoms: N_12  and  C_16
REMARK   12  A    between atoms: N_13  and  C_26
REMARK   13  A    between atoms: C_31  and  C_35
REMARK   14  A    between atoms: C_36  and  C_37
REMARK                            x       y       z     vdW  Elec       q    Type
REMARK                         _______ _______ _______ _____ _____    ______ ____
ROOT
ATOM      2  O   UNL     1      -2.174   0.260  24.284  0.00  0.00    -0.369 OA
ATOM      3  O   UNL     1      -4.492  -1.718  24.705  0.00  0.00    -0.368 OA
ATOM     14  C   UNL     1      -4.441  -0.276  24.735  0.00  0.00    +0.171 C 
ATOM     15  C   UNL     1      -3.114   0.104  25.360  0.00  0.00    +0.191 C 
ATOM     16  C   UNL     1      -4.350   0.264  23.329  0.00  0.00    +0.133 C 
ATOM     17  C   UNL     1      -2.795  -1.100  26.212  0.00  0.00    +0.235 C 
ATOM     18  C   UNL     1      -2.866   0.173  23.028  0.00  0.00    +0.183 C 
ATOM     19  C   UNL     1      -3.331  -2.236  25.371  0.00  0.00    +0.207 C 
ENDROOT
BRANCH  16  12
ATOM     12  N   UNL     1      -4.781   1.682  23.302  0.00  0.00    -0.182 NA
ATOM     38  H   UNL     1      -5.789   1.875  23.311  0.00  0.00    +0.148 HD
BRANCH  12   1
ATOM      1  S   UNL     1      -3.672   2.892  22.864  0.00  0.00    +0.062 S 
ATOM      5  O   UNL     1      -4.393   4.080  22.449  0.00  0.00    -0.153 OA
ATOM      6  O   UNL     1      -2.665   2.309  21.998  0.00  0.00    -0.153 OA
BRANCH   1  20
ATOM     20  C   UNL     1      -2.884   3.242  24.407  0.00  0.00    +0.150 A 
ATOM     22  C   UNL     1      -3.613   3.742  25.486  0.00  0.00    +0.147 A 
ATOM     23  C   UNL     1      -1.515   3.011  24.537  0.00  0.00    +0.077 A 
ATOM     24  C   UNL     1      -0.874   3.281  25.745  0.00  0.00    +0.122 A 
ATOM     25  C   UNL     1      -2.972   4.011  26.695  0.00  0.00    +0.051 A 
ATOM     27  C   UNL     1      -1.602   3.781  26.826  0.00  0.00    +0.049 A 
BRANCH  22   8
ATOM      8  O   UNL     1      -4.951   3.974  25.381  0.00  0.00    -0.493 OA
ATOM     30  C   UNL     1      -5.824   3.021  25.985  0.00  0.00    +0.277 C 
ENDBRANCH  22   8
BRANCH  24   9
ATOM      9  O   UNL     1       0.462   3.056  25.874  0.00  0.00    -0.495 OA
ATOM     33  C   UNL     1       0.923   2.592  27.142  0.00  0.00    +0.277 C 
ENDBRANCH  24   9
ENDBRANCH   1  20
ENDBRANCH  12   1
ENDBRANCH  16  12
BRANCH  17   4
ATOM      4  O   UNL     1      -1.421  -1.247  26.488  0.00  0.00    -0.442 OA
BRANCH   4  21
ATOM      7  O   UNL     1      -0.364  -2.729  25.103  0.00  0.00    -0.226 OA
ATOM     13  N   UNL     1      -0.133  -0.415  24.834  0.00  0.00    -0.251 N 
ATOM     21  C   UNL     1      -0.602  -1.572  25.425  0.00  0.00    +0.405 C 
ATOM     39  H   UNL     1      -0.445   0.460  25.246  0.00  0.00    +0.158 HD
BRANCH  13  26
ATOM     26  C   UNL     1       0.730  -0.296  23.720  0.00  0.00    +0.037 A 
ATOM     28  C   UNL     1       1.943   0.381  23.846  0.00  0.00    +0.038 A 
ATOM     29  C   UNL     1       0.368  -0.856  22.494  0.00  0.00    +0.023 A 
ATOM     31  C   UNL     1       2.793   0.499  22.747  0.00  0.00    +0.061 A 
ATOM     32  C   UNL     1       1.220  -0.739  21.396  0.00  0.00    +0.003 A 
ATOM     34  C   UNL     1       2.431  -0.062  21.522  0.00  0.00    +0.015 A 
BRANCH  31  35
ATOM     11  O   UNL     1       4.433   2.116  22.129  0.00  0.00    -0.245 OA
ATOM     35  C   UNL     1       4.059   1.204  22.878  0.00  0.00    +0.339 C 
BRANCH  35  10
ATOM     10  O   UNL     1       4.790   0.734  23.935  0.00  0.00    -0.461 OA
BRANCH  10  36
ATOM     36  C   UNL     1       5.691  -0.346  23.669  0.00  0.00    +0.229 C 
ATOM     37  C   UNL     1       4.991  -1.656  23.962  0.00  0.00    +0.048 C 
ENDBRANCH  10  36
ENDBRANCH  35  10
ENDBRANCH  31  35
ENDBRANCH  13  26
ENDBRANCH   4  21
ENDBRANCH  17   4
TORSDOF 11
ENDMDL
MODEL 6
REMARK VINA RESULT:       3.3      1.873      6.215
REMARK  Name = 11884016
REMARK  14 active torsions:
REMARK  status: ('A' for Active; 'I' for Inactive)
REMARK    1  A    between atoms: S_1  and  N_12
REMARK    2  A    between atoms: S_1  and  C_20
REMARK    3  A    between atoms: O_4  and  C_17
REMARK    4  A    between atoms: O_4  and  C_21
REMARK    5  A    between atoms: O_8  and  C_22
REMARK    6  A    between atoms: O_8  and  C_30
REMARK    7  A    between atoms: O_9  and  C_24
REMARK    8  A    between atoms: O_9  and  C_33
REMARK    9  A    between atoms: O_10  and  C_35
REMARK   10  A    between atoms: O_10  and  C_36
REMARK   11  A    between atoms: N_12  and  C_16
REMARK   12  A    between atoms: N_13  and  C_26
REMARK   13  A    between atoms: C_31  and  C_35
REMARK   14  A    between atoms: C_36  and  C_37
REMARK                            x       y       z     vdW  Elec       q    Type
REMARK                         _______ _______ _______ _____ _____    ______ ____
ROOT
ATOM      2  O   UNL     1      -3.484   3.771  24.004  0.00  0.00    -0.369 OA
ATOM      3  O   UNL     1      -2.920   4.900  26.809  0.00  0.00    -0.368 OA
ATOM     14  C   UNL     1      -2.211   3.938  26.000  0.00  0.00    +0.171 C 
ATOM     15  C   UNL     1      -3.259   3.123  25.267  0.00  0.00    +0.191 C 
ATOM     16  C   UNL     1      -1.463   4.646  24.897  0.00  0.00    +0.133 C 
ATOM     17  C   UNL     1      -4.459   3.238  26.175  0.00  0.00    +0.235 C 
ATOM     18  C   UNL     1      -2.526   4.826  23.830  0.00  0.00    +0.183 C 
ATOM     19  C   UNL     1      -4.329   4.650  26.698  0.00  0.00    +0.207 C 
ENDROOT
BRANCH  16  12
ATOM     12  N   UNL     1      -0.379   3.776  24.382  0.00  0.00    -0.182 NA
ATOM     38  H   UNL     1      -0.081   3.909  23.408  0.00  0.00    +0.148 HD
BRANCH  12   1
ATOM      1  S   UNL     1       0.049   2.369  25.231  0.00  0.00    +0.062 S 
ATOM      5  O   UNL     1      -1.152   1.684  25.668  0.00  0.00    -0.153 OA
ATOM      6  O   UNL     1       1.088   2.700  26.187  0.00  0.00    -0.153 OA
BRANCH   1  20
ATOM     20  C   UNL     1       0.805   1.393  23.966  0.00  0.00    +0.150 A 
ATOM     22  C   UNL     1       0.031   0.640  23.084  0.00  0.00    +0.147 A 
ATOM     23  C   UNL     1       2.196   1.384  23.856  0.00  0.00    +0.077 A 
ATOM     24  C   UNL     1       2.812   0.621  22.865  0.00  0.00    +0.122 A 
ATOM     25  C   UNL     1       0.647  -0.123  22.093  0.00  0.00    +0.051 A 
ATOM     27  C   UNL     1       2.038  -0.133  21.982  0.00  0.00    +0.049 A 
BRANCH  22   8
ATOM      8  O   UNL     1      -1.328   0.634  23.173  0.00  0.00    -0.493 OA
ATOM     30  C   UNL     1      -2.042   1.460  22.254  0.00  0.00    +0.277 C 
ENDBRANCH  22   8
BRANCH  24   9
ATOM      9  O   UNL     1       4.169   0.611  22.757  0.00  0.00    -0.495 OA
ATOM     33  C   UNL     1       4.894  -0.097  23.761  0.00  0.00    +0.277 C 
ENDBRANCH  24   9
ENDBRANCH   1  20
ENDBRANCH  12   1
ENDBRANCH  16  12
BRANCH  17   4
ATOM      4  O   UNL     1      -5.686   3.027  25.517  0.00  0.00    -0.442 OA
BRANCH   4  21
ATOM      7  O   UNL     1      -6.940   1.460  24.419  0.00  0.00    -0.226 OA
ATOM     13  N   UNL     1      -4.728   1.037  25.060  0.00  0.00    -0.251 N 
ATOM     21  C   UNL     1      -5.882   1.788  24.941  0.00  0.00    +0.405 C 
ATOM     39  H   UNL     1      -3.946   1.485  25.528  0.00  0.00    +0.158 HD
BRANCH  13  26
ATOM     26  C   UNL     1      -4.500  -0.283  24.607  0.00  0.00    +0.037 A 
ATOM     28  C   UNL     1      -3.215  -0.824  24.653  0.00  0.00    +0.038 A 
ATOM     29  C   UNL     1      -5.559  -1.045  24.114  0.00  0.00    +0.023 A 
ATOM     31  C   UNL     1      -2.989  -2.125  24.206  0.00  0.00    +0.061 A 
ATOM     32  C   UNL     1      -5.333  -2.347  23.668  0.00  0.00    +0.003 A 
ATOM     34  C   UNL     1      -4.049  -2.887  23.713  0.00  0.00    +0.015 A 
BRANCH  31  35
ATOM     11  O   UNL     1      -1.037  -3.124  23.270  0.00  0.00    -0.245 OA
ATOM     35  C   UNL     1      -1.650  -2.690  24.254  0.00  0.00    +0.339 C 
BRANCH  35  10
ATOM     10  O   UNL     1      -1.146  -2.683  25.526  0.00  0.00    -0.461 OA
BRANCH  10  36
ATOM     36  C   UNL     1      -0.224  -1.638  25.852  0.00  0.00    +0.229 C 
ATOM     37  C   UNL     1      -0.828  -0.767  26.933  0.00  0.00    +0.048 C 
ENDBRANCH  10  36
ENDBRANCH  35  10
ENDBRANCH  31  35
ENDBRANCH  13  26
ENDBRANCH   4  21
ENDBRANCH  17   4
TORSDOF 11
ENDMDL
MODEL 7
REMARK VINA RESULT:       3.3      1.376      1.788
REMARK  Name = 11884016
REMARK  14 active torsions:
REMARK  status: ('A' for Active; 'I' for Inactive)
REMARK    1  A    between atoms: S_1  and  N_12
REMARK    2  A    between atoms: S_1  and  C_20
REMARK    3  A    between atoms: O_4  and  C_17
REMARK    4  A    between atoms: O_4  and  C_21
REMARK    5  A    between atoms: O_8  and  C_22
REMARK    6  A    between atoms: O_8  and  C_30
REMARK    7  A    between atoms: O_9  and  C_24
REMARK    8  A    between atoms: O_9  and  C_33
REMARK    9  A    between atoms: O_10  and  C_35
REMARK   10  A    between atoms: O_10  and  C_36
REMARK   11  A    between atoms: N_12  and  C_16
REMARK   12  A    between atoms: N_13  and  C_26
REMARK   13  A    between atoms: C_31  and  C_35
REMARK   14  A    between atoms: C_36  and  C_37
REMARK                            x       y       z     vdW  Elec       q    Type
REMARK                         _______ _______ _______ _____ _____    ______ ____
ROOT
ATOM      2  O   UNL     1      -2.352  -0.034  25.094  0.00  0.00    -0.369 OA
ATOM      3  O   UNL     1      -5.024  -1.236  24.158  0.00  0.00    -0.368 OA
ATOM     14  C   UNL     1      -4.708  -0.290  25.201  0.00  0.00    +0.171 C 
ATOM     15  C   UNL     1      -3.390  -0.728  25.806  0.00  0.00    +0.191 C 
ATOM     16  C   UNL     1      -4.403   1.059  24.596  0.00  0.00    +0.133 C 
ATOM     17  C   UNL     1      -3.372  -2.209  25.520  0.00  0.00    +0.235 C 
ATOM     18  C   UNL     1      -2.942   0.930  24.208  0.00  0.00    +0.183 C 
ATOM     19  C   UNL     1      -4.039  -2.279  24.165  0.00  0.00    +0.207 C 
ENDROOT
BRANCH  16  12
ATOM     12  N   UNL     1      -4.558   2.119  25.619  0.00  0.00    -0.182 NA
ATOM     38  H   UNL     1      -5.272   1.982  26.345  0.00  0.00    +0.148 HD
BRANCH  12   1
ATOM      1  S   UNL     1      -3.877   3.652  25.355  0.00  0.00    +0.062 S 
ATOM      5  O   UNL     1      -3.919   4.419  26.585  0.00  0.00    -0.153 OA
ATOM      6  O   UNL     1      -4.430   4.204  24.133  0.00  0.00    -0.153 OA
BRANCH   1  20
ATOM     20  C   UNL     1      -2.188   3.249  25.020  0.00  0.00    +0.150 A 
ATOM     22  C   UNL     1      -1.735   3.095  23.710  0.00  0.00    +0.147 A 
ATOM     23  C   UNL     1      -1.306   3.085  26.088  0.00  0.00    +0.077 A 
ATOM     24  C   UNL     1       0.030   2.767  25.846  0.00  0.00    +0.122 A 
ATOM     25  C   UNL     1      -0.399   2.777  23.468  0.00  0.00    +0.051 A 
ATOM     27  C   UNL     1       0.485   2.613  24.536  0.00  0.00    +0.049 A 
BRANCH  22   8
ATOM      8  O   UNL     1      -2.579   3.251  22.653  0.00  0.00    -0.493 OA
ATOM     30  C   UNL     1      -2.521   2.263  21.626  0.00  0.00    +0.277 C 
ENDBRANCH  22   8
BRANCH  24   9
ATOM      9  O   UNL     1       0.892   2.607  26.886  0.00  0.00    -0.495 OA
ATOM     33  C   UNL     1       0.322   2.323  28.163  0.00  0.00    +0.277 C 
ENDBRANCH  24   9
ENDBRANCH   1  20
ENDBRANCH  12   1
ENDBRANCH  16  12
BRANCH  17   4
ATOM      4  O   UNL     1      -2.077  -2.764  25.503  0.00  0.00    -0.442 OA
BRANCH   4  21
ATOM      7  O   UNL     1      -1.459  -3.382  23.390  0.00  0.00    -0.226 OA
ATOM     13  N   UNL     1      -0.528  -1.511  24.445  0.00  0.00    -0.251 N 
ATOM     21  C   UNL     1      -1.350  -2.617  24.339  0.00  0.00    +0.405 C 
ATOM     39  H   UNL     1      -0.579  -0.995  25.319  0.00  0.00    +0.158 HD
BRANCH  13  26
ATOM     26  C   UNL     1       0.377  -1.006  23.484  0.00  0.00    +0.037 A 
ATOM     28  C   UNL     1       1.676  -0.664  23.860  0.00  0.00    +0.038 A 
ATOM     29  C   UNL     1      -0.028  -0.848  22.158  0.00  0.00    +0.023 A 
ATOM     31  C   UNL     1       2.569  -0.165  22.913  0.00  0.00    +0.061 A 
ATOM     32  C   UNL     1       0.865  -0.350  21.210  0.00  0.00    +0.003 A 
ATOM     34  C   UNL     1       2.162  -0.008  21.587  0.00  0.00    +0.015 A 
BRANCH  31  35
ATOM     11  O   UNL     1       4.406   1.327  23.205  0.00  0.00    -0.245 OA
ATOM     35  C   UNL     1       3.923   0.191  23.304  0.00  0.00    +0.339 C 
BRANCH  35  10
ATOM     10  O   UNL     1       4.604  -0.889  23.798  0.00  0.00    -0.461 OA
BRANCH  10  36
ATOM     36  C   UNL     1       5.934  -0.653  24.273  0.00  0.00    +0.229 C 
ATOM     37  C   UNL     1       6.855  -0.465  23.087  0.00  0.00    +0.048 C 
ENDBRANCH  10  36
ENDBRANCH  35  10
ENDBRANCH  31  35
ENDBRANCH  13  26
ENDBRANCH   4  21
ENDBRANCH  17   4
TORSDOF 11
ENDMDL
MODEL 8
REMARK VINA RESULT:       5.2      1.503      2.123
REMARK  Name = 11884016
REMARK  14 active torsions:
REMARK  status: ('A' for Active; 'I' for Inactive)
REMARK    1  A    between atoms: S_1  and  N_12
REMARK    2  A    between atoms: S_1  and  C_20
REMARK    3  A    between atoms: O_4  and  C_17
REMARK    4  A    between atoms: O_4  and  C_21
REMARK    5  A    between atoms: O_8  and  C_22
REMARK    6  A    between atoms: O_8  and  C_30
REMARK    7  A    between atoms: O_9  and  C_24
REMARK    8  A    between atoms: O_9  and  C_33
REMARK    9  A    between atoms: O_10  and  C_35
REMARK   10  A    between atoms: O_10  and  C_36
REMARK   11  A    between atoms: N_12  and  C_16
REMARK   12  A    between atoms: N_13  and  C_26
REMARK   13  A    between atoms: C_31  and  C_35
REMARK   14  A    between atoms: C_36  and  C_37
REMARK                            x       y       z     vdW  Elec       q    Type
REMARK                         _______ _______ _______ _____ _____    ______ ____
ROOT
ATOM      2  O   UNL     1      -3.435  -0.077  23.585  0.00  0.00    -0.369 OA
ATOM      3  O   UNL     1      -4.189  -0.910  26.448  0.00  0.00    -0.368 OA
ATOM     14  C   UNL     1      -4.188   0.374  25.790  0.00  0.00    +0.171 C 
ATOM     15  C   UNL     1      -2.985   0.392  24.867  0.00  0.00    +0.191 C 
ATOM     16  C   UNL     1      -5.367   0.473  24.854  0.00  0.00    +0.133 C 
ATOM     17  C   UNL     1      -2.050  -0.591  25.526  0.00  0.00    +0.235 C 
ATOM     18  C   UNL     1      -4.864  -0.219  23.602  0.00  0.00    +0.183 C 
ATOM     19  C   UNL     1      -3.007  -1.629  26.067  0.00  0.00    +0.207 C 
ENDROOT
BRANCH  16  12
ATOM     12  N   UNL     1      -5.659   1.896  24.557  0.00  0.00    -0.182 NA
ATOM     38  H   UNL     1      -5.837   2.152  23.578  0.00  0.00    +0.148 HD
BRANCH  12   1
ATOM      1  S   UNL     1      -5.307   3.088  25.713  0.00  0.00    +0.062 S 
ATOM      5  O   UNL     1      -5.417   2.520  27.042  0.00  0.00    -0.153 OA
ATOM      6  O   UNL     1      -6.036   4.296  25.374  0.00  0.00    -0.153 OA
BRANCH   1  20
ATOM     20  C   UNL     1      -3.598   3.412  25.396  0.00  0.00    +0.150 A 
ATOM     22  C   UNL     1      -3.167   3.809  24.131  0.00  0.00    +0.147 A 
ATOM     23  C   UNL     1      -2.677   3.265  26.433  0.00  0.00    +0.077 A 
ATOM     24  C   UNL     1      -1.325   3.515  26.205  0.00  0.00    +0.122 A 
ATOM     25  C   UNL     1      -1.815   4.059  23.902  0.00  0.00    +0.051 A 
ATOM     27  C   UNL     1      -0.892   3.913  24.939  0.00  0.00    +0.049 A 
BRANCH  22   8
ATOM      8  O   UNL     1      -4.050   3.958  23.104  0.00  0.00    -0.493 OA
ATOM     30  C   UNL     1      -3.806   3.195  21.924  0.00  0.00    +0.277 C 
ENDBRANCH  22   8
BRANCH  24   9
ATOM      9  O   UNL     1      -0.424   3.373  27.216  0.00  0.00    -0.495 OA
ATOM     33  C   UNL     1       0.514   2.305  27.102  0.00  0.00    +0.277 C 
ENDBRANCH  24   9
ENDBRANCH   1  20
ENDBRANCH  12   1
ENDBRANCH  16  12
BRANCH  17   4
ATOM      4  O   UNL     1      -1.106  -1.150  24.642  0.00  0.00    -0.442 OA
BRANCH   4  21
ATOM      7  O   UNL     1      -0.326   0.916  24.049  0.00  0.00    -0.226 OA
ATOM     13  N   UNL     1       0.944  -1.021  23.708  0.00  0.00    -0.251 N 
ATOM     21  C   UNL     1      -0.159  -0.295  24.117  0.00  0.00    +0.405 C 
ATOM     39  H   UNL     1       0.897  -2.026  23.849  0.00  0.00    +0.158 HD
BRANCH  13  26
ATOM     26  C   UNL     1       2.133  -0.537  23.118  0.00  0.00    +0.037 A 
ATOM     28  C   UNL     1       3.346  -0.650  23.799  0.00  0.00    +0.038 A 
ATOM     29  C   UNL     1       2.096   0.053  21.854  0.00  0.00    +0.023 A 
ATOM     31  C   UNL     1       4.519  -0.172  23.217  0.00  0.00    +0.061 A 
ATOM     32  C   UNL     1       3.270   0.530  21.273  0.00  0.00    +0.003 A 
ATOM     34  C   UNL     1       4.481   0.418  21.953  0.00  0.00    +0.015 A 
BRANCH  31  35
ATOM     11  O   UNL     1       5.912  -0.775  25.056  0.00  0.00    -0.245 OA
ATOM     35  C   UNL     1       5.784  -0.289  23.926  0.00  0.00    +0.339 C 
BRANCH  35  10
ATOM     10  O   UNL     1       6.823   0.207  23.185  0.00  0.00    -0.461 OA
BRANCH  10  36
ATOM     36  C   UNL     1       7.917  -0.680  22.931  0.00  0.00    +0.229 C 
ATOM     37  C   UNL     1       9.217   0.055  23.181  0.00  0.00    +0.048 C 
ENDBRANCH  10  36
ENDBRANCH  35  10
ENDBRANCH  31  35
ENDBRANCH  13  26
ENDBRANCH   4  21
ENDBRANCH  17   4
TORSDOF 11
ENDMDL
MODEL 9
REMARK VINA RESULT:       5.3      1.832      5.438
REMARK  Name = 11884016
REMARK  14 active torsions:
REMARK  status: ('A' for Active; 'I' for Inactive)
REMARK    1  A    between atoms: S_1  and  N_12
REMARK    2  A    between atoms: S_1  and  C_20
REMARK    3  A    between atoms: O_4  and  C_17
REMARK    4  A    between atoms: O_4  and  C_21
REMARK    5  A    between atoms: O_8  and  C_22
REMARK    6  A    between atoms: O_8  and  C_30
REMARK    7  A    between atoms: O_9  and  C_24
REMARK    8  A    between atoms: O_9  and  C_33
REMARK    9  A    between atoms: O_10  and  C_35
REMARK   10  A    between atoms: O_10  and  C_36
REMARK   11  A    between atoms: N_12  and  C_16
REMARK   12  A    between atoms: N_13  and  C_26
REMARK   13  A    between atoms: C_31  and  C_35
REMARK   14  A    between atoms: C_36  and  C_37
REMARK                            x       y       z     vdW  Elec       q    Type
REMARK                         _______ _______ _______ _____ _____    ______ ____
ROOT
ATOM      2  O   UNL     1      -3.799  -0.627  25.689  0.00  0.00    -0.369 OA
ATOM      3  O   UNL     1      -5.302  -2.229  23.536  0.00  0.00    -0.368 OA
ATOM     14  C   UNL     1      -4.015  -1.575  23.525  0.00  0.00    +0.171 C 
ATOM     15  C   UNL     1      -4.162  -0.303  24.336  0.00  0.00    +0.191 C 
ATOM     16  C   UNL     1      -3.016  -2.394  24.305  0.00  0.00    +0.133 C 
ATOM     17  C   UNL     1      -5.634   0.000  24.209  0.00  0.00    +0.235 C 
ATOM     18  C   UNL     1      -3.273  -1.962  25.737  0.00  0.00    +0.183 C 
ATOM     19  C   UNL     1      -6.246  -1.383  24.209  0.00  0.00    +0.207 C 
ENDROOT
BRANCH  16  12
ATOM     12  N   UNL     1      -1.637  -2.021  23.910  0.00  0.00    -0.182 NA
ATOM     38  H   UNL     1      -1.354  -2.200  22.939  0.00  0.00    +0.148 HD
BRANCH  12   1
ATOM      1  S   UNL     1      -0.474  -1.702  25.105  0.00  0.00    +0.062 S 
ATOM      5  O   UNL     1       0.078  -2.953  25.588  0.00  0.00    -0.153 OA
ATOM      6  O   UNL     1      -1.020  -0.736  26.040  0.00  0.00    -0.153 OA
BRANCH   1  20
ATOM     20  C   UNL     1       0.782  -0.871  24.180  0.00  0.00    +0.150 A 
ATOM     22  C   UNL     1       0.473   0.228  23.379  0.00  0.00    +0.147 A 
ATOM     23  C   UNL     1       2.097  -1.328  24.260  0.00  0.00    +0.077 A 
ATOM     24  C   UNL     1       3.103  -0.687  23.538  0.00  0.00    +0.122 A 
ATOM     25  C   UNL     1       1.479   0.870  22.658  0.00  0.00    +0.051 A 
ATOM     27  C   UNL     1       2.795   0.413  22.736  0.00  0.00    +0.049 A 
BRANCH  22   8
ATOM      8  O   UNL     1      -0.805   0.691  23.287  0.00  0.00    -0.493 OA
ATOM     30  C   UNL     1      -1.009   1.882  22.528  0.00  0.00    +0.277 C 
ENDBRANCH  22   8
BRANCH  24   9
ATOM      9  O   UNL     1       4.387  -1.132  23.615  0.00  0.00    -0.495 OA
ATOM     33  C   UNL     1       5.419  -0.149  23.548  0.00  0.00    +0.277 C 
ENDBRANCH  24   9
ENDBRANCH   1  20
ENDBRANCH  12   1
ENDBRANCH  16  12
BRANCH  17   4
ATOM      4  O   UNL     1      -6.137   0.801  25.254  0.00  0.00    -0.442 OA
BRANCH   4  21
ATOM      7  O   UNL     1      -5.777   2.745  26.404  0.00  0.00    -0.226 OA
ATOM     13  N   UNL     1      -4.134   1.812  25.022  0.00  0.00    -0.251 N 
ATOM     21  C   UNL     1      -5.370   1.883  25.635  0.00  0.00    +0.405 C 
ATOM     39  H   UNL     1      -3.979   1.013  24.413  0.00  0.00    +0.158 HD
BRANCH  13  26
ATOM     26  C   UNL     1      -3.052   2.715  25.139  0.00  0.00    +0.037 A 
ATOM     28  C   UNL     1      -1.845   2.290  25.693  0.00  0.00    +0.038 A 
ATOM     29  C   UNL     1      -3.192   4.032  24.698  0.00  0.00    +0.023 A 
ATOM     31  C   UNL     1      -0.778   3.181  25.809  0.00  0.00    +0.061 A 
ATOM     32  C   UNL     1      -2.124   4.922  24.813  0.00  0.00    +0.003 A 
ATOM     34  C   UNL     1      -0.919   4.498  25.369  0.00  0.00    +0.015 A 
BRANCH  31  35
ATOM     11  O   UNL     1       1.472   2.398  25.729  0.00  0.00    -0.245 OA
ATOM     35  C   UNL     1       0.481   2.739  26.387  0.00  0.00    +0.339 C 
BRANCH  35  10
ATOM     10  O   UNL     1       0.437   2.747  27.755  0.00  0.00    -0.461 OA
BRANCH  10  36
ATOM     36  C   UNL     1       1.692   2.750  28.443  0.00  0.00    +0.229 C 
ATOM     37  C   UNL     1       1.461   2.376  29.892  0.00  0.00    +0.048 C 
ENDBRANCH  10  36
ENDBRANCH  35  10
ENDBRANCH  31  35
ENDBRANCH  13  26
ENDBRANCH   4  21
ENDBRANCH  17   4
TORSDOF 11
ENDMDL
MODEL 10
REMARK VINA RESULT:       5.4      1.649      4.513
REMARK  Name = 11884016
REMARK  14 active torsions:
REMARK  status: ('A' for Active; 'I' for Inactive)
REMARK    1  A    between atoms: S_1  and  N_12
REMARK    2  A    between atoms: S_1  and  C_20
REMARK    3  A    between atoms: O_4  and  C_17
REMARK    4  A    between atoms: O_4  and  C_21
REMARK    5  A    between atoms: O_8  and  C_22
REMARK    6  A    between atoms: O_8  and  C_30
REMARK    7  A    between atoms: O_9  and  C_24
REMARK    8  A    between atoms: O_9  and  C_33
REMARK    9  A    between atoms: O_10  and  C_35
REMARK   10  A    between atoms: O_10  and  C_36
REMARK   11  A    between atoms: N_12  and  C_16
REMARK   12  A    between atoms: N_13  and  C_26
REMARK   13  A    between atoms: C_31  and  C_35
REMARK   14  A    between atoms: C_36  and  C_37
REMARK                            x       y       z     vdW  Elec       q    Type
REMARK                         _______ _______ _______ _____ _____    ______ ____
ROOT
ATOM      2  O   UNL     1      -2.687   3.439  26.429  0.00  0.00    -0.369 OA
ATOM      3  O   UNL     1      -4.407   5.099  24.494  0.00  0.00    -0.368 OA
ATOM     14  C   UNL     1      -4.288   3.675  24.694  0.00  0.00    +0.171 C 
ATOM     15  C   UNL     1      -2.830   3.395  25.000  0.00  0.00    +0.191 C 
ATOM     16  C   UNL     1      -5.010   3.271  25.956  0.00  0.00    +0.133 C 
ATOM     17  C   UNL     1      -2.126   4.550  24.331  0.00  0.00    +0.235 C 
ATOM     18  C   UNL     1      -3.984   3.554  27.036  0.00  0.00    +0.183 C 
ATOM     19  C   UNL     1      -3.098   5.686  24.551  0.00  0.00    +0.207 C 
ENDROOT
BRANCH  16  12
ATOM     12  N   UNL     1      -5.316   1.822  25.922  0.00  0.00    -0.182 NA
ATOM     38  H   UNL     1      -5.368   1.323  26.819  0.00  0.00    +0.148 HD
BRANCH  12   1
ATOM      1  S   UNL     1      -5.175   0.964  24.463  0.00  0.00    +0.062 S 
ATOM      5  O   UNL     1      -4.659   1.844  23.433  0.00  0.00    -0.153 OA
ATOM      6  O   UNL     1      -6.399   0.219  24.241  0.00  0.00    -0.153 OA
BRANCH   1  20
ATOM     20  C   UNL     1      -3.918  -0.217  24.854  0.00  0.00    +0.150 A 
ATOM     22  C   UNL     1      -3.969  -1.513  24.342  0.00  0.00    +0.147 A 
ATOM     23  C   UNL     1      -2.865   0.164  25.685  0.00  0.00    +0.077 A 
ATOM     24  C   UNL     1      -1.863  -0.752  26.006  0.00  0.00    +0.122 A 
ATOM     25  C   UNL     1      -2.968  -2.429  24.662  0.00  0.00    +0.051 A 
ATOM     27  C   UNL     1      -1.914  -2.049  25.494  0.00  0.00    +0.049 A 
BRANCH  22   8
ATOM      8  O   UNL     1      -4.989  -1.906  23.529  0.00  0.00    -0.493 OA
ATOM     30  C   UNL     1      -4.983  -3.265  23.092  0.00  0.00    +0.277 C 
ENDBRANCH  22   8
BRANCH  24   9
ATOM      9  O   UNL     1      -0.835  -0.381  26.816  0.00  0.00    -0.495 OA
ATOM     33  C   UNL     1      -0.537   1.012  26.890  0.00  0.00    +0.277 C 
ENDBRANCH  24   9
ENDBRANCH   1  20
ENDBRANCH  12   1
ENDBRANCH  16  12
BRANCH  17   4
ATOM      4  O   UNL     1      -0.856   4.827  24.876  0.00  0.00    -0.442 OA
BRANCH   4  21
ATOM      7  O   UNL     1       0.863   3.665  25.839  0.00  0.00    -0.226 OA
ATOM     13  N   UNL     1      -0.164   2.931  23.867  0.00  0.00    -0.251 N 
ATOM     21  C   UNL     1       0.038   3.777  24.941  0.00  0.00    +0.405 C 
ATOM     39  H   UNL     1      -0.904   3.193  23.221  0.00  0.00    +0.158 HD
BRANCH  13  26
ATOM     26  C   UNL     1       0.532   1.742  23.554  0.00  0.00    +0.037 A 
ATOM     28  C   UNL     1       1.901   1.783  23.289  0.00  0.00    +0.038 A 
ATOM     29  C   UNL     1      -0.149   0.525  23.511  0.00  0.00    +0.023 A 
ATOM     31  C   UNL     1       2.588   0.610  22.980  0.00  0.00    +0.061 A 
ATOM     32  C   UNL     1       0.538  -0.649  23.203  0.00  0.00    +0.003 A 
ATOM     34  C   UNL     1       1.906  -0.607  22.937  0.00  0.00    +0.015 A 
BRANCH  31  35
ATOM     11  O   UNL     1       4.515   0.527  21.578  0.00  0.00    -0.245 OA
ATOM     35  C   UNL     1       4.015   0.652  22.703  0.00  0.00    +0.339 C 
BRANCH  35  10
ATOM     10  O   UNL     1       4.743   0.849  23.845  0.00  0.00    -0.461 OA
BRANCH  10  36
ATOM     36  C   UNL     1       5.832  -0.050  24.081  0.00  0.00    +0.229 C 
ATOM     37  C   UNL     1       5.302  -1.468  24.118  0.00  0.00    +0.048 C 
ENDBRANCH  10  36
ENDBRANCH  35  10
ENDBRANCH  31  35
ENDBRANCH  13  26
ENDBRANCH   4  21
ENDBRANCH  17   4
TORSDOF 11
ENDMDL
