MODEL 1
REMARK VINA RESULT:       3.2      0.000      0.000
REMARK  Name = 71693653
REMARK  8 active torsions:
REMARK  status: ('A' for Active; 'I' for Inactive)
REMARK    1  A    between atoms: O_2  and  C_12
REMARK    2  A    between atoms: N_5  and  C_15
REMARK    3  A    between atoms: N_6  and  C_20
REMARK    4  A    between atoms: N_7  and  C_25
REMARK    5  A    between atoms: C_9  and  C_12
REMARK    6  A    between atoms: C_10  and  C_11
REMARK    7  A    between atoms: C_21  and  C_22
REMARK    8  A    between atoms: C_24  and  C_26
REMARK                            x       y       z     vdW  Elec       q    Type
REMARK                         _______ _______ _______ _____ _____    ______ ____
ROOT
ATOM     11  C   UNL     1      -2.023   1.330  24.131  0.00  0.00    -0.017 A 
ATOM     16  C   UNL     1      -1.083   2.345  23.945  0.00  0.00    +0.008 A 
ATOM     17  C   UNL     1      -1.604   0.009  24.279  0.00  0.00    +0.008 A 
ATOM     18  C   UNL     1       0.277   2.036  23.905  0.00  0.00    +0.023 A 
ATOM     19  C   UNL     1      -0.245  -0.300  24.240  0.00  0.00    +0.023 A 
ATOM     20  C   UNL     1       0.696   0.714  24.053  0.00  0.00    +0.034 A 
ENDROOT
BRANCH  11  10
ATOM      1  O   UNL     1      -4.170   0.532  24.728  0.00  0.00    -0.361 OA
ATOM      3  O   UNL     1      -7.371   1.935  25.420  0.00  0.00    -0.273 OA
ATOM      5  N   UNL     1      -5.311   3.009  25.244  0.00  0.00    -0.295 N 
ATOM      9  C   UNL     1      -3.845   2.891  25.043  0.00  0.00    +0.134 C 
ATOM     10  C   UNL     1      -3.500   1.666  24.175  0.00  0.00    +0.171 C 
ATOM     13  C   UNL     1      -5.564   0.649  24.569  0.00  0.00    +0.256 C 
ATOM     14  C   UNL     1      -6.170   1.915  25.140  0.00  0.00    +0.242 C 
ATOM     15  C   UNL     1      -5.828   4.255  25.803  0.00  0.00    +0.132 C 
BRANCH   9  12
ATOM     12  C   UNL     1      -3.229   4.166  24.448  0.00  0.00    +0.181 C 
BRANCH  12   2
ATOM      2  O   UNL     1      -2.398   4.754  25.428  0.00  0.00    -0.393 OA
ATOM     27  H   UNL     1      -2.970   5.277  26.013  0.00  0.00    +0.209 HD
ENDBRANCH  12   2
ENDBRANCH   9  12
ENDBRANCH  11  10
BRANCH  20   6
ATOM      4  O   UNL     1       2.485   0.128  21.719  0.00  0.00    -0.268 OA
ATOM      6  N   UNL     1       2.057   0.406  24.014  0.00  0.00    -0.280 N 
ATOM     21  C   UNL     1       2.849   0.139  22.890  0.00  0.00    +0.266 C 
ATOM     28  H   UNL     1       2.513   0.370  24.923  0.00  0.00    +0.155 HD
BRANCH  21  22
ATOM      7  N   UNL     1       4.779  -1.269  23.735  0.00  0.00    -0.262 N 
ATOM      8  N   UNL     1       6.115  -1.265  23.884  0.00  0.00    -0.176 NA
ATOM     22  C   UNL     1       4.284  -0.130  23.171  0.00  0.00    +0.124 A 
ATOM     23  C   UNL     1       5.371   0.676  22.936  0.00  0.00    +0.057 A 
ATOM     24  C   UNL     1       6.470  -0.075  23.393  0.00  0.00    +0.061 A 
ATOM     25  C   UNL     1       4.024  -2.424  24.164  0.00  0.00    +0.173 C 
ATOM     26  C   UNL     1       7.890   0.316  23.379  0.00  0.00    +0.067 C 
ENDBRANCH  21  22
ENDBRANCH  20   6
TORSDOF 5
ENDMDL
MODEL 2
REMARK VINA RESULT:       5.2      1.117      2.304
REMARK  Name = 71693653
REMARK  8 active torsions:
REMARK  status: ('A' for Active; 'I' for Inactive)
REMARK    1  A    between atoms: O_2  and  C_12
REMARK    2  A    between atoms: N_5  and  C_15
REMARK    3  A    between atoms: N_6  and  C_20
REMARK    4  A    between atoms: N_7  and  C_25
REMARK    5  A    between atoms: C_9  and  C_12
REMARK    6  A    between atoms: C_10  and  C_11
REMARK    7  A    between atoms: C_21  and  C_22
REMARK    8  A    between atoms: C_24  and  C_26
REMARK                            x       y       z     vdW  Elec       q    Type
REMARK                         _______ _______ _______ _____ _____    ______ ____
ROOT
ATOM     11  C   UNL     1      -1.910   2.209  25.377  0.00  0.00    -0.017 A 
ATOM     16  C   UNL     1      -1.742   1.090  24.561  0.00  0.00    +0.008 A 
ATOM     17  C   UNL     1      -0.796   2.862  25.904  0.00  0.00    +0.008 A 
ATOM     18  C   UNL     1      -0.459   0.623  24.273  0.00  0.00    +0.023 A 
ATOM     19  C   UNL     1       0.486   2.396  25.616  0.00  0.00    +0.023 A 
ATOM     20  C   UNL     1       0.655   1.276  24.800  0.00  0.00    +0.034 A 
ENDROOT
BRANCH  11  10
ATOM      1  O   UNL     1      -3.343   4.091  25.307  0.00  0.00    -0.361 OA
ATOM      3  O   UNL     1      -6.852   4.698  25.407  0.00  0.00    -0.273 OA
ATOM      5  N   UNL     1      -5.726   2.684  25.091  0.00  0.00    -0.295 N 
ATOM      9  C   UNL     1      -4.428   1.981  24.935  0.00  0.00    +0.134 C 
ATOM     10  C   UNL     1      -3.303   2.716  25.689  0.00  0.00    +0.171 C 
ATOM     13  C   UNL     1      -4.508   4.712  25.795  0.00  0.00    +0.256 C 
ATOM     14  C   UNL     1      -5.807   4.044  25.392  0.00  0.00    +0.242 C 
ATOM     15  C   UNL     1      -6.938   1.984  24.678  0.00  0.00    +0.132 C 
BRANCH   9  12
ATOM     12  C   UNL     1      -4.500   0.510  25.372  0.00  0.00    +0.181 C 
BRANCH  12   2
ATOM      2  O   UNL     1      -4.490  -0.296  24.212  0.00  0.00    -0.393 OA
ATOM     27  H   UNL     1      -5.135  -1.009  24.352  0.00  0.00    +0.209 HD
ENDBRANCH  12   2
ENDBRANCH   9  12
ENDBRANCH  11  10
BRANCH  20   6
ATOM      4  O   UNL     1       1.799   0.211  22.241  0.00  0.00    -0.268 OA
ATOM      6  N   UNL     1       1.938   0.810  24.511  0.00  0.00    -0.280 N 
ATOM     21  C   UNL     1       2.423   0.320  23.291  0.00  0.00    +0.266 C 
ATOM     28  H   UNL     1       2.587   0.832  25.294  0.00  0.00    +0.155 HD
BRANCH  21  22
ATOM      7  N   UNL     1       4.340  -1.292  23.676  0.00  0.00    -0.262 N 
ATOM      8  N   UNL     1       5.677  -1.399  23.580  0.00  0.00    -0.176 NA
ATOM     22  C   UNL     1       3.856  -0.077  23.289  0.00  0.00    +0.124 A 
ATOM     23  C   UNL     1       4.951   0.662  22.914  0.00  0.00    +0.057 A 
ATOM     24  C   UNL     1       6.044  -0.203  23.113  0.00  0.00    +0.061 A 
ATOM     25  C   UNL     1       3.574  -2.418  24.157  0.00  0.00    +0.173 C 
ATOM     26  C   UNL     1       7.468   0.080  22.868  0.00  0.00    +0.067 C 
ENDBRANCH  21  22
ENDBRANCH  20   6
TORSDOF 5
ENDMDL
MODEL 3
REMARK VINA RESULT:       6.2      1.359      1.701
REMARK  Name = 71693653
REMARK  8 active torsions:
REMARK  status: ('A' for Active; 'I' for Inactive)
REMARK    1  A    between atoms: O_2  and  C_12
REMARK    2  A    between atoms: N_5  and  C_15
REMARK    3  A    between atoms: N_6  and  C_20
REMARK    4  A    between atoms: N_7  and  C_25
REMARK    5  A    between atoms: C_9  and  C_12
REMARK    6  A    between atoms: C_10  and  C_11
REMARK    7  A    between atoms: C_21  and  C_22
REMARK    8  A    between atoms: C_24  and  C_26
REMARK                            x       y       z     vdW  Elec       q    Type
REMARK                         _______ _______ _______ _____ _____    ______ ____
ROOT
ATOM     11  C   UNL     1      -2.503   1.606  24.591  0.00  0.00    -0.017 A 
ATOM     16  C   UNL     1      -1.588   2.048  25.547  0.00  0.00    +0.008 A 
ATOM     17  C   UNL     1      -2.058   0.900  23.474  0.00  0.00    +0.008 A 
ATOM     18  C   UNL     1      -0.227   1.785  25.384  0.00  0.00    +0.023 A 
ATOM     19  C   UNL     1      -0.699   0.637  23.310  0.00  0.00    +0.023 A 
ATOM     20  C   UNL     1       0.217   1.079  24.266  0.00  0.00    +0.034 A 
ENDROOT
BRANCH  11  10
ATOM      1  O   UNL     1      -4.467   0.977  25.753  0.00  0.00    -0.361 OA
ATOM      3  O   UNL     1      -7.638   2.429  26.483  0.00  0.00    -0.273 OA
ATOM      5  N   UNL     1      -5.721   3.452  25.641  0.00  0.00    -0.295 N 
ATOM      9  C   UNL     1      -4.295   3.320  25.250  0.00  0.00    +0.134 C 
ATOM     10  C   UNL     1      -3.980   1.891  24.769  0.00  0.00    +0.171 C 
ATOM     13  C   UNL     1      -5.874   0.993  25.796  0.00  0.00    +0.256 C 
ATOM     14  C   UNL     1      -6.493   2.356  26.030  0.00  0.00    +0.242 C 
ATOM     15  C   UNL     1      -6.252   4.794  25.856  0.00  0.00    +0.132 C 
BRANCH   9  12
ATOM     12  C   UNL     1      -3.879   4.351  24.191  0.00  0.00    +0.181 C 
BRANCH  12   2
ATOM      2  O   UNL     1      -4.093   3.783  22.914  0.00  0.00    -0.393 OA
ATOM     27  H   UNL     1      -3.343   4.044  22.355  0.00  0.00    +0.209 HD
ENDBRANCH  12   2
ENDBRANCH   9  12
ENDBRANCH  11  10
BRANCH  20   6
ATOM      4  O   UNL     1       1.637  -0.589  22.219  0.00  0.00    -0.268 OA
ATOM      6  N   UNL     1       1.578   0.815  24.104  0.00  0.00    -0.280 N 
ATOM     21  C   UNL     1       2.191   0.024  23.124  0.00  0.00    +0.266 C 
ATOM     28  H   UNL     1       2.184   1.256  24.792  0.00  0.00    +0.155 HD
BRANCH  21  22
ATOM      7  N   UNL     1       4.533   0.903  22.714  0.00  0.00    -0.262 N 
ATOM      8  N   UNL     1       5.831   0.607  22.905  0.00  0.00    -0.176 NA
ATOM     22  C   UNL     1       3.676  -0.041  23.196  0.00  0.00    +0.124 A 
ATOM     23  C   UNL     1       4.466  -1.024  23.740  0.00  0.00    +0.057 A 
ATOM     24  C   UNL     1       5.782  -0.571  23.533  0.00  0.00    +0.061 A 
ATOM     25  C   UNL     1       4.181   2.136  22.047  0.00  0.00    +0.173 C 
ATOM     26  C   UNL     1       7.034  -1.243  23.922  0.00  0.00    +0.067 C 
ENDBRANCH  21  22
ENDBRANCH  20   6
TORSDOF 5
ENDMDL
