MODEL 1
REMARK VINA RESULT:       8.3      0.000      0.000
REMARK  Name = 7113396
REMARK  9 active torsions:
REMARK  status: ('A' for Active; 'I' for Inactive)
REMARK    1  A    between atoms: O_6  and  C_23
REMARK    2  A    between atoms: O_6  and  C_36
REMARK    3  A    between atoms: N_10  and  C_19
REMARK    4  A    between atoms: C_12  and  C_16
REMARK    5  A    between atoms: C_17  and  C_21
REMARK    6  A    between atoms: C_18  and  C_22
REMARK    7  A    between atoms: C_19  and  C_20
REMARK    8  A    between atoms: C_19  and  C_23
REMARK    9  A    between atoms: C_20  and  C_24
REMARK                            x       y       z     vdW  Elec       q    Type
REMARK                         _______ _______ _______ _____ _____    ______ ____
ROOT
ATOM      4  O   UNL     1      -3.323   1.058  23.034  0.00  0.00    -0.269 OA
ATOM      5  O   UNL     1       3.029   0.359  20.670  0.00  0.00    -0.270 OA
ATOM      8  N   UNL     1      -1.175   0.192  23.186  0.00  0.00    -0.283 N 
ATOM      9  N   UNL     1       1.434  -0.392  22.205  0.00  0.00    -0.294 N 
ATOM     12  C   UNL     1      -0.083  -0.065  24.145  0.00  0.00    +0.179 C 
ATOM     13  C   UNL     1       1.065  -0.876  23.542  0.00  0.00    +0.140 C 
ATOM     14  C   UNL     1      -0.767   0.616  21.839  0.00  0.00    +0.128 C 
ATOM     15  C   UNL     1       0.317  -0.287  21.271  0.00  0.00    +0.127 C 
ATOM     17  C   UNL     1      -2.545   0.238  23.523  0.00  0.00    +0.254 C 
ATOM     18  C   UNL     1       2.720  -0.043  21.790  0.00  0.00    +0.247 C 
ENDROOT
BRANCH  18  22
ATOM      2  F   UNL     1       6.382   1.900  24.295  0.00  0.00    -0.205 F 
ATOM     22  C   UNL     1       3.816  -0.166  22.760  0.00  0.00    +0.040 A 
ATOM     26  C   UNL     1       4.592   0.947  23.071  0.00  0.00    +0.051 A 
ATOM     27  C   UNL     1       4.073  -1.394  23.363  0.00  0.00    +0.013 A 
ATOM     31  C   UNL     1       5.633   0.832  23.993  0.00  0.00    +0.124 A 
ATOM     32  C   UNL     1       5.114  -1.510  24.284  0.00  0.00    +0.004 A 
ATOM     34  C   UNL     1       5.893  -0.397  24.600  0.00  0.00    +0.038 A 
ENDBRANCH  18  22
BRANCH  17  21
ATOM      1  S   UNL     1      -2.919  -2.399  24.119  0.00  0.00    -0.092 S 
ATOM     21  C   UNL     1      -3.024  -0.735  24.496  0.00  0.00    +0.074 A 
ATOM     25  C   UNL     1      -3.574  -0.512  25.734  0.00  0.00    +0.021 A 
ATOM     28  C   UNL     1      -3.918  -1.729  26.389  0.00  0.00    +0.008 A 
ATOM     29  C   UNL     1      -3.616  -2.833  25.622  0.00  0.00    +0.046 A 
ENDBRANCH  17  21
BRANCH  12  16
ATOM      3  O   UNL     1       1.465   1.751  24.275  0.00  0.00    -0.274 OA
ATOM     10  N   UNL     1      -0.517   1.871  25.490  0.00  0.00    -0.301 N 
ATOM     16  C   UNL     1       0.386   1.279  24.623  0.00  0.00    +0.236 C 
ATOM     38  H   UNL     1      -1.378   1.388  25.727  0.00  0.00    +0.150 HD
BRANCH  10  19
ATOM     19  C   UNL     1      -0.291   3.157  26.109  0.00  0.00    +0.186 C 
BRANCH  19  23
ATOM      7  O   UNL     1      -0.668   5.025  24.623  0.00  0.00    -0.249 OA
ATOM     23  C   UNL     1      -1.123   4.258  25.465  0.00  0.00    +0.328 C 
BRANCH  23   6
ATOM      6  O   UNL     1      -2.398   4.287  25.946  0.00  0.00    -0.467 OA
ATOM     36  C   UNL     1      -3.412   3.821  25.049  0.00  0.00    +0.280 C 
ENDBRANCH  23   6
ENDBRANCH  19  23
BRANCH  19  20
ATOM     20  C   UNL     1      -0.490   3.102  27.631  0.00  0.00    +0.070 C 
BRANCH  20  24
ATOM     11  N   UNL     1       3.156   2.750  28.520  0.00  0.00    -0.263 NA
ATOM     24  C   UNL     1       0.761   2.790  28.421  0.00  0.00    -0.027 A 
ATOM     30  C   UNL     1       0.665   2.286  29.699  0.00  0.00    +0.006 A 
ATOM     33  C   UNL     1       1.999   3.008  27.868  0.00  0.00    +0.114 A 
ATOM     35  C   UNL     1       1.832   2.008  30.401  0.00  0.00    +0.020 A 
ATOM     37  C   UNL     1       3.042   2.255  29.772  0.00  0.00    +0.111 A 
ENDBRANCH  20  24
ENDBRANCH  19  20
ENDBRANCH  10  19
ENDBRANCH  12  16
TORSDOF 8
ENDMDL
MODEL 2
REMARK VINA RESULT:       8.5      1.397      3.368
REMARK  Name = 7113396
REMARK  9 active torsions:
REMARK  status: ('A' for Active; 'I' for Inactive)
REMARK    1  A    between atoms: O_6  and  C_23
REMARK    2  A    between atoms: O_6  and  C_36
REMARK    3  A    between atoms: N_10  and  C_19
REMARK    4  A    between atoms: C_12  and  C_16
REMARK    5  A    between atoms: C_17  and  C_21
REMARK    6  A    between atoms: C_18  and  C_22
REMARK    7  A    between atoms: C_19  and  C_20
REMARK    8  A    between atoms: C_19  and  C_23
REMARK    9  A    between atoms: C_20  and  C_24
REMARK                            x       y       z     vdW  Elec       q    Type
REMARK                         _______ _______ _______ _____ _____    ______ ____
ROOT
ATOM      4  O   UNL     1      -3.510   0.659  23.402  0.00  0.00    -0.269 OA
ATOM      5  O   UNL     1       2.809   0.575  20.854  0.00  0.00    -0.270 OA
ATOM      8  N   UNL     1      -1.308  -0.078  23.432  0.00  0.00    -0.283 N 
ATOM      9  N   UNL     1       1.305  -0.407  22.351  0.00  0.00    -0.294 N 
ATOM     12  C   UNL     1      -0.178  -0.346  24.342  0.00  0.00    +0.179 C 
ATOM     13  C   UNL     1       1.002  -1.027  23.646  0.00  0.00    +0.140 C 
ATOM     14  C   UNL     1      -0.963   0.486  22.120  0.00  0.00    +0.128 C 
ATOM     15  C   UNL     1       0.159  -0.293  21.453  0.00  0.00    +0.127 C 
ATOM     17  C   UNL     1      -2.669  -0.148  23.802  0.00  0.00    +0.254 C 
ATOM     18  C   UNL     1       2.556   0.058  21.941  0.00  0.00    +0.247 C 
ENDROOT
BRANCH  18  22
ATOM      2  F   UNL     1       6.298   1.967  24.351  0.00  0.00    -0.205 F 
ATOM     22  C   UNL     1       3.682  -0.078  22.873  0.00  0.00    +0.040 A 
ATOM     26  C   UNL     1       4.469   1.031  23.173  0.00  0.00    +0.051 A 
ATOM     27  C   UNL     1       3.958  -1.314  23.451  0.00  0.00    +0.013 A 
ATOM     31  C   UNL     1       5.539   0.903  24.059  0.00  0.00    +0.124 A 
ATOM     32  C   UNL     1       5.027  -1.442  24.337  0.00  0.00    +0.004 A 
ATOM     34  C   UNL     1       5.818  -0.333  24.641  0.00  0.00    +0.038 A 
ENDBRANCH  18  22
BRANCH  17  21
ATOM      1  S   UNL     1      -3.352  -2.781  24.035  0.00  0.00    -0.092 S 
ATOM     21  C   UNL     1      -3.061  -1.231  24.695  0.00  0.00    +0.074 A 
ATOM     25  C   UNL     1      -3.241  -1.198  26.056  0.00  0.00    +0.021 A 
ATOM     28  C   UNL     1      -3.626  -2.469  26.570  0.00  0.00    +0.008 A 
ATOM     29  C   UNL     1      -3.724  -3.421  25.579  0.00  0.00    +0.046 A 
ENDBRANCH  17  21
BRANCH  12  16
ATOM      3  O   UNL     1       1.141   1.643  24.460  0.00  0.00    -0.274 OA
ATOM     10  N   UNL     1      -0.548   1.317  26.029  0.00  0.00    -0.301 N 
ATOM     16  C   UNL     1       0.219   0.979  24.927  0.00  0.00    +0.236 C 
ATOM     38  H   UNL     1      -1.279   0.687  26.345  0.00  0.00    +0.150 HD
BRANCH  10  19
ATOM     19  C   UNL     1      -0.350   2.531  26.787  0.00  0.00    +0.186 C 
BRANCH  19  23
ATOM      7  O   UNL     1       2.005   3.061  26.908  0.00  0.00    -0.249 OA
ATOM     23  C   UNL     1       1.019   2.574  27.452  0.00  0.00    +0.328 C 
BRANCH  23   6
ATOM      6  O   UNL     1       1.009   2.001  28.689  0.00  0.00    -0.467 OA
ATOM     36  C   UNL     1       1.985   2.496  29.611  0.00  0.00    +0.280 C 
ENDBRANCH  23   6
ENDBRANCH  19  23
BRANCH  19  20
ATOM     20  C   UNL     1      -0.618   3.784  25.940  0.00  0.00    +0.070 C 
BRANCH  20  24
ATOM     11  N   UNL     1      -3.433   3.792  23.435  0.00  0.00    -0.263 NA
ATOM     24  C   UNL     1      -2.013   3.871  25.364  0.00  0.00    -0.027 A 
ATOM     30  C   UNL     1      -3.090   4.099  26.192  0.00  0.00    +0.006 A 
ATOM     33  C   UNL     1      -2.213   3.724  24.014  0.00  0.00    +0.114 A 
ATOM     35  C   UNL     1      -4.362   4.175  25.633  0.00  0.00    +0.020 A 
ATOM     37  C   UNL     1      -4.479   4.017  24.262  0.00  0.00    +0.111 A 
ENDBRANCH  20  24
ENDBRANCH  19  20
ENDBRANCH  10  19
ENDBRANCH  12  16
TORSDOF 8
ENDMDL
MODEL 3
REMARK VINA RESULT:       8.5      2.134      3.420
REMARK  Name = 7113396
REMARK  9 active torsions:
REMARK  status: ('A' for Active; 'I' for Inactive)
REMARK    1  A    between atoms: O_6  and  C_23
REMARK    2  A    between atoms: O_6  and  C_36
REMARK    3  A    between atoms: N_10  and  C_19
REMARK    4  A    between atoms: C_12  and  C_16
REMARK    5  A    between atoms: C_17  and  C_21
REMARK    6  A    between atoms: C_18  and  C_22
REMARK    7  A    between atoms: C_19  and  C_20
REMARK    8  A    between atoms: C_19  and  C_23
REMARK    9  A    between atoms: C_20  and  C_24
REMARK                            x       y       z     vdW  Elec       q    Type
REMARK                         _______ _______ _______ _____ _____    ______ ____
ROOT
ATOM      4  O   UNL     1      -3.451   0.715  23.183  0.00  0.00    -0.269 OA
ATOM      5  O   UNL     1       2.871   0.447  20.655  0.00  0.00    -0.270 OA
ATOM      8  N   UNL     1      -1.236   0.026  23.297  0.00  0.00    -0.283 N 
ATOM      9  N   UNL     1       1.383  -0.380  22.258  0.00  0.00    -0.294 N 
ATOM     12  C   UNL     1      -0.102  -0.114  24.231  0.00  0.00    +0.179 C 
ATOM     13  C   UNL     1       1.091  -0.849  23.618  0.00  0.00    +0.140 C 
ATOM     14  C   UNL     1      -0.900   0.439  21.927  0.00  0.00    +0.128 C 
ATOM     15  C   UNL     1       0.237  -0.393  21.354  0.00  0.00    +0.127 C 
ATOM     17  C   UNL     1      -2.596  -0.025  23.673  0.00  0.00    +0.254 C 
ATOM     18  C   UNL     1       2.626   0.056  21.795  0.00  0.00    +0.247 C 
ENDROOT
BRANCH  18  22
ATOM      2  F   UNL     1       5.705  -2.315  24.685  0.00  0.00    -0.205 F 
ATOM     22  C   UNL     1       3.754   0.051  22.735  0.00  0.00    +0.040 A 
ATOM     26  C   UNL     1       4.200  -1.153  23.273  0.00  0.00    +0.051 A 
ATOM     27  C   UNL     1       4.372   1.250  23.083  0.00  0.00    +0.013 A 
ATOM     31  C   UNL     1       5.272  -1.159  24.166  0.00  0.00    +0.124 A 
ATOM     32  C   UNL     1       5.443   1.243  23.975  0.00  0.00    +0.004 A 
ATOM     34  C   UNL     1       5.894   0.039  24.517  0.00  0.00    +0.038 A 
ENDBRANCH  18  22
BRANCH  17  21
ATOM      1  S   UNL     1      -3.128  -2.643  24.234  0.00  0.00    -0.092 S 
ATOM     21  C   UNL     1      -2.969  -1.003  24.687  0.00  0.00    +0.074 A 
ATOM     25  C   UNL     1      -3.225  -0.801  26.021  0.00  0.00    +0.021 A 
ATOM     28  C   UNL     1      -3.559  -2.015  26.687  0.00  0.00    +0.008 A 
ATOM     29  C   UNL     1      -3.544  -3.095  25.832  0.00  0.00    +0.046 A 
ENDBRANCH  17  21
BRANCH  12  16
ATOM      3  O   UNL     1       1.427   1.687  24.594  0.00  0.00    -0.274 OA
ATOM     10  N   UNL     1      -0.818   1.991  25.127  0.00  0.00    -0.301 N 
ATOM     16  C   UNL     1       0.271   1.278  24.656  0.00  0.00    +0.236 C 
ATOM     38  H   UNL     1      -1.734   1.553  25.151  0.00  0.00    +0.150 HD
BRANCH  10  19
ATOM     19  C   UNL     1      -0.722   3.346  25.619  0.00  0.00    +0.186 C 
BRANCH  19  23
ATOM      7  O   UNL     1      -0.093   3.981  23.374  0.00  0.00    -0.249 OA
ATOM     23  C   UNL     1      -0.383   4.335  24.512  0.00  0.00    +0.328 C 
BRANCH  23   6
ATOM      6  O   UNL     1      -0.426   5.627  24.945  0.00  0.00    -0.467 OA
ATOM     36  C   UNL     1      -1.606   6.360  24.597  0.00  0.00    +0.280 C 
ENDBRANCH  23   6
ENDBRANCH  19  23
BRANCH  19  20
ATOM     20  C   UNL     1      -1.979   3.763  26.398  0.00  0.00    +0.070 C 
BRANCH  20  24
ATOM     11  N   UNL     1      -4.659   3.430  23.768  0.00  0.00    -0.263 NA
ATOM     24  C   UNL     1      -3.285   3.393  25.733  0.00  0.00    -0.027 A 
ATOM     30  C   UNL     1      -4.254   2.715  26.440  0.00  0.00    +0.006 A 
ATOM     33  C   UNL     1      -3.513   3.729  24.421  0.00  0.00    +0.114 A 
ATOM     35  C   UNL     1      -5.446   2.389  25.803  0.00  0.00    +0.020 A 
ATOM     37  C   UNL     1      -5.598   2.765  24.478  0.00  0.00    +0.111 A 
ENDBRANCH  20  24
ENDBRANCH  19  20
ENDBRANCH  10  19
ENDBRANCH  12  16
TORSDOF 8
ENDMDL
MODEL 4
REMARK VINA RESULT:       8.7      3.692      7.384
REMARK  Name = 7113396
REMARK  9 active torsions:
REMARK  status: ('A' for Active; 'I' for Inactive)
REMARK    1  A    between atoms: O_6  and  C_23
REMARK    2  A    between atoms: O_6  and  C_36
REMARK    3  A    between atoms: N_10  and  C_19
REMARK    4  A    between atoms: C_12  and  C_16
REMARK    5  A    between atoms: C_17  and  C_21
REMARK    6  A    between atoms: C_18  and  C_22
REMARK    7  A    between atoms: C_19  and  C_20
REMARK    8  A    between atoms: C_19  and  C_23
REMARK    9  A    between atoms: C_20  and  C_24
REMARK                            x       y       z     vdW  Elec       q    Type
REMARK                         _______ _______ _______ _____ _____    ______ ____
ROOT
ATOM      4  O   UNL     1       1.296  -1.449  21.584  0.00  0.00    -0.269 OA
ATOM      5  O   UNL     1      -3.844   2.975  22.250  0.00  0.00    -0.270 OA
ATOM      8  N   UNL     1       0.323   0.413  22.572  0.00  0.00    -0.283 N 
ATOM      9  N   UNL     1      -1.627   2.475  22.800  0.00  0.00    -0.294 N 
ATOM     12  C   UNL     1       0.113   1.068  23.878  0.00  0.00    +0.179 C 
ATOM     13  C   UNL     1      -0.513   2.458  23.756  0.00  0.00    +0.140 C 
ATOM     14  C   UNL     1      -0.790   0.502  21.616  0.00  0.00    +0.128 C 
ATOM     15  C   UNL     1      -1.303   1.928  21.486  0.00  0.00    +0.127 C 
ATOM     17  C   UNL     1       1.414  -0.428  22.263  0.00  0.00    +0.254 C 
ATOM     18  C   UNL     1      -2.912   2.958  23.053  0.00  0.00    +0.247 C 
ENDROOT
BRANCH  18  22
ATOM      2  F   UNL     1      -5.831   5.302  26.126  0.00  0.00    -0.205 F 
ATOM     22  C   UNL     1      -3.195   3.503  24.386  0.00  0.00    +0.040 A 
ATOM     26  C   UNL     1      -4.402   4.156  24.625  0.00  0.00    +0.051 A 
ATOM     27  C   UNL     1      -2.257   3.363  25.405  0.00  0.00    +0.013 A 
ATOM     31  C   UNL     1      -4.672   4.673  25.892  0.00  0.00    +0.124 A 
ATOM     32  C   UNL     1      -2.527   3.881  26.672  0.00  0.00    +0.004 A 
ATOM     34  C   UNL     1      -3.734   4.535  26.916  0.00  0.00    +0.038 A 
ENDBRANCH  18  22
BRANCH  17  21
ATOM      1  S   UNL     1       3.639  -1.205  23.639  0.00  0.00    -0.092 S 
ATOM     21  C   UNL     1       2.719  -0.045  22.786  0.00  0.00    +0.074 A 
ATOM     25  C   UNL     1       3.358   1.167  22.693  0.00  0.00    +0.021 A 
ATOM     28  C   UNL     1       4.629   1.146  23.336  0.00  0.00    +0.008 A 
ATOM     29  C   UNL     1       4.908  -0.083  23.892  0.00  0.00    +0.046 A 
ENDBRANCH  17  21
BRANCH  12  16
ATOM      3  O   UNL     1      -0.470  -0.182  25.830  0.00  0.00    -0.274 OA
ATOM     10  N   UNL     1      -1.860  -0.291  23.966  0.00  0.00    -0.301 N 
ATOM     16  C   UNL     1      -0.756   0.143  24.680  0.00  0.00    +0.236 C 
ATOM     38  H   UNL     1      -1.998   0.026  23.011  0.00  0.00    +0.150 HD
BRANCH  10  19
ATOM     19  C   UNL     1      -2.840  -1.207  24.504  0.00  0.00    +0.186 C 
BRANCH  19  23
ATOM      7  O   UNL     1      -1.122  -2.818  25.047  0.00  0.00    -0.249 OA
ATOM     23  C   UNL     1      -2.275  -2.610  24.682  0.00  0.00    +0.328 C 
BRANCH  23   6
ATOM      6  O   UNL     1      -3.187  -3.575  24.374  0.00  0.00    -0.467 OA
ATOM     36  C   UNL     1      -4.346  -3.129  23.663  0.00  0.00    +0.280 C 
ENDBRANCH  23   6
ENDBRANCH  19  23
BRANCH  19  20
ATOM     20  C   UNL     1      -3.473  -0.673  25.798  0.00  0.00    +0.070 C 
BRANCH  20  24
ATOM     11  N   UNL     1      -6.210   1.811  26.534  0.00  0.00    -0.263 NA
ATOM     24  C   UNL     1      -4.640   0.264  25.590  0.00  0.00    -0.027 A 
ATOM     30  C   UNL     1      -5.183   0.426  24.334  0.00  0.00    +0.006 A 
ATOM     33  C   UNL     1      -5.166   0.959  26.652  0.00  0.00    +0.114 A 
ATOM     35  C   UNL     1      -6.257   1.294  24.174  0.00  0.00    +0.020 A 
ATOM     37  C   UNL     1      -6.730   1.957  25.295  0.00  0.00    +0.111 A 
ENDBRANCH  20  24
ENDBRANCH  19  20
ENDBRANCH  10  19
ENDBRANCH  12  16
TORSDOF 8
ENDMDL
MODEL 5
REMARK VINA RESULT:       9.0      3.322      7.223
REMARK  Name = 7113396
REMARK  9 active torsions:
REMARK  status: ('A' for Active; 'I' for Inactive)
REMARK    1  A    between atoms: O_6  and  C_23
REMARK    2  A    between atoms: O_6  and  C_36
REMARK    3  A    between atoms: N_10  and  C_19
REMARK    4  A    between atoms: C_12  and  C_16
REMARK    5  A    between atoms: C_17  and  C_21
REMARK    6  A    between atoms: C_18  and  C_22
REMARK    7  A    between atoms: C_19  and  C_20
REMARK    8  A    between atoms: C_19  and  C_23
REMARK    9  A    between atoms: C_20  and  C_24
REMARK                            x       y       z     vdW  Elec       q    Type
REMARK                         _______ _______ _______ _____ _____    ______ ____
ROOT
ATOM      4  O   UNL     1       1.182  -1.406  21.538  0.00  0.00    -0.269 OA
ATOM      5  O   UNL     1      -3.848   3.106  22.409  0.00  0.00    -0.270 OA
ATOM      8  N   UNL     1       0.268   0.451  22.589  0.00  0.00    -0.283 N 
ATOM      9  N   UNL     1      -1.633   2.547  22.904  0.00  0.00    -0.294 N 
ATOM     12  C   UNL     1       0.097   1.078  23.914  0.00  0.00    +0.179 C 
ATOM     13  C   UNL     1      -0.502   2.484  23.838  0.00  0.00    +0.140 C 
ATOM     14  C   UNL     1      -0.860   0.586  21.658  0.00  0.00    +0.128 C 
ATOM     15  C   UNL     1      -1.346   2.026  21.571  0.00  0.00    +0.127 C 
ATOM     17  C   UNL     1       1.335  -0.404  22.239  0.00  0.00    +0.254 C 
ATOM     18  C   UNL     1      -2.902   3.051  23.193  0.00  0.00    +0.247 C 
ENDROOT
BRANCH  18  22
ATOM      2  F   UNL     1      -1.670   3.427  27.862  0.00  0.00    -0.205 F 
ATOM     22  C   UNL     1      -3.148   3.569  24.545  0.00  0.00    +0.040 A 
ATOM     26  C   UNL     1      -2.275   3.244  25.580  0.00  0.00    +0.051 A 
ATOM     27  C   UNL     1      -4.253   4.382  24.784  0.00  0.00    +0.013 A 
ATOM     31  C   UNL     1      -2.508   3.737  26.863  0.00  0.00    +0.124 A 
ATOM     32  C   UNL     1      -4.485   4.875  26.068  0.00  0.00    +0.004 A 
ATOM     34  C   UNL     1      -3.613   4.553  27.108  0.00  0.00    +0.038 A 
ENDBRANCH  18  22
BRANCH  17  21
ATOM      1  S   UNL     1       3.559  -1.253  23.574  0.00  0.00    -0.092 S 
ATOM     21  C   UNL     1       2.658  -0.061  22.745  0.00  0.00    +0.074 A 
ATOM     25  C   UNL     1       3.328   1.134  22.653  0.00  0.00    +0.021 A 
ATOM     28  C   UNL     1       4.607   1.073  23.276  0.00  0.00    +0.008 A 
ATOM     29  C   UNL     1       4.862  -0.168  23.818  0.00  0.00    +0.046 A 
ENDBRANCH  17  21
BRANCH  12  16
ATOM      3  O   UNL     1      -0.503  -0.162  25.867  0.00  0.00    -0.274 OA
ATOM     10  N   UNL     1      -1.867  -0.294  23.985  0.00  0.00    -0.301 N 
ATOM     16  C   UNL     1      -0.776   0.152  24.711  0.00  0.00    +0.236 C 
ATOM     38  H   UNL     1      -1.994   0.015  23.026  0.00  0.00    +0.150 HD
BRANCH  10  19
ATOM     19  C   UNL     1      -2.847  -1.214  24.516  0.00  0.00    +0.186 C 
BRANCH  19  23
ATOM      7  O   UNL     1      -1.117  -2.815  25.051  0.00  0.00    -0.249 OA
ATOM     23  C   UNL     1      -2.276  -2.613  24.703  0.00  0.00    +0.328 C 
BRANCH  23   6
ATOM      6  O   UNL     1      -3.192  -3.584  24.424  0.00  0.00    -0.467 OA
ATOM     36  C   UNL     1      -4.339  -3.160  23.679  0.00  0.00    +0.280 C 
ENDBRANCH  23   6
ENDBRANCH  19  23
BRANCH  19  20
ATOM     20  C   UNL     1      -3.495  -0.680  25.803  0.00  0.00    +0.070 C 
BRANCH  20  24
ATOM     11  N   UNL     1      -6.136   1.915  26.505  0.00  0.00    -0.263 NA
ATOM     24  C   UNL     1      -4.624   0.300  25.581  0.00  0.00    -0.027 A 
ATOM     30  C   UNL     1      -5.155   0.471  24.322  0.00  0.00    +0.006 A 
ATOM     33  C   UNL     1      -5.127   1.024  26.634  0.00  0.00    +0.114 A 
ATOM     35  C   UNL     1      -6.195   1.378  24.149  0.00  0.00    +0.020 A 
ATOM     37  C   UNL     1      -6.645   2.069  25.262  0.00  0.00    +0.111 A 
ENDBRANCH  20  24
ENDBRANCH  19  20
ENDBRANCH  10  19
ENDBRANCH  12  16
TORSDOF 8
ENDMDL
MODEL 6
REMARK VINA RESULT:       9.0      3.133      7.363
REMARK  Name = 7113396
REMARK  9 active torsions:
REMARK  status: ('A' for Active; 'I' for Inactive)
REMARK    1  A    between atoms: O_6  and  C_23
REMARK    2  A    between atoms: O_6  and  C_36
REMARK    3  A    between atoms: N_10  and  C_19
REMARK    4  A    between atoms: C_12  and  C_16
REMARK    5  A    between atoms: C_17  and  C_21
REMARK    6  A    between atoms: C_18  and  C_22
REMARK    7  A    between atoms: C_19  and  C_20
REMARK    8  A    between atoms: C_19  and  C_23
REMARK    9  A    between atoms: C_20  and  C_24
REMARK                            x       y       z     vdW  Elec       q    Type
REMARK                         _______ _______ _______ _____ _____    ______ ____
ROOT
ATOM      4  O   UNL     1       2.597   2.772  27.024  0.00  0.00    -0.269 OA
ATOM      5  O   UNL     1      -2.931   3.905  23.205  0.00  0.00    -0.270 OA
ATOM      8  N   UNL     1       0.296   2.770  26.716  0.00  0.00    -0.283 N 
ATOM      9  N   UNL     1      -2.111   3.416  25.339  0.00  0.00    -0.294 N 
ATOM     12  C   UNL     1      -0.915   1.965  26.962  0.00  0.00    +0.179 C 
ATOM     13  C   UNL     1      -2.208   2.708  26.622  0.00  0.00    +0.140 C 
ATOM     14  C   UNL     1       0.333   3.514  25.449  0.00  0.00    +0.128 C 
ATOM     15  C   UNL     1      -0.952   4.296  25.221  0.00  0.00    +0.127 C 
ATOM     17  C   UNL     1       1.465   2.723  27.507  0.00  0.00    +0.254 C 
ATOM     18  C   UNL     1      -3.011   3.309  24.278  0.00  0.00    +0.247 C 
ENDROOT
BRANCH  18  22
ATOM      2  F   UNL     1      -4.988  -1.109  24.115  0.00  0.00    -0.205 F 
ATOM     22  C   UNL     1      -4.166   2.416  24.439  0.00  0.00    +0.040 A 
ATOM     26  C   UNL     1      -4.024   1.052  24.195  0.00  0.00    +0.051 A 
ATOM     27  C   UNL     1      -5.395   2.937  24.835  0.00  0.00    +0.013 A 
ATOM     31  C   UNL     1      -5.120   0.203  24.349  0.00  0.00    +0.124 A 
ATOM     32  C   UNL     1      -6.490   2.088  24.988  0.00  0.00    +0.004 A 
ATOM     34  C   UNL     1      -6.353   0.720  24.746  0.00  0.00    +0.038 A 
ENDBRANCH  18  22
BRANCH  17  21
ATOM      1  S   UNL     1       2.453   1.749  29.857  0.00  0.00    -0.092 S 
ATOM     21  C   UNL     1       1.289   2.609  28.948  0.00  0.00    +0.074 A 
ATOM     25  C   UNL     1       0.281   3.114  29.732  0.00  0.00    +0.021 A 
ATOM     28  C   UNL     1       0.465   2.788  31.107  0.00  0.00    +0.008 A 
ATOM     29  C   UNL     1       1.607   2.048  31.315  0.00  0.00    +0.046 A 
ENDBRANCH  17  21
BRANCH  12  16
ATOM      3  O   UNL     1      -1.313  -0.338  26.458  0.00  0.00    -0.274 OA
ATOM     10  N   UNL     1       0.050   0.907  25.039  0.00  0.00    -0.301 N 
ATOM     16  C   UNL     1      -0.768   0.716  26.140  0.00  0.00    +0.236 C 
ATOM     38  H   UNL     1       0.467   1.818  24.874  0.00  0.00    +0.150 HD
BRANCH  10  19
ATOM     19  C   UNL     1       0.372  -0.145  24.102  0.00  0.00    +0.186 C 
BRANCH  19  23
ATOM      7  O   UNL     1      -1.752  -0.237  22.953  0.00  0.00    -0.249 OA
ATOM     23  C   UNL     1      -0.875  -0.836  23.567  0.00  0.00    +0.328 C 
BRANCH  23   6
ATOM      6  O   UNL     1      -0.895  -2.166  23.866  0.00  0.00    -0.467 OA
ATOM     36  C   UNL     1      -2.129  -2.665  24.393  0.00  0.00    +0.280 C 
ENDBRANCH  23   6
ENDBRANCH  19  23
BRANCH  19  20
ATOM     20  C   UNL     1       1.283   0.355  22.971  0.00  0.00    +0.070 C 
BRANCH  20  24
ATOM     11  N   UNL     1       4.473  -1.466  23.812  0.00  0.00    -0.263 NA
ATOM     24  C   UNL     1       2.755   0.080  23.177  0.00  0.00    -0.027 A 
ATOM     30  C   UNL     1       3.684   1.068  22.934  0.00  0.00    +0.006 A 
ATOM     33  C   UNL     1       3.173  -1.155  23.607  0.00  0.00    +0.114 A 
ATOM     35  C   UNL     1       5.031   0.786  23.134  0.00  0.00    +0.020 A 
ATOM     37  C   UNL     1       5.371  -0.485  23.569  0.00  0.00    +0.111 A 
ENDBRANCH  20  24
ENDBRANCH  19  20
ENDBRANCH  10  19
ENDBRANCH  12  16
TORSDOF 8
ENDMDL
MODEL 7
REMARK VINA RESULT:       9.1      3.092      6.675
REMARK  Name = 7113396
REMARK  9 active torsions:
REMARK  status: ('A' for Active; 'I' for Inactive)
REMARK    1  A    between atoms: O_6  and  C_23
REMARK    2  A    between atoms: O_6  and  C_36
REMARK    3  A    between atoms: N_10  and  C_19
REMARK    4  A    between atoms: C_12  and  C_16
REMARK    5  A    between atoms: C_17  and  C_21
REMARK    6  A    between atoms: C_18  and  C_22
REMARK    7  A    between atoms: C_19  and  C_20
REMARK    8  A    between atoms: C_19  and  C_23
REMARK    9  A    between atoms: C_20  and  C_24
REMARK                            x       y       z     vdW  Elec       q    Type
REMARK                         _______ _______ _______ _____ _____    ______ ____
ROOT
ATOM      4  O   UNL     1       2.121  -2.683  25.003  0.00  0.00    -0.269 OA
ATOM      5  O   UNL     1      -4.600  -1.781  24.339  0.00  0.00    -0.270 OA
ATOM      8  N   UNL     1       0.286  -1.401  24.385  0.00  0.00    -0.283 N 
ATOM      9  N   UNL     1      -2.470  -0.967  23.822  0.00  0.00    -0.294 N 
ATOM     12  C   UNL     1      -0.257  -0.031  24.449  0.00  0.00    +0.179 C 
ATOM     13  C   UNL     1      -1.534   0.147  23.625  0.00  0.00    +0.140 C 
ATOM     14  C   UNL     1      -0.688  -2.491  24.524  0.00  0.00    +0.128 C 
ATOM     15  C   UNL     1      -1.890  -2.289  23.613  0.00  0.00    +0.127 C 
ATOM     17  C   UNL     1       1.662  -1.719  24.387  0.00  0.00    +0.254 C 
ATOM     18  C   UNL     1      -3.815  -0.848  24.177  0.00  0.00    +0.247 C 
ENDROOT
BRANCH  18  22
ATOM      2  F   UNL     1      -4.117   3.815  22.904  0.00  0.00    -0.205 F 
ATOM     22  C   UNL     1      -4.361   0.501  24.375  0.00  0.00    +0.040 A 
ATOM     26  C   UNL     1      -3.971   1.536  23.529  0.00  0.00    +0.051 A 
ATOM     27  C   UNL     1      -5.266   0.738  25.406  0.00  0.00    +0.013 A 
ATOM     31  C   UNL     1      -4.489   2.817  23.715  0.00  0.00    +0.124 A 
ATOM     32  C   UNL     1      -5.784   2.019  25.592  0.00  0.00    +0.004 A 
ATOM     34  C   UNL     1      -5.397   3.059  24.747  0.00  0.00    +0.038 A 
ENDBRANCH  18  22
BRANCH  17  21
ATOM      1  S   UNL     1       4.237  -1.005  23.831  0.00  0.00    -0.092 S 
ATOM     21  C   UNL     1       2.548  -0.851  23.623  0.00  0.00    +0.074 A 
ATOM     25  C   UNL     1       2.219   0.123  22.712  0.00  0.00    +0.021 A 
ATOM     28  C   UNL     1       3.375   0.757  22.173  0.00  0.00    +0.008 A 
ATOM     29  C   UNL     1       4.540   0.240  22.696  0.00  0.00    +0.046 A 
ENDBRANCH  17  21
BRANCH  12  16
ATOM      3  O   UNL     1      -0.947  -0.585  26.669  0.00  0.00    -0.274 OA
ATOM     10  N   UNL     1      -0.175   1.568  26.234  0.00  0.00    -0.301 N 
ATOM     16  C   UNL     1      -0.496   0.262  25.902  0.00  0.00    +0.236 C 
ATOM     38  H   UNL     1       0.177   2.196  25.518  0.00  0.00    +0.150 HD
BRANCH  10  19
ATOM     19  C   UNL     1      -0.337   2.108  27.564  0.00  0.00    +0.186 C 
BRANCH  19  23
ATOM      7  O   UNL     1       1.956   2.865  27.477  0.00  0.00    -0.249 OA
ATOM     23  C   UNL     1       0.988   2.559  28.165  0.00  0.00    +0.328 C 
BRANCH  23   6
ATOM      6  O   UNL     1       0.961   2.560  29.527  0.00  0.00    -0.467 OA
ATOM     36  C   UNL     1       2.100   1.978  30.171  0.00  0.00    +0.280 C 
ENDBRANCH  23   6
ENDBRANCH  19  23
BRANCH  19  20
ATOM     20  C   UNL     1      -1.395   3.220  27.605  0.00  0.00    +0.070 C 
BRANCH  20  24
ATOM     11  N   UNL     1      -0.595   4.622  24.199  0.00  0.00    -0.263 NA
ATOM     24  C   UNL     1      -1.515   4.026  26.332  0.00  0.00    -0.027 A 
ATOM     30  C   UNL     1      -2.593   4.861  26.139  0.00  0.00    +0.006 A 
ATOM     33  C   UNL     1      -0.549   3.929  25.360  0.00  0.00    +0.114 A 
ATOM     35  C   UNL     1      -2.675   5.591  24.959  0.00  0.00    +0.020 A 
ATOM     37  C   UNL     1      -1.660   5.437  24.029  0.00  0.00    +0.111 A 
ENDBRANCH  20  24
ENDBRANCH  19  20
ENDBRANCH  10  19
ENDBRANCH  12  16
TORSDOF 8
ENDMDL
MODEL 8
REMARK VINA RESULT:       9.8      3.221      7.939
REMARK  Name = 7113396
REMARK  9 active torsions:
REMARK  status: ('A' for Active; 'I' for Inactive)
REMARK    1  A    between atoms: O_6  and  C_23
REMARK    2  A    between atoms: O_6  and  C_36
REMARK    3  A    between atoms: N_10  and  C_19
REMARK    4  A    between atoms: C_12  and  C_16
REMARK    5  A    between atoms: C_17  and  C_21
REMARK    6  A    between atoms: C_18  and  C_22
REMARK    7  A    between atoms: C_19  and  C_20
REMARK    8  A    between atoms: C_19  and  C_23
REMARK    9  A    between atoms: C_20  and  C_24
REMARK                            x       y       z     vdW  Elec       q    Type
REMARK                         _______ _______ _______ _____ _____    ______ ____
ROOT
ATOM      4  O   UNL     1       2.382   2.903  26.094  0.00  0.00    -0.269 OA
ATOM      5  O   UNL     1      -3.576   4.920  23.475  0.00  0.00    -0.270 OA
ATOM      8  N   UNL     1       0.077   3.148  26.221  0.00  0.00    -0.283 N 
ATOM      9  N   UNL     1      -2.449   4.150  25.374  0.00  0.00    -0.294 N 
ATOM     12  C   UNL     1      -1.153   2.440  26.625  0.00  0.00    +0.179 C 
ATOM     13  C   UNL     1      -2.396   3.332  26.592  0.00  0.00    +0.140 C 
ATOM     14  C   UNL     1      -0.029   4.006  25.033  0.00  0.00    +0.128 C 
ATOM     15  C   UNL     1      -1.240   4.924  25.111  0.00  0.00    +0.127 C 
ATOM     17  C   UNL     1       1.355   2.914  26.774  0.00  0.00    +0.254 C 
ATOM     18  C   UNL     1      -3.530   4.232  24.494  0.00  0.00    +0.247 C 
ENDROOT
BRANCH  18  22
ATOM      2  F   UNL     1      -6.050   0.106  24.208  0.00  0.00    -0.205 F 
ATOM     22  C   UNL     1      -4.729   3.440  24.796  0.00  0.00    +0.040 A 
ATOM     26  C   UNL     1      -4.820   2.125  24.349  0.00  0.00    +0.051 A 
ATOM     27  C   UNL     1      -5.768   4.008  25.528  0.00  0.00    +0.013 A 
ATOM     31  C   UNL     1      -5.958   1.372  24.636  0.00  0.00    +0.124 A 
ATOM     32  C   UNL     1      -6.906   3.255  25.815  0.00  0.00    +0.004 A 
ATOM     34  C   UNL     1      -7.002   1.936  25.370  0.00  0.00    +0.038 A 
ENDBRANCH  18  22
BRANCH  17  21
ATOM      1  S   UNL     1       2.960   2.512  28.945  0.00  0.00    -0.092 S 
ATOM     21  C   UNL     1       1.426   2.676  28.210  0.00  0.00    +0.074 A 
ATOM     25  C   UNL     1       0.397   2.559  29.112  0.00  0.00    +0.021 A 
ATOM     28  C   UNL     1       0.875   2.329  30.434  0.00  0.00    +0.008 A 
ATOM     29  C   UNL     1       2.251   2.280  30.487  0.00  0.00    +0.046 A 
ENDBRANCH  17  21
BRANCH  12  16
ATOM      3  O   UNL     1      -2.222   0.472  25.789  0.00  0.00    -0.274 OA
ATOM     10  N   UNL     1      -0.261   1.207  24.773  0.00  0.00    -0.301 N 
ATOM     16  C   UNL     1      -1.293   1.270  25.694  0.00  0.00    +0.236 C 
ATOM     38  H   UNL     1       0.472   1.910  24.789  0.00  0.00    +0.150 HD
BRANCH  10  19
ATOM     19  C   UNL     1      -0.149   0.162  23.781  0.00  0.00    +0.186 C 
BRANCH  19  23
ATOM      7  O   UNL     1       1.370  -0.419  21.993  0.00  0.00    -0.249 OA
ATOM     23  C   UNL     1       1.153   0.254  22.996  0.00  0.00    +0.328 C 
BRANCH  23   6
ATOM      6  O   UNL     1       2.025   1.144  23.549  0.00  0.00    -0.467 OA
ATOM     36  C   UNL     1       3.348   1.138  23.002  0.00  0.00    +0.280 C 
ENDBRANCH  23   6
ENDBRANCH  19  23
BRANCH  19  20
ATOM     20  C   UNL     1      -0.354  -1.232  24.393  0.00  0.00    +0.070 C 
BRANCH  20  24
ATOM     11  N   UNL     1      -3.990  -1.498  23.439  0.00  0.00    -0.263 NA
ATOM     24  C   UNL     1      -1.761  -1.772  24.277  0.00  0.00    -0.027 A 
ATOM     30  C   UNL     1      -2.094  -2.969  24.872  0.00  0.00    +0.006 A 
ATOM     33  C   UNL     1      -2.715  -1.072  23.579  0.00  0.00    +0.114 A 
ATOM     35  C   UNL     1      -3.397  -3.441  24.750  0.00  0.00    +0.020 A 
ATOM     37  C   UNL     1      -4.299  -2.674  24.030  0.00  0.00    +0.111 A 
ENDBRANCH  20  24
ENDBRANCH  19  20
ENDBRANCH  10  19
ENDBRANCH  12  16
TORSDOF 8
ENDMDL
MODEL 9
REMARK VINA RESULT:      10.1      2.807      6.056
REMARK  Name = 7113396
REMARK  9 active torsions:
REMARK  status: ('A' for Active; 'I' for Inactive)
REMARK    1  A    between atoms: O_6  and  C_23
REMARK    2  A    between atoms: O_6  and  C_36
REMARK    3  A    between atoms: N_10  and  C_19
REMARK    4  A    between atoms: C_12  and  C_16
REMARK    5  A    between atoms: C_17  and  C_21
REMARK    6  A    between atoms: C_18  and  C_22
REMARK    7  A    between atoms: C_19  and  C_20
REMARK    8  A    between atoms: C_19  and  C_23
REMARK    9  A    between atoms: C_20  and  C_24
REMARK                            x       y       z     vdW  Elec       q    Type
REMARK                         _______ _______ _______ _____ _____    ______ ____
ROOT
ATOM      4  O   UNL     1       2.168  -2.005  24.943  0.00  0.00    -0.269 OA
ATOM      5  O   UNL     1      -4.627  -1.569  25.209  0.00  0.00    -0.270 OA
ATOM      8  N   UNL     1       0.160  -1.028  24.305  0.00  0.00    -0.283 N 
ATOM      9  N   UNL     1      -2.677  -0.875  24.122  0.00  0.00    -0.294 N 
ATOM     12  C   UNL     1      -0.478   0.280  24.064  0.00  0.00    +0.179 C 
ATOM     13  C   UNL     1      -1.877   0.160  23.455  0.00  0.00    +0.140 C 
ATOM     14  C   UNL     1      -0.687  -2.060  24.919  0.00  0.00    +0.128 C 
ATOM     15  C   UNL     1      -2.027  -2.179  24.208  0.00  0.00    +0.127 C 
ATOM     17  C   UNL     1       1.542  -1.285  24.164  0.00  0.00    +0.254 C 
ATOM     18  C   UNL     1      -3.956  -0.701  24.653  0.00  0.00    +0.247 C 
ENDROOT
BRANCH  18  22
ATOM      2  F   UNL     1      -3.788   3.937  23.267  0.00  0.00    -0.205 F 
ATOM     22  C   UNL     1      -4.575   0.626  24.544  0.00  0.00    +0.040 A 
ATOM     26  C   UNL     1      -3.873   1.670  23.946  0.00  0.00    +0.051 A 
ATOM     27  C   UNL     1      -5.860   0.834  25.037  0.00  0.00    +0.013 A 
ATOM     31  C   UNL     1      -4.460   2.930  23.841  0.00  0.00    +0.124 A 
ATOM     32  C   UNL     1      -6.447   2.095  24.932  0.00  0.00    +0.004 A 
ATOM     34  C   UNL     1      -5.748   3.143  24.334  0.00  0.00    +0.038 A 
ENDBRANCH  18  22
BRANCH  17  21
ATOM      1  S   UNL     1       3.781   0.005  23.288  0.00  0.00    -0.092 S 
ATOM     21  C   UNL     1       2.224  -0.654  23.042  0.00  0.00    +0.074 A 
ATOM     25  C   UNL     1       1.789  -0.502  21.748  0.00  0.00    +0.021 A 
ATOM     28  C   UNL     1       2.750   0.171  20.941  0.00  0.00    +0.008 A 
ATOM     29  C   UNL     1       3.882   0.504  21.653  0.00  0.00    +0.046 A 
ENDBRANCH  17  21
BRANCH  12  16
ATOM      3  O   UNL     1      -0.409   0.375  26.451  0.00  0.00    -0.274 OA
ATOM     10  N   UNL     1      -0.701   2.350  25.253  0.00  0.00    -0.301 N 
ATOM     16  C   UNL     1      -0.515   0.984  25.389  0.00  0.00    +0.236 C 
ATOM     38  H   UNL     1      -0.793   2.754  24.326  0.00  0.00    +0.150 HD
BRANCH  10  19
ATOM     19  C   UNL     1      -0.796   3.251  26.378  0.00  0.00    +0.186 C 
BRANCH  19  23
ATOM      7  O   UNL     1      -3.079   3.898  26.837  0.00  0.00    -0.249 OA
ATOM     23  C   UNL     1      -2.015   4.158  26.283  0.00  0.00    +0.328 C 
BRANCH  23   6
ATOM      6  O   UNL     1      -1.781   5.256  25.510  0.00  0.00    -0.467 OA
ATOM     36  C   UNL     1      -0.628   5.186  24.664  0.00  0.00    +0.280 C 
ENDBRANCH  23   6
ENDBRANCH  19  23
BRANCH  19  20
ATOM     20  C   UNL     1      -0.739   2.502  27.718  0.00  0.00    +0.070 C 
BRANCH  20  24
ATOM     11  N   UNL     1       2.947   3.042  28.291  0.00  0.00    -0.263 NA
ATOM     24  C   UNL     1       0.604   2.548  28.410  0.00  0.00    -0.027 A 
ATOM     30  C   UNL     1       0.718   2.158  29.727  0.00  0.00    +0.006 A 
ATOM     33  C   UNL     1       1.717   2.978  27.731  0.00  0.00    +0.114 A 
ATOM     35  C   UNL     1       1.966   2.210  30.337  0.00  0.00    +0.020 A 
ATOM     37  C   UNL     1       3.039   2.655  29.583  0.00  0.00    +0.111 A 
ENDBRANCH  20  24
ENDBRANCH  19  20
ENDBRANCH  10  19
ENDBRANCH  12  16
TORSDOF 8
ENDMDL
MODEL 10
REMARK VINA RESULT:      11.3      3.744      7.197
REMARK  Name = 7113396
REMARK  9 active torsions:
REMARK  status: ('A' for Active; 'I' for Inactive)
REMARK    1  A    between atoms: O_6  and  C_23
REMARK    2  A    between atoms: O_6  and  C_36
REMARK    3  A    between atoms: N_10  and  C_19
REMARK    4  A    between atoms: C_12  and  C_16
REMARK    5  A    between atoms: C_17  and  C_21
REMARK    6  A    between atoms: C_18  and  C_22
REMARK    7  A    between atoms: C_19  and  C_20
REMARK    8  A    between atoms: C_19  and  C_23
REMARK    9  A    between atoms: C_20  and  C_24
REMARK                            x       y       z     vdW  Elec       q    Type
REMARK                         _______ _______ _______ _____ _____    ______ ____
ROOT
ATOM      4  O   UNL     1       1.279  -1.590  22.011  0.00  0.00    -0.269 OA
ATOM      5  O   UNL     1      -3.955   2.767  22.238  0.00  0.00    -0.270 OA
ATOM      8  N   UNL     1       0.298   0.384  22.743  0.00  0.00    -0.283 N 
ATOM      9  N   UNL     1      -1.700   2.411  22.744  0.00  0.00    -0.294 N 
ATOM     12  C   UNL     1       0.131   1.232  23.938  0.00  0.00    +0.179 C 
ATOM     13  C   UNL     1      -0.543   2.571  23.632  0.00  0.00    +0.140 C 
ATOM     14  C   UNL     1      -0.861   0.295  21.844  0.00  0.00    +0.128 C 
ATOM     15  C   UNL     1      -1.423   1.670  21.517  0.00  0.00    +0.127 C 
ATOM     17  C   UNL     1       1.398  -0.471  22.513  0.00  0.00    +0.254 C 
ATOM     18  C   UNL     1      -2.987   2.899  22.984  0.00  0.00    +0.247 C 
ENDROOT
BRANCH  18  22
ATOM      2  F   UNL     1      -5.998   4.973  26.159  0.00  0.00    -0.205 F 
ATOM     22  C   UNL     1      -3.222   3.642  24.228  0.00  0.00    +0.040 A 
ATOM     26  C   UNL     1      -4.523   3.960  24.608  0.00  0.00    +0.051 A 
ATOM     27  C   UNL     1      -2.144   4.025  25.021  0.00  0.00    +0.013 A 
ATOM     31  C   UNL     1      -4.748   4.666  25.790  0.00  0.00    +0.124 A 
ATOM     32  C   UNL     1      -2.369   4.730  26.203  0.00  0.00    +0.004 A 
ATOM     34  C   UNL     1      -3.671   5.050  26.588  0.00  0.00    +0.038 A 
ENDBRANCH  18  22
BRANCH  17  21
ATOM      1  S   UNL     1       3.811  -1.059  23.647  0.00  0.00    -0.092 S 
ATOM     21  C   UNL     1       2.714   0.020  22.901  0.00  0.00    +0.074 A 
ATOM     25  C   UNL     1       3.239   1.280  22.751  0.00  0.00    +0.021 A 
ATOM     28  C   UNL     1       4.567   1.365  23.258  0.00  0.00    +0.008 A 
ATOM     29  C   UNL     1       5.002   0.165  23.775  0.00  0.00    +0.046 A 
ENDBRANCH  17  21
BRANCH  12  16
ATOM      3  O   UNL     1      -0.169  -0.485  25.573  0.00  0.00    -0.274 OA
ATOM     10  N   UNL     1      -1.996   0.823  24.965  0.00  0.00    -0.301 N 
ATOM     16  C   UNL     1      -0.671   0.427  24.920  0.00  0.00    +0.236 C 
ATOM     38  H   UNL     1      -2.315   1.582  24.370  0.00  0.00    +0.150 HD
BRANCH  10  19
ATOM     19  C   UNL     1      -2.982   0.192  25.812  0.00  0.00    +0.186 C 
BRANCH  19  23
ATOM      7  O   UNL     1      -4.615   0.001  24.040  0.00  0.00    -0.249 OA
ATOM     23  C   UNL     1      -4.381   0.265  25.216  0.00  0.00    +0.328 C 
BRANCH  23   6
ATOM      6  O   UNL     1      -5.309   0.668  26.129  0.00  0.00    -0.467 OA
ATOM     36  C   UNL     1      -6.347   1.517  25.627  0.00  0.00    +0.280 C 
ENDBRANCH  23   6
ENDBRANCH  19  23
BRANCH  19  20
ATOM     20  C   UNL     1      -2.587  -1.247  26.175  0.00  0.00    +0.070 C 
BRANCH  20  24
ATOM     11  N   UNL     1      -1.658  -3.538  23.330  0.00  0.00    -0.263 NA
ATOM     24  C   UNL     1      -2.720  -2.243  25.046  0.00  0.00    -0.027 A 
ATOM     30  C   UNL     1      -3.957  -2.745  24.707  0.00  0.00    +0.006 A 
ATOM     33  C   UNL     1      -1.608  -2.653  24.351  0.00  0.00    +0.114 A 
ATOM     35  C   UNL     1      -4.049  -3.658  23.663  0.00  0.00    +0.020 A 
ATOM     37  C   UNL     1      -2.881  -4.019  23.012  0.00  0.00    +0.111 A 
ENDBRANCH  20  24
ENDBRANCH  19  20
ENDBRANCH  10  19
ENDBRANCH  12  16
TORSDOF 8
ENDMDL
