MODEL 1
REMARK VINA RESULT:       6.5      0.000      0.000
REMARK  Name = 11884481
REMARK  7 active torsions:
REMARK  status: ('A' for Active; 'I' for Inactive)
REMARK    1  A    between atoms: O_4  and  C_29
REMARK    2  A    between atoms: O_4  and  C_31
REMARK    3  A    between atoms: O_5  and  C_30
REMARK    4  A    between atoms: N_9  and  C_20
REMARK    5  A    between atoms: C_19  and  C_22
REMARK    6  A    between atoms: C_25  and  C_29
REMARK    7  A    between atoms: C_26  and  C_30
REMARK                            x       y       z     vdW  Elec       q    Type
REMARK                         _______ _______ _______ _____ _____    ______ ____
ROOT
ATOM      1  O   UNL     1      -0.024  -1.041  22.604  0.00  0.00    -0.266 OA
ATOM      2  O   UNL     1      -4.905   0.656  22.767  0.00  0.00    -0.270 OA
ATOM      7  N   UNL     1      -4.517  -0.573  24.720  0.00  0.00    -0.297 N 
ATOM      8  N   UNL     1      -1.448  -1.323  24.434  0.00  0.00    -0.310 N 
ATOM     10  C   UNL     1      -3.522  -2.825  24.357  0.00  0.00    +0.027 C 
ATOM     11  C   UNL     1      -2.993  -1.571  26.408  0.00  0.00    +0.054 C 
ATOM     12  C   UNL     1      -3.303  -2.963  25.860  0.00  0.00    +0.018 C 
ATOM     13  C   UNL     1      -4.695  -1.872  24.070  0.00  0.00    +0.113 C 
ATOM     14  C   UNL     1      -2.216  -2.345  23.709  0.00  0.00    +0.130 C 
ATOM     15  C   UNL     1      -4.194  -0.637  26.155  0.00  0.00    +0.117 C 
ATOM     16  C   UNL     1      -1.749  -0.993  25.760  0.00  0.00    +0.027 A 
ATOM     17  C   UNL     1      -0.964  -0.142  26.441  0.00  0.00    +0.024 A 
ATOM     18  C   UNL     1      -0.338  -0.770  23.763  0.00  0.00    +0.273 A 
ATOM     19  C   UNL     1      -4.635   0.596  23.966  0.00  0.00    +0.247 C 
ATOM     20  C   UNL     1       0.496   0.195  24.548  0.00  0.00    +0.099 A 
ATOM     21  C   UNL     1       0.180   0.463  25.820  0.00  0.00    +0.030 A 
ENDROOT
BRANCH  19  22
ATOM     22  C   UNL     1      -4.404   1.877  24.641  0.00  0.00    +0.038 A 
ATOM     23  C   UNL     1      -3.115   2.401  24.708  0.00  0.00    +0.028 A 
ATOM     24  C   UNL     1      -5.472   2.561  25.214  0.00  0.00    +0.013 A 
ATOM     26  C   UNL     1      -2.895   3.619  25.353  0.00  0.00    +0.060 A 
ATOM     27  C   UNL     1      -5.251   3.778  25.860  0.00  0.00    +0.002 A 
ATOM     28  C   UNL     1      -3.963   4.306  25.928  0.00  0.00    +0.015 A 
BRANCH  26  30
ATOM      6  O   UNL     1      -1.216   5.291  25.023  0.00  0.00    -0.245 OA
ATOM     30  C   UNL     1      -1.551   4.172  25.424  0.00  0.00    +0.337 C 
BRANCH  30   5
ATOM      5  O   UNL     1      -0.664   3.312  25.995  0.00  0.00    -0.477 OA
ATOM     38  H   UNL     1       0.055   3.787  26.464  0.00  0.00    +0.295 HD
ENDBRANCH  30   5
ENDBRANCH  26  30
ENDBRANCH  19  22
BRANCH  20   9
ATOM      3  O   UNL     1       0.665   2.884  23.565  0.00  0.00    -0.272 OA
ATOM      9  N   UNL     1       1.568   0.765  23.928  0.00  0.00    -0.278 N 
ATOM     25  C   UNL     1       1.587   2.077  23.474  0.00  0.00    +0.255 C 
ATOM     37  H   UNL     1       2.393   0.185  23.801  0.00  0.00    +0.155 HD
BRANCH  25  29
ATOM     29  C   UNL     1       2.913   2.424  22.831  0.00  0.00    +0.324 C 
BRANCH  29   4
ATOM      4  O   UNL     1       3.451   1.304  22.162  0.00  0.00    -0.483 OA
BRANCH   4  31
ATOM     31  C   UNL     1       4.192   0.421  22.912  0.00  0.00    +0.121 A 
ATOM     32  C   UNL     1       3.744  -0.883  23.074  0.00  0.00    +0.045 A 
ATOM     33  C   UNL     1       5.376   0.847  23.497  0.00  0.00    +0.045 A 
ATOM     34  C   UNL     1       4.495  -1.778  23.835  0.00  0.00    +0.004 A 
ATOM     35  C   UNL     1       6.126  -0.048  24.258  0.00  0.00    +0.004 A 
ATOM     36  C   UNL     1       5.686  -1.360  24.428  0.00  0.00    +0.000 A 
ENDBRANCH   4  31
ENDBRANCH  29   4
ENDBRANCH  25  29
ENDBRANCH  20   9
TORSDOF 7
ENDMDL
MODEL 2
REMARK VINA RESULT:       8.7      2.133      4.837
REMARK  Name = 11884481
REMARK  7 active torsions:
REMARK  status: ('A' for Active; 'I' for Inactive)
REMARK    1  A    between atoms: O_4  and  C_29
REMARK    2  A    between atoms: O_4  and  C_31
REMARK    3  A    between atoms: O_5  and  C_30
REMARK    4  A    between atoms: N_9  and  C_20
REMARK    5  A    between atoms: C_19  and  C_22
REMARK    6  A    between atoms: C_25  and  C_29
REMARK    7  A    between atoms: C_26  and  C_30
REMARK                            x       y       z     vdW  Elec       q    Type
REMARK                         _______ _______ _______ _____ _____    ______ ____
ROOT
ATOM      1  O   UNL     1       0.646   2.432  25.482  0.00  0.00    -0.266 OA
ATOM      2  O   UNL     1      -4.084   3.061  27.476  0.00  0.00    -0.270 OA
ATOM      7  N   UNL     1      -3.981   4.297  25.491  0.00  0.00    -0.297 N 
ATOM      8  N   UNL     1      -1.081   3.591  24.417  0.00  0.00    -0.310 N 
ATOM     10  C   UNL     1      -2.013   5.808  25.301  0.00  0.00    +0.027 C 
ATOM     11  C   UNL     1      -2.976   4.795  23.275  0.00  0.00    +0.054 C 
ATOM     12  C   UNL     1      -2.368   6.077  23.843  0.00  0.00    +0.018 C 
ATOM     13  C   UNL     1      -3.271   5.423  26.099  0.00  0.00    +0.113 C 
ATOM     14  C   UNL     1      -0.938   4.714  25.355  0.00  0.00    +0.130 C 
ATOM     15  C   UNL     1      -4.261   4.444  24.053  0.00  0.00    +0.117 C 
ATOM     16  C   UNL     1      -1.996   3.641  23.360  0.00  0.00    +0.027 A 
ATOM     17  C   UNL     1      -2.029   2.655  22.448  0.00  0.00    +0.024 A 
ATOM     18  C   UNL     1      -0.187   2.514  24.578  0.00  0.00    +0.273 A 
ATOM     19  C   UNL     1      -4.314   3.190  26.274  0.00  0.00    +0.247 C 
ATOM     20  C   UNL     1      -0.275   1.422  23.556  0.00  0.00    +0.099 A 
ATOM     21  C   UNL     1      -1.151   1.524  22.550  0.00  0.00    +0.030 A 
ENDROOT
BRANCH  19  22
ATOM     22  C   UNL     1      -4.984   2.061  25.620  0.00  0.00    +0.038 A 
ATOM     23  C   UNL     1      -4.282   0.881  25.386  0.00  0.00    +0.028 A 
ATOM     24  C   UNL     1      -6.317   2.175  25.234  0.00  0.00    +0.013 A 
ATOM     26  C   UNL     1      -4.919  -0.191  24.761  0.00  0.00    +0.060 A 
ATOM     27  C   UNL     1      -6.953   1.102  24.609  0.00  0.00    +0.002 A 
ATOM     28  C   UNL     1      -6.253  -0.080  24.373  0.00  0.00    +0.015 A 
BRANCH  26  30
ATOM      6  O   UNL     1      -4.321  -2.150  23.523  0.00  0.00    -0.245 OA
ATOM     30  C   UNL     1      -4.191  -1.427  24.516  0.00  0.00    +0.337 C 
BRANCH  30   5
ATOM      5  O   UNL     1      -3.319  -1.725  25.518  0.00  0.00    -0.477 OA
ATOM     38  H   UNL     1      -2.682  -0.995  25.676  0.00  0.00    +0.295 HD
ENDBRANCH  30   5
ENDBRANCH  26  30
ENDBRANCH  19  22
BRANCH  20   9
ATOM      3  O   UNL     1      -0.767  -0.949  25.092  0.00  0.00    -0.272 OA
ATOM      9  N   UNL     1       0.562   0.354  23.687  0.00  0.00    -0.278 N 
ATOM     25  C   UNL     1       0.263  -0.769  24.448  0.00  0.00    +0.255 C 
ATOM     37  H   UNL     1       1.448   0.395  23.192  0.00  0.00    +0.155 HD
BRANCH  25  29
ATOM     29  C   UNL     1       1.384  -1.787  24.400  0.00  0.00    +0.324 C 
BRANCH  29   4
ATOM      4  O   UNL     1       2.154  -1.625  23.228  0.00  0.00    -0.483 OA
BRANCH   4  31
ATOM     31  C   UNL     1       3.330  -0.921  23.343  0.00  0.00    +0.121 A 
ATOM     32  C   UNL     1       3.429   0.343  22.778  0.00  0.00    +0.045 A 
ATOM     33  C   UNL     1       4.401  -1.486  24.021  0.00  0.00    +0.045 A 
ATOM     34  C   UNL     1       4.621   1.056  22.894  0.00  0.00    +0.004 A 
ATOM     35  C   UNL     1       5.594  -0.773  24.137  0.00  0.00    +0.004 A 
ATOM     36  C   UNL     1       5.704   0.498  23.574  0.00  0.00    +0.000 A 
ENDBRANCH   4  31
ENDBRANCH  29   4
ENDBRANCH  25  29
ENDBRANCH  20   9
TORSDOF 7
ENDMDL
MODEL 3
REMARK VINA RESULT:       8.9      1.760      4.618
REMARK  Name = 11884481
REMARK  7 active torsions:
REMARK  status: ('A' for Active; 'I' for Inactive)
REMARK    1  A    between atoms: O_4  and  C_29
REMARK    2  A    between atoms: O_4  and  C_31
REMARK    3  A    between atoms: O_5  and  C_30
REMARK    4  A    between atoms: N_9  and  C_20
REMARK    5  A    between atoms: C_19  and  C_22
REMARK    6  A    between atoms: C_25  and  C_29
REMARK    7  A    between atoms: C_26  and  C_30
REMARK                            x       y       z     vdW  Elec       q    Type
REMARK                         _______ _______ _______ _____ _____    ______ ____
ROOT
ATOM      1  O   UNL     1      -1.035   3.630  25.846  0.00  0.00    -0.266 OA
ATOM      2  O   UNL     1      -4.192  -0.172  27.368  0.00  0.00    -0.270 OA
ATOM      7  N   UNL     1      -5.342   1.113  25.787  0.00  0.00    -0.297 N 
ATOM      8  N   UNL     1      -3.138   3.222  24.915  0.00  0.00    -0.310 N 
ATOM     10  C   UNL     1      -5.319   3.565  26.216  0.00  0.00    +0.027 C 
ATOM     11  C   UNL     1      -5.392   2.730  23.902  0.00  0.00    +0.054 C 
ATOM     12  C   UNL     1      -5.935   3.804  24.842  0.00  0.00    +0.018 C 
ATOM     13  C   UNL     1      -5.696   2.167  26.739  0.00  0.00    +0.113 C 
ATOM     14  C   UNL     1      -3.799   3.753  26.116  0.00  0.00    +0.130 C 
ATOM     15  C   UNL     1      -5.814   1.336  24.410  0.00  0.00    +0.117 C 
ATOM     16  C   UNL     1      -3.880   2.802  23.805  0.00  0.00    +0.027 A 
ATOM     17  C   UNL     1      -3.255   2.430  22.676  0.00  0.00    +0.024 A 
ATOM     18  C   UNL     1      -1.730   3.253  24.901  0.00  0.00    +0.273 A 
ATOM     19  C   UNL     1      -4.589   0.020  26.220  0.00  0.00    +0.247 C 
ATOM     20  C   UNL     1      -1.070   2.805  23.633  0.00  0.00    +0.099 A 
ATOM     21  C   UNL     1      -1.822   2.431  22.591  0.00  0.00    +0.030 A 
ENDROOT
BRANCH  19  22
ATOM     22  C   UNL     1      -4.213  -0.993  25.228  0.00  0.00    +0.038 A 
ATOM     23  C   UNL     1      -2.901  -1.457  25.176  0.00  0.00    +0.028 A 
ATOM     24  C   UNL     1      -5.169  -1.483  24.342  0.00  0.00    +0.013 A 
ATOM     26  C   UNL     1      -2.544  -2.418  24.230  0.00  0.00    +0.060 A 
ATOM     27  C   UNL     1      -4.810  -2.444  23.397  0.00  0.00    +0.002 A 
ATOM     28  C   UNL     1      -3.498  -2.911  23.341  0.00  0.00    +0.015 A 
BRANCH  26  30
ATOM      6  O   UNL     1      -0.291  -2.662  24.999  0.00  0.00    -0.245 OA
ATOM     30  C   UNL     1      -1.175  -2.908  24.173  0.00  0.00    +0.337 C 
BRANCH  30   5
ATOM      5  O   UNL     1      -0.949  -3.695  23.085  0.00  0.00    -0.477 OA
ATOM     38  H   UNL     1      -1.626  -3.556  22.388  0.00  0.00    +0.295 HD
ENDBRANCH  30   5
ENDBRANCH  26  30
ENDBRANCH  19  22
BRANCH  20   9
ATOM      3  O   UNL     1       0.628   0.497  23.511  0.00  0.00    -0.272 OA
ATOM      9  N   UNL     1       0.292   2.803  23.586  0.00  0.00    -0.278 N 
ATOM     25  C   UNL     1       1.059   1.647  23.527  0.00  0.00    +0.255 C 
ATOM     37  H   UNL     1       0.758   3.707  23.593  0.00  0.00    +0.155 HD
BRANCH  25  29
ATOM     29  C   UNL     1       2.539   1.964  23.483  0.00  0.00    +0.324 C 
BRANCH  29   4
ATOM      4  O   UNL     1       3.211   1.091  22.600  0.00  0.00    -0.483 OA
BRANCH   4  31
ATOM     31  C   UNL     1       4.117   0.216  23.152  0.00  0.00    +0.121 A 
ATOM     32  C   UNL     1       3.740  -1.099  23.393  0.00  0.00    +0.045 A 
ATOM     33  C   UNL     1       5.395   0.660  23.460  0.00  0.00    +0.045 A 
ATOM     34  C   UNL     1       4.659  -1.985  23.953  0.00  0.00    +0.004 A 
ATOM     35  C   UNL     1       6.314  -0.227  24.020  0.00  0.00    +0.004 A 
ATOM     36  C   UNL     1       5.946  -1.549  24.267  0.00  0.00    +0.000 A 
ENDBRANCH   4  31
ENDBRANCH  29   4
ENDBRANCH  25  29
ENDBRANCH  20   9
TORSDOF 7
ENDMDL
MODEL 4
REMARK VINA RESULT:       9.6      2.104      6.262
REMARK  Name = 11884481
REMARK  7 active torsions:
REMARK  status: ('A' for Active; 'I' for Inactive)
REMARK    1  A    between atoms: O_4  and  C_29
REMARK    2  A    between atoms: O_4  and  C_31
REMARK    3  A    between atoms: O_5  and  C_30
REMARK    4  A    between atoms: N_9  and  C_20
REMARK    5  A    between atoms: C_19  and  C_22
REMARK    6  A    between atoms: C_25  and  C_29
REMARK    7  A    between atoms: C_26  and  C_30
REMARK                            x       y       z     vdW  Elec       q    Type
REMARK                         _______ _______ _______ _____ _____    ______ ____
ROOT
ATOM      1  O   UNL     1      -4.113   1.299  26.301  0.00  0.00    -0.266 OA
ATOM      2  O   UNL     1       0.084  -1.721  26.383  0.00  0.00    -0.270 OA
ATOM      7  N   UNL     1      -1.349  -2.546  24.729  0.00  0.00    -0.297 N 
ATOM      8  N   UNL     1      -3.713  -0.430  24.781  0.00  0.00    -0.310 N 
ATOM     10  C   UNL     1      -3.701  -2.899  25.464  0.00  0.00    +0.027 C 
ATOM     11  C   UNL     1      -3.232  -2.272  23.131  0.00  0.00    +0.054 C 
ATOM     12  C   UNL     1      -4.108  -3.155  24.018  0.00  0.00    +0.018 C 
ATOM     13  C   UNL     1      -2.216  -3.249  25.675  0.00  0.00    +0.113 C 
ATOM     14  C   UNL     1      -4.004  -1.436  25.813  0.00  0.00    +0.130 C 
ATOM     15  C   UNL     1      -1.751  -2.661  23.316  0.00  0.00    +0.117 C 
ATOM     16  C   UNL     1      -3.421  -0.804  23.466  0.00  0.00    +0.027 A 
ATOM     17  C   UNL     1      -3.271   0.132  22.514  0.00  0.00    +0.024 A 
ATOM     18  C   UNL     1      -3.841   0.921  25.161  0.00  0.00    +0.273 A 
ATOM     19  C   UNL     1      -0.256  -1.820  25.205  0.00  0.00    +0.247 C 
ATOM     20  C   UNL     1      -3.641   1.935  24.077  0.00  0.00    +0.099 A 
ATOM     21  C   UNL     1      -3.383   1.528  22.828  0.00  0.00    +0.030 A 
ENDROOT
BRANCH  19  22
ATOM     22  C   UNL     1       0.563  -1.091  24.232  0.00  0.00    +0.038 A 
ATOM     23  C   UNL     1       1.950  -1.206  24.270  0.00  0.00    +0.028 A 
ATOM     24  C   UNL     1      -0.050  -0.283  23.277  0.00  0.00    +0.013 A 
ATOM     26  C   UNL     1       2.729  -0.510  23.345  0.00  0.00    +0.060 A 
ATOM     27  C   UNL     1       0.729   0.413  22.354  0.00  0.00    +0.002 A 
ATOM     28  C   UNL     1       2.118   0.300  22.388  0.00  0.00    +0.015 A 
BRANCH  26  30
ATOM      6  O   UNL     1       4.974   0.148  22.839  0.00  0.00    -0.245 OA
ATOM     30  C   UNL     1       4.179  -0.629  23.378  0.00  0.00    +0.337 C 
BRANCH  30   5
ATOM      5  O   UNL     1       4.595  -1.715  24.086  0.00  0.00    -0.477 OA
ATOM     38  H   UNL     1       3.839  -2.252  24.408  0.00  0.00    +0.295 HD
ENDBRANCH  30   5
ENDBRANCH  26  30
ENDBRANCH  19  22
BRANCH  20   9
ATOM      3  O   UNL     1      -5.798   3.180  25.499  0.00  0.00    -0.272 OA
ATOM      9  N   UNL     1      -3.739   3.254  24.407  0.00  0.00    -0.278 N 
ATOM     25  C   UNL     1      -4.813   3.796  25.099  0.00  0.00    +0.255 C 
ATOM     37  H   UNL     1      -2.974   3.860  24.125  0.00  0.00    +0.155 HD
BRANCH  25  29
ATOM     29  C   UNL     1      -4.638   5.285  25.319  0.00  0.00    +0.324 C 
BRANCH  29   4
ATOM      4  O   UNL     1      -3.509   5.540  26.128  0.00  0.00    -0.483 OA
BRANCH   4  31
ATOM     31  C   UNL     1      -2.359   4.846  25.836  0.00  0.00    +0.121 A 
ATOM     32  C   UNL     1      -2.045   3.705  26.563  0.00  0.00    +0.045 A 
ATOM     33  C   UNL     1      -1.528   5.296  24.820  0.00  0.00    +0.045 A 
ATOM     34  C   UNL     1      -0.879   3.001  26.268  0.00  0.00    +0.004 A 
ATOM     35  C   UNL     1      -0.361   4.592  24.525  0.00  0.00    +0.004 A 
ATOM     36  C   UNL     1      -0.036   3.445  25.248  0.00  0.00    +0.000 A 
ENDBRANCH   4  31
ENDBRANCH  29   4
ENDBRANCH  25  29
ENDBRANCH  20   9
TORSDOF 7
ENDMDL
