MODEL 1
REMARK VINA RESULT:       3.8      0.000      0.000
REMARK  Name = 11879617
REMARK  8 active torsions:
REMARK  status: ('A' for Active; 'I' for Inactive)
REMARK    1  A    between atoms: S_1  and  N_8
REMARK    2  A    between atoms: S_1  and  C_22
REMARK    3  A    between atoms: O_4  and  C_21
REMARK    4  A    between atoms: O_4  and  C_25
REMARK    5  A    between atoms: N_8  and  C_17
REMARK    6  A    between atoms: N_9  and  C_18
REMARK    7  A    between atoms: N_13  and  C_28
REMARK    8  A    between atoms: C_23  and  C_37
REMARK                            x       y       z     vdW  Elec       q    Type
REMARK                         _______ _______ _______ _____ _____    ______ ____
ROOT
ATOM      2  O   UNL     1      -4.908   2.737  26.360  0.00  0.00    -0.370 OA
ATOM      3  O   UNL     1      -4.343   2.944  23.260  0.00  0.00    -0.370 OA
ATOM     15  C   UNL     1      -4.024   1.985  24.281  0.00  0.00    +0.170 C 
ATOM     16  C   UNL     1      -3.716   2.752  25.553  0.00  0.00    +0.175 C 
ATOM     17  C   UNL     1      -5.246   1.165  24.623  0.00  0.00    +0.133 C 
ATOM     18  C   UNL     1      -3.424   4.167  25.091  0.00  0.00    +0.171 C 
ATOM     19  C   UNL     1      -5.936   2.009  25.675  0.00  0.00    +0.183 C 
ATOM     20  C   UNL     1      -4.206   4.270  23.788  0.00  0.00    +0.190 C 
ENDROOT
BRANCH  18   9
ATOM      9  N   UNL     1      -1.987   4.434  24.975  0.00  0.00    -0.187 N 
ATOM     10  N   UNL     1      -1.523   5.686  24.946  0.00  0.00    -0.041 NA
ATOM     11  N   UNL     1       0.156   4.226  24.796  0.00  0.00    -0.071 NA
ATOM     12  N   UNL     1      -0.206   5.554  24.836  0.00  0.00    -0.020 NA
ATOM     21  C   UNL     1      -0.966   3.550  24.884  0.00  0.00    +0.342 A 
BRANCH  21   4
ATOM      4  O   UNL     1      -1.097   2.237  24.883  0.00  0.00    -0.423 OA
BRANCH   4  25
ATOM     25  C   UNL     1      -0.436   1.421  23.976  0.00  0.00    +0.134 A 
ATOM     28  C   UNL     1       1.588   0.396  23.214  0.00  0.00    +0.033 A 
ATOM     29  C   UNL     1       0.923   1.215  24.126  0.00  0.00    +0.069 A 
ATOM     32  C   UNL     1      -1.154   0.838  22.951  0.00  0.00    +0.046 A 
ATOM     36  C   UNL     1       0.882  -0.204  22.170  0.00  0.00    +0.023 A 
ATOM     38  C   UNL     1      -0.489   0.017  22.039  0.00  0.00    +0.005 A 
BRANCH  28  13
ATOM      7  O   UNL     1       5.715  -0.393  23.362  0.00  0.00    -0.377 OA
ATOM     13  N   UNL     1       2.962   0.174  23.346  0.00  0.00    -0.325 N 
ATOM     30  C   UNL     1       3.435  -1.214  23.448  0.00  0.00    +0.133 C 
ATOM     31  C   UNL     1       3.917   1.115  22.749  0.00  0.00    +0.133 C 
ATOM     34  C   UNL     1       4.821  -1.242  24.083  0.00  0.00    +0.178 C 
ATOM     35  C   UNL     1       5.277   0.963  23.420  0.00  0.00    +0.178 C 
ENDBRANCH  28  13
ENDBRANCH   4  25
ENDBRANCH  21   4
ENDBRANCH  18   9
BRANCH  17   8
ATOM      8  N   UNL     1      -4.833  -0.131  25.214  0.00  0.00    -0.182 NA
ATOM     39  H   UNL     1      -4.792  -0.196  26.238  0.00  0.00    +0.148 HD
BRANCH   8   1
ATOM      1  S   UNL     1      -4.086  -1.303  24.240  0.00  0.00    +0.060 S 
ATOM      5  O   UNL     1      -3.890  -0.768  22.906  0.00  0.00    -0.153 OA
ATOM      6  O   UNL     1      -4.770  -2.569  24.425  0.00  0.00    -0.153 OA
BRANCH   1  22
ATOM     22  C   UNL     1      -2.500  -1.457  25.005  0.00  0.00    +0.123 A 
ATOM     23  C   UNL     1      -1.601  -2.435  24.608  0.00  0.00    +0.078 A 
ATOM     24  C   UNL     1      -2.186  -0.563  26.020  0.00  0.00    +0.030 A 
ATOM     26  C   UNL     1      -0.359  -2.521  25.238  0.00  0.00    +0.021 A 
ATOM     27  C   UNL     1      -0.945  -0.650  26.650  0.00  0.00    +0.002 A 
ATOM     33  C   UNL     1      -0.032  -1.630  26.260  0.00  0.00    +0.001 A 
BRANCH  23  37
ATOM     14  N   UNL     1      -2.149  -4.122  22.720  0.00  0.00    -0.191 NA
ATOM     37  C   UNL     1      -1.903  -3.367  23.565  0.00  0.00    +0.101 C 
ENDBRANCH  23  37
ENDBRANCH   1  22
ENDBRANCH   8   1
ENDBRANCH  17   8
TORSDOF 8
ENDMDL
MODEL 2
REMARK VINA RESULT:       5.1      1.272      1.967
REMARK  Name = 11879617
REMARK  8 active torsions:
REMARK  status: ('A' for Active; 'I' for Inactive)
REMARK    1  A    between atoms: S_1  and  N_8
REMARK    2  A    between atoms: S_1  and  C_22
REMARK    3  A    between atoms: O_4  and  C_21
REMARK    4  A    between atoms: O_4  and  C_25
REMARK    5  A    between atoms: N_8  and  C_17
REMARK    6  A    between atoms: N_9  and  C_18
REMARK    7  A    between atoms: N_13  and  C_28
REMARK    8  A    between atoms: C_23  and  C_37
REMARK                            x       y       z     vdW  Elec       q    Type
REMARK                         _______ _______ _______ _____ _____    ______ ____
ROOT
ATOM      2  O   UNL     1      -5.170   2.972  25.870  0.00  0.00    -0.370 OA
ATOM      3  O   UNL     1      -3.830   2.087  23.151  0.00  0.00    -0.370 OA
ATOM     15  C   UNL     1      -3.797   1.592  24.499  0.00  0.00    +0.170 C 
ATOM     16  C   UNL     1      -3.812   2.790  25.429  0.00  0.00    +0.175 C 
ATOM     17  C   UNL     1      -5.077   0.855  24.813  0.00  0.00    +0.133 C 
ATOM     18  C   UNL     1      -3.391   3.960  24.561  0.00  0.00    +0.171 C 
ATOM     19  C   UNL     1      -6.000   1.964  25.277  0.00  0.00    +0.183 C 
ATOM     20  C   UNL     1      -3.812   3.521  23.165  0.00  0.00    +0.190 C 
ENDROOT
BRANCH  18   9
ATOM      9  N   UNL     1      -1.968   4.283  24.707  0.00  0.00    -0.187 N 
ATOM     10  N   UNL     1      -1.550   5.552  24.715  0.00  0.00    -0.041 NA
ATOM     11  N   UNL     1       0.177   4.160  24.942  0.00  0.00    -0.071 NA
ATOM     12  N   UNL     1      -0.233   5.472  24.860  0.00  0.00    -0.020 NA
ATOM     21  C   UNL     1      -0.918   3.440  24.845  0.00  0.00    +0.342 A 
BRANCH  21   4
ATOM      4  O   UNL     1      -1.001   2.124  24.872  0.00  0.00    -0.423 OA
BRANCH   4  25
ATOM     25  C   UNL     1      -0.314   1.313  23.979  0.00  0.00    +0.134 A 
ATOM     28  C   UNL     1       1.741   0.343  23.231  0.00  0.00    +0.033 A 
ATOM     29  C   UNL     1       1.051   1.156  24.129  0.00  0.00    +0.069 A 
ATOM     32  C   UNL     1      -1.015   0.687  22.967  0.00  0.00    +0.046 A 
ATOM     36  C   UNL     1       1.053  -0.300  22.200  0.00  0.00    +0.023 A 
ATOM     38  C   UNL     1      -0.324  -0.128  22.069  0.00  0.00    +0.005 A 
BRANCH  28  13
ATOM      7  O   UNL     1       5.893  -0.303  23.381  0.00  0.00    -0.377 OA
ATOM     13  N   UNL     1       3.123   0.170  23.362  0.00  0.00    -0.325 N 
ATOM     30  C   UNL     1       3.642  -1.199  23.487  0.00  0.00    +0.133 C 
ATOM     31  C   UNL     1       4.043   1.132  22.746  0.00  0.00    +0.133 C 
ATOM     34  C   UNL     1       5.029  -1.168  24.119  0.00  0.00    +0.178 C 
ATOM     35  C   UNL     1       5.409   1.039  23.415  0.00  0.00    +0.178 C 
ENDBRANCH  28  13
ENDBRANCH   4  25
ENDBRANCH  21   4
ENDBRANCH  18   9
BRANCH  17   8
ATOM      8  N   UNL     1      -4.849  -0.100  25.924  0.00  0.00    -0.182 NA
ATOM     39  H   UNL     1      -5.558  -0.148  26.666  0.00  0.00    +0.148 HD
BRANCH   8   1
ATOM      1  S   UNL     1      -3.309  -0.775  26.153  0.00  0.00    +0.060 S 
ATOM      5  O   UNL     1      -3.267  -1.465  27.428  0.00  0.00    -0.153 OA
ATOM      6  O   UNL     1      -2.308   0.225  25.831  0.00  0.00    -0.153 OA
BRANCH   1  22
ATOM     22  C   UNL     1      -3.250  -1.994  24.873  0.00  0.00    +0.123 A 
ATOM     23  C   UNL     1      -2.054  -2.587  24.498  0.00  0.00    +0.078 A 
ATOM     24  C   UNL     1      -4.445  -2.334  24.254  0.00  0.00    +0.030 A 
ATOM     26  C   UNL     1      -2.053  -3.544  23.482  0.00  0.00    +0.021 A 
ATOM     27  C   UNL     1      -4.443  -3.291  23.239  0.00  0.00    +0.002 A 
ATOM     33  C   UNL     1      -3.247  -3.895  22.852  0.00  0.00    +0.001 A 
BRANCH  23  37
ATOM     14  N   UNL     1       0.198  -1.979  25.625  0.00  0.00    -0.191 NA
ATOM     37  C   UNL     1      -0.811  -2.251  25.121  0.00  0.00    +0.101 C 
ENDBRANCH  23  37
ENDBRANCH   1  22
ENDBRANCH   8   1
ENDBRANCH  17   8
TORSDOF 8
ENDMDL
MODEL 3
REMARK VINA RESULT:       7.0      2.641      5.775
REMARK  Name = 11879617
REMARK  8 active torsions:
REMARK  status: ('A' for Active; 'I' for Inactive)
REMARK    1  A    between atoms: S_1  and  N_8
REMARK    2  A    between atoms: S_1  and  C_22
REMARK    3  A    between atoms: O_4  and  C_21
REMARK    4  A    between atoms: O_4  and  C_25
REMARK    5  A    between atoms: N_8  and  C_17
REMARK    6  A    between atoms: N_9  and  C_18
REMARK    7  A    between atoms: N_13  and  C_28
REMARK    8  A    between atoms: C_23  and  C_37
REMARK                            x       y       z     vdW  Elec       q    Type
REMARK                         _______ _______ _______ _____ _____    ______ ____
ROOT
ATOM      2  O   UNL     1      -2.283  -2.788  23.886  0.00  0.00    -0.370 OA
ATOM      3  O   UNL     1      -1.098  -0.995  26.200  0.00  0.00    -0.370 OA
ATOM     15  C   UNL     1      -2.012  -0.767  25.116  0.00  0.00    +0.170 C 
ATOM     16  C   UNL     1      -1.521  -1.567  23.924  0.00  0.00    +0.175 C 
ATOM     17  C   UNL     1      -3.362  -1.364  25.439  0.00  0.00    +0.133 C 
ATOM     18  C   UNL     1      -0.069  -1.876  24.236  0.00  0.00    +0.171 C 
ATOM     19  C   UNL     1      -3.218  -2.798  24.973  0.00  0.00    +0.183 C 
ATOM     20  C   UNL     1      -0.032  -1.847  25.758  0.00  0.00    +0.190 C 
ENDROOT
BRANCH  18   9
ATOM      9  N   UNL     1       0.855  -0.950  23.575  0.00  0.00    -0.187 N 
ATOM     10  N   UNL     1       2.057  -1.361  23.160  0.00  0.00    -0.041 NA
ATOM     11  N   UNL     1       1.767   0.801  22.696  0.00  0.00    -0.071 NA
ATOM     12  N   UNL     1       2.613  -0.282  22.620  0.00  0.00    -0.020 NA
ATOM     21  C   UNL     1       0.682   0.363  23.292  0.00  0.00    +0.342 A 
BRANCH  21   4
ATOM      4  O   UNL     1      -0.399   1.063  23.578  0.00  0.00    -0.423 OA
BRANCH   4  25
ATOM     25  C   UNL     1      -0.394   2.102  24.499  0.00  0.00    +0.134 A 
ATOM     28  C   UNL     1       0.281   2.976  26.621  0.00  0.00    +0.033 A 
ATOM     29  C   UNL     1       0.277   1.933  25.696  0.00  0.00    +0.069 A 
ATOM     32  C   UNL     1      -1.060   3.272  24.193  0.00  0.00    +0.046 A 
ATOM     36  C   UNL     1      -0.385   4.168  26.333  0.00  0.00    +0.023 A 
ATOM     38  C   UNL     1      -1.055   4.316  25.119  0.00  0.00    +0.005 A 
BRANCH  28  13
ATOM      7  O   UNL     1       2.317   2.260  30.230  0.00  0.00    -0.377 OA
ATOM     13  N   UNL     1       0.953   2.828  27.839  0.00  0.00    -0.325 N 
ATOM     30  C   UNL     1       0.294   2.064  28.907  0.00  0.00    +0.133 C 
ATOM     31  C   UNL     1       2.419   2.801  27.867  0.00  0.00    +0.133 C 
ATOM     34  C   UNL     1       0.900   2.435  30.256  0.00  0.00    +0.178 C 
ATOM     35  C   UNL     1       2.913   3.132  29.271  0.00  0.00    +0.178 C 
ENDBRANCH  28  13
ENDBRANCH   4  25
ENDBRANCH  21   4
ENDBRANCH  18   9
BRANCH  17   8
ATOM      8  N   UNL     1      -4.415  -0.685  24.646  0.00  0.00    -0.182 NA
ATOM     39  H   UNL     1      -4.602  -1.039  23.700  0.00  0.00    +0.148 HD
BRANCH   8   1
ATOM      1  S   UNL     1      -4.986   0.838  25.130  0.00  0.00    +0.060 S 
ATOM      5  O   UNL     1      -4.384   1.199  26.400  0.00  0.00    -0.153 OA
ATOM      6  O   UNL     1      -6.428   0.868  24.971  0.00  0.00    -0.153 OA
BRANCH   1  22
ATOM     22  C   UNL     1      -4.308   1.895  23.886  0.00  0.00    +0.123 A 
ATOM     23  C   UNL     1      -4.484   3.270  23.935  0.00  0.00    +0.078 A 
ATOM     24  C   UNL     1      -3.594   1.300  22.855  0.00  0.00    +0.030 A 
ATOM     26  C   UNL     1      -3.932   4.068  22.932  0.00  0.00    +0.021 A 
ATOM     27  C   UNL     1      -3.043   2.098  21.853  0.00  0.00    +0.002 A 
ATOM     33  C   UNL     1      -3.212   3.482  21.891  0.00  0.00    +0.001 A 
BRANCH  23  37
ATOM     14  N   UNL     1      -5.811   4.421  25.839  0.00  0.00    -0.191 NA
ATOM     37  C   UNL     1      -5.217   3.905  24.987  0.00  0.00    +0.101 C 
ENDBRANCH  23  37
ENDBRANCH   1  22
ENDBRANCH   8   1
ENDBRANCH  17   8
TORSDOF 8
ENDMDL
MODEL 4
REMARK VINA RESULT:       7.6      2.346      6.961
REMARK  Name = 11879617
REMARK  8 active torsions:
REMARK  status: ('A' for Active; 'I' for Inactive)
REMARK    1  A    between atoms: S_1  and  N_8
REMARK    2  A    between atoms: S_1  and  C_22
REMARK    3  A    between atoms: O_4  and  C_21
REMARK    4  A    between atoms: O_4  and  C_25
REMARK    5  A    between atoms: N_8  and  C_17
REMARK    6  A    between atoms: N_9  and  C_18
REMARK    7  A    between atoms: N_13  and  C_28
REMARK    8  A    between atoms: C_23  and  C_37
REMARK                            x       y       z     vdW  Elec       q    Type
REMARK                         _______ _______ _______ _____ _____    ______ ____
ROOT
ATOM      2  O   UNL     1      -1.378   2.071  23.726  0.00  0.00    -0.370 OA
ATOM      3  O   UNL     1      -0.364   0.071  25.951  0.00  0.00    -0.370 OA
ATOM     15  C   UNL     1      -0.103   0.235  24.548  0.00  0.00    +0.170 C 
ATOM     16  C   UNL     1      -1.404   0.640  23.881  0.00  0.00    +0.175 C 
ATOM     17  C   UNL     1       0.816   1.413  24.325  0.00  0.00    +0.133 C 
ATOM     18  C   UNL     1      -2.484   0.248  24.871  0.00  0.00    +0.171 C 
ATOM     19  C   UNL     1      -0.145   2.582  24.249  0.00  0.00    +0.183 C 
ATOM     20  C   UNL     1      -1.757   0.295  26.209  0.00  0.00    +0.190 C 
ENDROOT
BRANCH  18   9
ATOM      9  N   UNL     1      -3.103  -1.040  24.546  0.00  0.00    -0.187 N 
ATOM     10  N   UNL     1      -2.412  -2.179  24.654  0.00  0.00    -0.041 NA
ATOM     11  N   UNL     1      -4.487  -2.588  23.947  0.00  0.00    -0.071 NA
ATOM     12  N   UNL     1      -3.266  -3.127  24.286  0.00  0.00    -0.020 NA
ATOM     21  C   UNL     1      -4.362  -1.292  24.116  0.00  0.00    +0.342 A 
BRANCH  21   4
ATOM      4  O   UNL     1      -5.289  -0.376  23.908  0.00  0.00    -0.423 OA
BRANCH   4  25
ATOM     25  C   UNL     1      -5.366   0.791  24.654  0.00  0.00    +0.134 A 
ATOM     28  C   UNL     1      -4.485   2.943  25.221  0.00  0.00    +0.033 A 
ATOM     29  C   UNL     1      -4.408   1.770  24.470  0.00  0.00    +0.069 A 
ATOM     32  C   UNL     1      -6.398   0.941  25.559  0.00  0.00    +0.046 A 
ATOM     36  C   UNL     1      -5.520   3.116  26.141  0.00  0.00    +0.023 A 
ATOM     38  C   UNL     1      -6.477   2.115  26.309  0.00  0.00    +0.005 A 
BRANCH  28  13
ATOM      7  O   UNL     1      -1.771   6.132  24.847  0.00  0.00    -0.377 OA
ATOM     13  N   UNL     1      -3.526   3.947  25.051  0.00  0.00    -0.325 N 
ATOM     30  C   UNL     1      -3.868   5.097  24.203  0.00  0.00    +0.133 C 
ATOM     31  C   UNL     1      -2.561   4.226  26.121  0.00  0.00    +0.133 C 
ATOM     34  C   UNL     1      -2.592   5.786  23.731  0.00  0.00    +0.178 C 
ATOM     35  C   UNL     1      -1.356   4.961  25.548  0.00  0.00    +0.178 C 
ENDBRANCH  28  13
ENDBRANCH   4  25
ENDBRANCH  21   4
ENDBRANCH  18   9
BRANCH  17   8
ATOM      8  N   UNL     1       1.522   1.263  23.029  0.00  0.00    -0.182 NA
ATOM     39  H   UNL     1       1.522   2.068  22.390  0.00  0.00    +0.148 HD
BRANCH   8   1
ATOM      1  S   UNL     1       1.949  -0.283  22.475  0.00  0.00    +0.060 S 
ATOM      5  O   UNL     1       2.053  -0.267  21.028  0.00  0.00    -0.153 OA
ATOM      6  O   UNL     1       1.108  -1.264  23.135  0.00  0.00    -0.153 OA
BRANCH   1  22
ATOM     22  C   UNL     1       3.577  -0.471  23.137  0.00  0.00    +0.123 A 
ATOM     23  C   UNL     1       4.498   0.564  23.089  0.00  0.00    +0.078 A 
ATOM     24  C   UNL     1       3.903  -1.695  23.706  0.00  0.00    +0.030 A 
ATOM     26  C   UNL     1       5.773   0.373  23.623  0.00  0.00    +0.021 A 
ATOM     27  C   UNL     1       5.177  -1.885  24.239  0.00  0.00    +0.002 A 
ATOM     33  C   UNL     1       6.113  -0.852  24.197  0.00  0.00    +0.001 A 
BRANCH  23  37
ATOM     14  N   UNL     1       3.930   2.861  22.035  0.00  0.00    -0.191 NA
ATOM     37  C   UNL     1       4.185   1.833  22.507  0.00  0.00    +0.101 C 
ENDBRANCH  23  37
ENDBRANCH   1  22
ENDBRANCH   8   1
ENDBRANCH  17   8
TORSDOF 8
ENDMDL
