MODEL 1
REMARK VINA RESULT:      -6.2      0.000      0.000
REMARK  Name = 75536627
REMARK  7 active torsions:
REMARK  status: ('A' for Active; 'I' for Inactive)
REMARK    1  A    between atoms: O_2  and  C_8
REMARK    2  A    between atoms: N_4  and  C_7
REMARK    3  A    between atoms: N_4  and  C_12
REMARK    4  A    between atoms: N_5  and  C_11
REMARK    5  A    between atoms: C_9  and  C_11
REMARK    6  A    between atoms: C_12  and  C_13
REMARK    7  A    between atoms: C_14  and  C_17
REMARK                            x       y       z     vdW  Elec       q    Type
REMARK                         _______ _______ _______ _____ _____    ______ ____
ROOT
ATOM      1  O   UNL     1      -4.226   3.667  26.797  0.00  0.00    -0.371 OA
ATOM      7  C   UNL     1      -2.423   4.398  25.434  0.00  0.00    +0.111 C 
ATOM      8  C   UNL     1      -3.496   3.787  24.551  0.00  0.00    +0.164 C 
ATOM      9  C   UNL     1      -4.712   3.878  25.462  0.00  0.00    +0.165 C 
ATOM     10  C   UNL     1      -2.797   3.834  26.795  0.00  0.00    +0.181 C 
ENDROOT
BRANCH   8   2
ATOM      2  O   UNL     1      -3.683   4.504  23.347  0.00  0.00    -0.388 OA
ATOM     26  H   UNL     1      -3.228   5.360  23.425  0.00  0.00    +0.210 HD
ENDBRANCH   8   2
BRANCH   7   4
ATOM      4  N   UNL     1      -1.069   4.055  25.031  0.00  0.00    -0.305 NA
ATOM     25  H   UNL     1      -0.474   4.877  25.131  0.00  0.00    +0.123 HD
BRANCH   4  12
ATOM     12  C   UNL     1      -0.532   2.981  25.858  0.00  0.00    +0.118 C 
BRANCH  12  13
ATOM      6  N   UNL     1       0.992   0.792  23.170  0.00  0.00    -0.263 NA
ATOM     13  C   UNL     1      -0.194   1.761  25.041  0.00  0.00    -0.015 A 
ATOM     15  C   UNL     1      -0.718   0.515  25.364  0.00  0.00    +0.008 A 
ATOM     16  C   UNL     1       0.648   1.845  23.945  0.00  0.00    +0.115 A 
ATOM     18  C   UNL     1      -0.389  -0.593  24.591  0.00  0.00    +0.020 A 
ATOM     21  C   UNL     1       0.462  -0.404  23.515  0.00  0.00    +0.111 A 
ENDBRANCH  12  13
ENDBRANCH   4  12
ENDBRANCH   7   4
BRANCH   9  11
ATOM     11  C   UNL     1      -5.783   2.853  25.137  0.00  0.00    +0.138 C 
BRANCH  11   5
ATOM      3  O   UNL     1      -4.037   1.446  23.344  0.00  0.00    -0.270 OA
ATOM      5  N   UNL     1      -5.291   1.515  25.295  0.00  0.00    -0.309 N 
ATOM     14  C   UNL     1      -4.444   0.909  24.372  0.00  0.00    +0.244 C 
ATOM     27  H   UNL     1      -5.647   0.990  26.088  0.00  0.00    +0.149 HD
BRANCH  14  17
ATOM     17  C   UNL     1      -4.045  -0.490  24.667  0.00  0.00    +0.037 A 
ATOM     19  C   UNL     1      -3.590  -0.833  25.940  0.00  0.00    +0.013 A 
ATOM     20  C   UNL     1      -4.126  -1.463  23.671  0.00  0.00    +0.013 A 
ATOM     22  C   UNL     1      -3.216  -2.149  26.218  0.00  0.00    +0.001 A 
ATOM     23  C   UNL     1      -3.754  -2.778  23.947  0.00  0.00    +0.001 A 
ATOM     24  C   UNL     1      -3.299  -3.121  25.221  0.00  0.00    +0.000 A 
ENDBRANCH  14  17
ENDBRANCH  11   5
ENDBRANCH   9  11
TORSDOF 7
ENDMDL
MODEL 2
REMARK VINA RESULT:      -5.7      2.038      4.647
REMARK  Name = 75536627
REMARK  7 active torsions:
REMARK  status: ('A' for Active; 'I' for Inactive)
REMARK    1  A    between atoms: O_2  and  C_8
REMARK    2  A    between atoms: N_4  and  C_7
REMARK    3  A    between atoms: N_4  and  C_12
REMARK    4  A    between atoms: N_5  and  C_11
REMARK    5  A    between atoms: C_9  and  C_11
REMARK    6  A    between atoms: C_12  and  C_13
REMARK    7  A    between atoms: C_14  and  C_17
REMARK                            x       y       z     vdW  Elec       q    Type
REMARK                         _______ _______ _______ _____ _____    ______ ____
ROOT
ATOM      1  O   UNL     1       0.428   3.339  23.514  0.00  0.00    -0.371 OA
ATOM      7  C   UNL     1      -0.785   3.910  25.476  0.00  0.00    +0.111 C 
ATOM      8  C   UNL     1      -0.499   2.419  25.486  0.00  0.00    +0.164 C 
ATOM      9  C   UNL     1       0.671   2.338  24.516  0.00  0.00    +0.165 C 
ATOM     10  C   UNL     1      -0.574   4.246  24.009  0.00  0.00    +0.181 C 
ENDROOT
BRANCH   8   2
ATOM      2  O   UNL     1      -0.154   1.939  26.771  0.00  0.00    -0.388 OA
ATOM     26  H   UNL     1       0.810   1.815  26.803  0.00  0.00    +0.210 HD
ENDBRANCH   8   2
BRANCH   7   4
ATOM      4  N   UNL     1      -2.116   4.253  25.950  0.00  0.00    -0.305 NA
ATOM     25  H   UNL     1      -2.085   5.174  26.387  0.00  0.00    +0.123 HD
BRANCH   4  12
ATOM     12  C   UNL     1      -3.072   4.284  24.851  0.00  0.00    +0.118 C 
BRANCH  12  13
ATOM      6  N   UNL     1      -6.019   2.686  26.610  0.00  0.00    -0.263 NA
ATOM     13  C   UNL     1      -4.257   3.392  25.113  0.00  0.00    -0.015 A 
ATOM     15  C   UNL     1      -4.689   2.476  24.161  0.00  0.00    +0.008 A 
ATOM     16  C   UNL     1      -4.950   3.458  26.311  0.00  0.00    +0.115 A 
ATOM     18  C   UNL     1      -5.785   1.665  24.432  0.00  0.00    +0.020 A 
ATOM     21  C   UNL     1      -6.410   1.808  25.660  0.00  0.00    +0.111 A 
ENDBRANCH  12  13
ENDBRANCH   4  12
ENDBRANCH   7   4
BRANCH   9  11
ATOM     11  C   UNL     1       0.813   0.977  23.858  0.00  0.00    +0.138 C 
BRANCH  11   5
ATOM      3  O   UNL     1       0.125  -1.411  25.295  0.00  0.00    -0.270 OA
ATOM      5  N   UNL     1      -0.442   0.284  23.817  0.00  0.00    -0.309 N 
ATOM     14  C   UNL     1      -0.689  -0.873  24.550  0.00  0.00    +0.244 C 
ATOM     27  H   UNL     1      -1.135   0.637  23.165  0.00  0.00    +0.149 HD
BRANCH  14  17
ATOM     17  C   UNL     1      -2.030  -1.486  24.377  0.00  0.00    +0.037 A 
ATOM     19  C   UNL     1      -3.137  -0.681  24.107  0.00  0.00    +0.013 A 
ATOM     20  C   UNL     1      -2.184  -2.868  24.482  0.00  0.00    +0.013 A 
ATOM     22  C   UNL     1      -4.397  -1.257  23.942  0.00  0.00    +0.001 A 
ATOM     23  C   UNL     1      -3.442  -3.445  24.317  0.00  0.00    +0.001 A 
ATOM     24  C   UNL     1      -4.549  -2.640  24.047  0.00  0.00    +0.000 A 
ENDBRANCH  14  17
ENDBRANCH  11   5
ENDBRANCH   9  11
TORSDOF 7
ENDMDL
MODEL 3
REMARK VINA RESULT:      -5.7      1.961      4.865
REMARK  Name = 75536627
REMARK  7 active torsions:
REMARK  status: ('A' for Active; 'I' for Inactive)
REMARK    1  A    between atoms: O_2  and  C_8
REMARK    2  A    between atoms: N_4  and  C_7
REMARK    3  A    between atoms: N_4  and  C_12
REMARK    4  A    between atoms: N_5  and  C_11
REMARK    5  A    between atoms: C_9  and  C_11
REMARK    6  A    between atoms: C_12  and  C_13
REMARK    7  A    between atoms: C_14  and  C_17
REMARK                            x       y       z     vdW  Elec       q    Type
REMARK                         _______ _______ _______ _____ _____    ______ ____
ROOT
ATOM      1  O   UNL     1      -1.676  -2.566  23.838  0.00  0.00    -0.371 OA
ATOM      7  C   UNL     1      -0.040  -1.022  24.604  0.00  0.00    +0.111 C 
ATOM      8  C   UNL     1      -1.271  -0.919  25.487  0.00  0.00    +0.164 C 
ATOM      9  C   UNL     1      -1.938  -2.261  25.218  0.00  0.00    +0.165 C 
ATOM     10  C   UNL     1      -0.608  -1.719  23.378  0.00  0.00    +0.181 C 
ENDROOT
BRANCH   8   2
ATOM      2  O   UNL     1      -0.947  -0.755  26.854  0.00  0.00    -0.388 OA
ATOM     26  H   UNL     1      -0.395  -1.506  27.131  0.00  0.00    +0.210 HD
ENDBRANCH   8   2
BRANCH   7   4
ATOM      4  N   UNL     1       0.567   0.262  24.294  0.00  0.00    -0.305 NA
ATOM     25  H   UNL     1       1.415   0.105  23.750  0.00  0.00    +0.123 HD
BRANCH   4  12
ATOM     12  C   UNL     1      -0.342   1.100  23.522  0.00  0.00    +0.118 C 
BRANCH  12  13
ATOM      6  N   UNL     1      -0.596   4.799  24.286  0.00  0.00    -0.263 NA
ATOM     13  C   UNL     1      -0.667   2.383  24.239  0.00  0.00    -0.015 A 
ATOM     15  C   UNL     1      -1.313   2.371  25.471  0.00  0.00    +0.008 A 
ATOM     16  C   UNL     1      -0.334   3.612  23.694  0.00  0.00    +0.115 A 
ATOM     18  C   UNL     1      -1.600   3.572  26.111  0.00  0.00    +0.020 A 
ATOM     21  C   UNL     1      -1.224   4.748  25.482  0.00  0.00    +0.111 A 
ENDBRANCH  12  13
ENDBRANCH   4  12
ENDBRANCH   7   4
BRANCH   9  11
ATOM     11  C   UNL     1      -3.436  -2.246  25.465  0.00  0.00    +0.138 C 
BRANCH  11   5
ATOM      3  O   UNL     1      -3.965  -0.417  23.316  0.00  0.00    -0.270 OA
ATOM      5  N   UNL     1      -3.933  -0.906  25.584  0.00  0.00    -0.309 N 
ATOM     14  C   UNL     1      -4.161  -0.086  24.482  0.00  0.00    +0.244 C 
ATOM     27  H   UNL     1      -4.048  -0.546  26.526  0.00  0.00    +0.149 HD
BRANCH  14  17
ATOM     17  C   UNL     1      -4.651   1.285  24.775  0.00  0.00    +0.037 A 
ATOM     19  C   UNL     1      -5.564   1.495  25.809  0.00  0.00    +0.013 A 
ATOM     20  C   UNL     1      -4.196   2.364  24.017  0.00  0.00    +0.013 A 
ATOM     22  C   UNL     1      -6.023   2.783  26.084  0.00  0.00    +0.001 A 
ATOM     23  C   UNL     1      -4.654   3.652  24.293  0.00  0.00    +0.001 A 
ATOM     24  C   UNL     1      -5.567   3.862  25.327  0.00  0.00    +0.000 A 
ENDBRANCH  14  17
ENDBRANCH  11   5
ENDBRANCH   9  11
TORSDOF 7
ENDMDL
MODEL 4
REMARK VINA RESULT:      -5.6      2.639      5.199
REMARK  Name = 75536627
REMARK  7 active torsions:
REMARK  status: ('A' for Active; 'I' for Inactive)
REMARK    1  A    between atoms: O_2  and  C_8
REMARK    2  A    between atoms: N_4  and  C_7
REMARK    3  A    between atoms: N_4  and  C_12
REMARK    4  A    between atoms: N_5  and  C_11
REMARK    5  A    between atoms: C_9  and  C_11
REMARK    6  A    between atoms: C_12  and  C_13
REMARK    7  A    between atoms: C_14  and  C_17
REMARK                            x       y       z     vdW  Elec       q    Type
REMARK                         _______ _______ _______ _____ _____    ______ ____
ROOT
ATOM      1  O   UNL     1      -1.713  -2.663  23.893  0.00  0.00    -0.371 OA
ATOM      7  C   UNL     1      -0.024  -1.071  24.398  0.00  0.00    +0.111 C 
ATOM      8  C   UNL     1      -1.224  -0.820  25.292  0.00  0.00    +0.164 C 
ATOM      9  C   UNL     1      -1.927  -2.169  25.225  0.00  0.00    +0.165 C 
ATOM     10  C   UNL     1      -0.643  -1.912  23.294  0.00  0.00    +0.181 C 
ENDROOT
BRANCH   8   2
ATOM      2  O   UNL     1      -0.857  -0.482  26.615  0.00  0.00    -0.388 OA
ATOM     26  H   UNL     1      -1.647  -0.542  27.179  0.00  0.00    +0.210 HD
ENDBRANCH   8   2
BRANCH   7   4
ATOM      4  N   UNL     1       0.600   0.145  23.902  0.00  0.00    -0.305 NA
ATOM     25  H   UNL     1       1.192   0.537  24.634  0.00  0.00    +0.123 HD
BRANCH   4  12
ATOM     12  C   UNL     1       1.418  -0.126  22.727  0.00  0.00    +0.118 C 
BRANCH  12  13
ATOM      6  N   UNL     1       4.776  -1.415  23.909  0.00  0.00    -0.263 NA
ATOM     13  C   UNL     1       2.885  -0.168  23.063  0.00  0.00    -0.015 A 
ATOM     15  C   UNL     1       3.699   0.941  22.860  0.00  0.00    +0.008 A 
ATOM     16  C   UNL     1       3.467  -1.311  23.585  0.00  0.00    +0.115 A 
ATOM     18  C   UNL     1       5.050   0.874  23.181  0.00  0.00    +0.020 A 
ATOM     21  C   UNL     1       5.535  -0.317  23.698  0.00  0.00    +0.111 A 
ENDBRANCH  12  13
ENDBRANCH   4  12
ENDBRANCH   7   4
BRANCH   9  11
ATOM     11  C   UNL     1      -3.416  -2.085  25.509  0.00  0.00    +0.138 C 
BRANCH  11   5
ATOM      3  O   UNL     1      -3.956  -0.268  23.352  0.00  0.00    -0.270 OA
ATOM      5  N   UNL     1      -3.850  -0.723  25.625  0.00  0.00    -0.309 N 
ATOM     14  C   UNL     1      -4.088   0.089  24.520  0.00  0.00    +0.244 C 
ATOM     27  H   UNL     1      -3.910  -0.343  26.564  0.00  0.00    +0.149 HD
BRANCH  14  17
ATOM     17  C   UNL     1      -4.506   1.484  24.809  0.00  0.00    +0.037 A 
ATOM     19  C   UNL     1      -5.690   1.729  25.507  0.00  0.00    +0.013 A 
ATOM     20  C   UNL     1      -3.715   2.551  24.384  0.00  0.00    +0.013 A 
ATOM     22  C   UNL     1      -6.081   3.040  25.779  0.00  0.00    +0.001 A 
ATOM     23  C   UNL     1      -4.106   3.862  24.656  0.00  0.00    +0.001 A 
ATOM     24  C   UNL     1      -5.289   4.106  25.355  0.00  0.00    +0.000 A 
ENDBRANCH  14  17
ENDBRANCH  11   5
ENDBRANCH   9  11
TORSDOF 7
ENDMDL
MODEL 5
REMARK VINA RESULT:      -4.3      2.354      6.135
REMARK  Name = 75536627
REMARK  7 active torsions:
REMARK  status: ('A' for Active; 'I' for Inactive)
REMARK    1  A    between atoms: O_2  and  C_8
REMARK    2  A    between atoms: N_4  and  C_7
REMARK    3  A    between atoms: N_4  and  C_12
REMARK    4  A    between atoms: N_5  and  C_11
REMARK    5  A    between atoms: C_9  and  C_11
REMARK    6  A    between atoms: C_12  and  C_13
REMARK    7  A    between atoms: C_14  and  C_17
REMARK                            x       y       z     vdW  Elec       q    Type
REMARK                         _______ _______ _______ _____ _____    ______ ____
ROOT
ATOM      1  O   UNL     1      -1.047  -0.541  26.246  0.00  0.00    -0.371 OA
ATOM      7  C   UNL     1      -2.506  -2.227  25.426  0.00  0.00    +0.111 C 
ATOM      8  C   UNL     1      -1.625  -1.740  24.291  0.00  0.00    +0.164 C 
ATOM      9  C   UNL     1      -0.470  -1.116  25.063  0.00  0.00    +0.165 C 
ATOM     10  C   UNL     1      -2.364  -1.091  26.426  0.00  0.00    +0.181 C 
ENDROOT
BRANCH   8   2
ATOM      2  O   UNL     1      -1.191  -2.789  23.449  0.00  0.00    -0.388 OA
ATOM     26  H   UNL     1      -1.258  -2.490  22.526  0.00  0.00    +0.210 HD
ENDBRANCH   8   2
BRANCH   7   4
ATOM      4  N   UNL     1      -3.885  -2.468  25.035  0.00  0.00    -0.305 NA
ATOM     25  H   UNL     1      -4.503  -2.139  25.777  0.00  0.00    +0.123 HD
BRANCH   4  12
ATOM     12  C   UNL     1      -4.211  -1.762  23.802  0.00  0.00    +0.118 C 
BRANCH  12  13
ATOM      6  N   UNL     1      -3.562   1.954  23.485  0.00  0.00    -0.263 NA
ATOM     13  C   UNL     1      -4.325  -0.277  24.020  0.00  0.00    -0.015 A 
ATOM     15  C   UNL     1      -5.251   0.247  24.915  0.00  0.00    +0.008 A 
ATOM     16  C   UNL     1      -3.512   0.611  23.335  0.00  0.00    +0.115 A 
ATOM     18  C   UNL     1      -5.334   1.623  25.096  0.00  0.00    +0.020 A 
ATOM     21  C   UNL     1      -4.474   2.426  24.364  0.00  0.00    +0.111 A 
ENDBRANCH  12  13
ENDBRANCH   4  12
ENDBRANCH   7   4
BRANCH   9  11
ATOM     11  C   UNL     1       0.268  -0.046  24.279  0.00  0.00    +0.138 C 
BRANCH  11   5
ATOM      3  O   UNL     1       0.913   2.064  26.117  0.00  0.00    -0.270 OA
ATOM      5  N   UNL     1      -0.387   1.226  24.387  0.00  0.00    -0.309 N 
ATOM     14  C   UNL     1      -0.006   2.193  25.312  0.00  0.00    +0.244 C 
ATOM     27  H   UNL     1      -1.202   1.370  23.799  0.00  0.00    +0.149 HD
BRANCH  14  17
ATOM     17  C   UNL     1      -0.802   3.447  25.316  0.00  0.00    +0.037 A 
ATOM     19  C   UNL     1      -1.974   3.528  26.069  0.00  0.00    +0.013 A 
ATOM     20  C   UNL     1      -0.378   4.545  24.569  0.00  0.00    +0.013 A 
ATOM     22  C   UNL     1      -2.721   4.706  26.074  0.00  0.00    +0.001 A 
ATOM     23  C   UNL     1      -1.124   5.723  24.573  0.00  0.00    +0.001 A 
ATOM     24  C   UNL     1      -2.296   5.804  25.326  0.00  0.00    +0.000 A 
ENDBRANCH  14  17
ENDBRANCH  11   5
ENDBRANCH   9  11
TORSDOF 7
ENDMDL
MODEL 6
REMARK VINA RESULT:      -3.4      2.819      6.188
REMARK  Name = 75536627
REMARK  7 active torsions:
REMARK  status: ('A' for Active; 'I' for Inactive)
REMARK    1  A    between atoms: O_2  and  C_8
REMARK    2  A    between atoms: N_4  and  C_7
REMARK    3  A    between atoms: N_4  and  C_12
REMARK    4  A    between atoms: N_5  and  C_11
REMARK    5  A    between atoms: C_9  and  C_11
REMARK    6  A    between atoms: C_12  and  C_13
REMARK    7  A    between atoms: C_14  and  C_17
REMARK                            x       y       z     vdW  Elec       q    Type
REMARK                         _______ _______ _______ _____ _____    ______ ____
ROOT
ATOM      1  O   UNL     1      -0.824  -0.317  25.385  0.00  0.00    -0.371 OA
ATOM      7  C   UNL     1      -3.178  -0.020  25.495  0.00  0.00    +0.111 C 
ATOM      8  C   UNL     1      -2.815  -0.603  24.141  0.00  0.00    +0.164 C 
ATOM      9  C   UNL     1      -1.446  -1.199  24.437  0.00  0.00    +0.165 C 
ATOM     10  C   UNL     1      -1.838   0.529  25.955  0.00  0.00    +0.181 C 
ENDROOT
BRANCH   8   2
ATOM      2  O   UNL     1      -3.735  -1.584  23.706  0.00  0.00    -0.388 OA
ATOM     26  H   UNL     1      -3.914  -2.188  24.447  0.00  0.00    +0.210 HD
ENDBRANCH   8   2
BRANCH   7   4
ATOM      4  N   UNL     1      -4.216   0.996  25.435  0.00  0.00    -0.305 NA
ATOM     25  H   UNL     1      -4.183   1.555  26.288  0.00  0.00    +0.123 HD
BRANCH   4  12
ATOM     12  C   UNL     1      -4.025   1.874  24.287  0.00  0.00    +0.118 C 
BRANCH  12  13
ATOM      6  N   UNL     1      -0.738   3.738  24.060  0.00  0.00    -0.263 NA
ATOM     13  C   UNL     1      -2.955   2.903  24.541  0.00  0.00    -0.015 A 
ATOM     15  C   UNL     1      -3.156   3.937  25.448  0.00  0.00    +0.008 A 
ATOM     16  C   UNL     1      -1.739   2.848  23.878  0.00  0.00    +0.115 A 
ATOM     18  C   UNL     1      -2.149   4.872  25.662  0.00  0.00    +0.020 A 
ATOM     21  C   UNL     1      -0.969   4.729  24.949  0.00  0.00    +0.111 A 
ENDBRANCH  12  13
ENDBRANCH   4  12
ENDBRANCH   7   4
BRANCH   9  11
ATOM     11  C   UNL     1      -0.569  -1.329  23.204  0.00  0.00    +0.138 C 
BRANCH  11   5
ATOM      3  O   UNL     1       1.404  -0.335  21.369  0.00  0.00    -0.270 OA
ATOM      5  N   UNL     1       0.800  -1.021  23.502  0.00  0.00    -0.309 N 
ATOM     14  C   UNL     1       1.690  -0.542  22.546  0.00  0.00    +0.244 C 
ATOM     27  H   UNL     1       1.121  -1.237  24.441  0.00  0.00    +0.149 HD
BRANCH  14  17
ATOM     17  C   UNL     1       3.080  -0.297  23.008  0.00  0.00    +0.037 A 
ATOM     19  C   UNL     1       3.776  -1.297  23.689  0.00  0.00    +0.013 A 
ATOM     20  C   UNL     1       3.692   0.931  22.758  0.00  0.00    +0.013 A 
ATOM     22  C   UNL     1       5.083  -1.067  24.121  0.00  0.00    +0.001 A 
ATOM     23  C   UNL     1       4.998   1.161  23.190  0.00  0.00    +0.001 A 
ATOM     24  C   UNL     1       5.694   0.161  23.871  0.00  0.00    +0.000 A 
ENDBRANCH  14  17
ENDBRANCH  11   5
ENDBRANCH   9  11
TORSDOF 7
ENDMDL
MODEL 7
REMARK VINA RESULT:      -3.3      1.982      4.566
REMARK  Name = 75536627
REMARK  7 active torsions:
REMARK  status: ('A' for Active; 'I' for Inactive)
REMARK    1  A    between atoms: O_2  and  C_8
REMARK    2  A    between atoms: N_4  and  C_7
REMARK    3  A    between atoms: N_4  and  C_12
REMARK    4  A    between atoms: N_5  and  C_11
REMARK    5  A    between atoms: C_9  and  C_11
REMARK    6  A    between atoms: C_12  and  C_13
REMARK    7  A    between atoms: C_14  and  C_17
REMARK                            x       y       z     vdW  Elec       q    Type
REMARK                         _______ _______ _______ _____ _____    ______ ____
ROOT
ATOM      1  O   UNL     1       1.304   2.568  24.221  0.00  0.00    -0.371 OA
ATOM      7  C   UNL     1       0.449   0.704  23.021  0.00  0.00    +0.111 C 
ATOM      8  C   UNL     1      -0.711   1.510  23.578  0.00  0.00    +0.164 C 
ATOM      9  C   UNL     1      -0.044   2.857  23.817  0.00  0.00    +0.165 C 
ATOM     10  C   UNL     1       1.600   1.202  23.881  0.00  0.00    +0.181 C 
ENDROOT
BRANCH   8   2
ATOM      2  O   UNL     1      -1.790   1.608  22.669  0.00  0.00    -0.388 OA
ATOM     26  H   UNL     1      -1.715   2.453  22.194  0.00  0.00    +0.210 HD
ENDBRANCH   8   2
BRANCH   7   4
ATOM      4  N   UNL     1       0.258  -0.735  23.110  0.00  0.00    -0.305 NA
ATOM     25  H   UNL     1       1.077  -1.203  22.723  0.00  0.00    +0.123 HD
BRANCH   4  12
ATOM     12  C   UNL     1       0.082  -1.157  24.494  0.00  0.00    +0.118 C 
BRANCH  12  13
ATOM      6  N   UNL     1      -3.270  -2.911  24.370  0.00  0.00    -0.263 NA
ATOM     13  C   UNL     1      -1.352  -1.503  24.796  0.00  0.00    -0.015 A 
ATOM     15  C   UNL     1      -2.080  -0.784  25.737  0.00  0.00    +0.008 A 
ATOM     16  C   UNL     1      -1.987  -2.549  24.147  0.00  0.00    +0.115 A 
ATOM     18  C   UNL     1      -3.402  -1.126  25.995  0.00  0.00    +0.020 A 
ATOM     21  C   UNL     1      -3.946  -2.188  25.291  0.00  0.00    +0.111 A 
ENDBRANCH  12  13
ENDBRANCH   4  12
ENDBRANCH   7   4
BRANCH   9  11
ATOM     11  C   UNL     1      -0.734   3.687  24.885  0.00  0.00    +0.138 C 
BRANCH  11   5
ATOM      3  O   UNL     1      -3.272   4.259  23.670  0.00  0.00    -0.270 OA
ATOM      5  N   UNL     1      -2.002   3.124  25.246  0.00  0.00    -0.309 N 
ATOM     14  C   UNL     1      -3.188   3.460  24.600  0.00  0.00    +0.244 C 
ATOM     27  H   UNL     1      -2.014   2.510  26.054  0.00  0.00    +0.149 HD
BRANCH  14  17
ATOM     17  C   UNL     1      -4.421   2.810  25.110  0.00  0.00    +0.037 A 
ATOM     19  C   UNL     1      -5.064   3.319  26.240  0.00  0.00    +0.013 A 
ATOM     20  C   UNL     1      -4.939   1.690  24.460  0.00  0.00    +0.013 A 
ATOM     22  C   UNL     1      -6.223   2.709  26.718  0.00  0.00    +0.001 A 
ATOM     23  C   UNL     1      -6.099   1.079  24.938  0.00  0.00    +0.001 A 
ATOM     24  C   UNL     1      -6.741   1.589  26.067  0.00  0.00    +0.000 A 
ENDBRANCH  14  17
ENDBRANCH  11   5
ENDBRANCH   9  11
TORSDOF 7
ENDMDL
MODEL 8
REMARK VINA RESULT:      -3.1      1.991      5.100
REMARK  Name = 75536627
REMARK  7 active torsions:
REMARK  status: ('A' for Active; 'I' for Inactive)
REMARK    1  A    between atoms: O_2  and  C_8
REMARK    2  A    between atoms: N_4  and  C_7
REMARK    3  A    between atoms: N_4  and  C_12
REMARK    4  A    between atoms: N_5  and  C_11
REMARK    5  A    between atoms: C_9  and  C_11
REMARK    6  A    between atoms: C_12  and  C_13
REMARK    7  A    between atoms: C_14  and  C_17
REMARK                            x       y       z     vdW  Elec       q    Type
REMARK                         _______ _______ _______ _____ _____    ______ ____
ROOT
ATOM      1  O   UNL     1      -4.159  -1.996  24.362  0.00  0.00    -0.371 OA
ATOM      7  C   UNL     1      -1.826  -2.142  24.783  0.00  0.00    +0.111 C 
ATOM      8  C   UNL     1      -2.338  -0.807  25.290  0.00  0.00    +0.164 C 
ATOM      9  C   UNL     1      -3.825  -1.098  25.433  0.00  0.00    +0.165 C 
ATOM     10  C   UNL     1      -2.942  -2.551  23.835  0.00  0.00    +0.181 C 
ENDROOT
BRANCH   8   2
ATOM      2  O   UNL     1      -1.753  -0.431  26.522  0.00  0.00    -0.388 OA
ATOM     26  H   UNL     1      -1.525  -1.240  27.013  0.00  0.00    +0.210 HD
ENDBRANCH   8   2
BRANCH   7   4
ATOM      4  N   UNL     1      -0.530  -2.062  24.129  0.00  0.00    -0.305 NA
ATOM     25  H   UNL     1      -0.295  -2.976  23.743  0.00  0.00    +0.123 HD
BRANCH   4  12
ATOM     12  C   UNL     1      -0.546  -1.083  23.050  0.00  0.00    +0.118 C 
BRANCH  12  13
ATOM      6  N   UNL     1       2.148   1.468  23.809  0.00  0.00    -0.263 NA
ATOM     13  C   UNL     1       0.748  -0.316  22.969  0.00  0.00    -0.015 A 
ATOM     15  C   UNL     1       1.719  -0.645  22.030  0.00  0.00    +0.008 A 
ATOM     16  C   UNL     1       1.009   0.739  23.828  0.00  0.00    +0.115 A 
ATOM     18  C   UNL     1       2.903   0.080  21.978  0.00  0.00    +0.020 A 
ATOM     21  C   UNL     1       3.068   1.118  22.882  0.00  0.00    +0.111 A 
ENDBRANCH  12  13
ENDBRANCH   4  12
ENDBRANCH   7   4
BRANCH   9  11
ATOM     11  C   UNL     1      -4.691   0.146  25.349  0.00  0.00    +0.138 C 
BRANCH  11   5
ATOM      3  O   UNL     1      -3.397   1.453  23.144  0.00  0.00    -0.270 OA
ATOM      5  N   UNL     1      -3.898   1.340  25.407  0.00  0.00    -0.309 N 
ATOM     14  C   UNL     1      -3.305   1.906  24.282  0.00  0.00    +0.244 C 
ATOM     27  H   UNL     1      -3.723   1.726  26.329  0.00  0.00    +0.149 HD
BRANCH  14  17
ATOM     17  C   UNL     1      -2.492   3.127  24.513  0.00  0.00    +0.037 A 
ATOM     19  C   UNL     1      -3.060   4.237  25.140  0.00  0.00    +0.013 A 
ATOM     20  C   UNL     1      -1.158   3.164  24.107  0.00  0.00    +0.013 A 
ATOM     22  C   UNL     1      -2.296   5.383  25.358  0.00  0.00    +0.001 A 
ATOM     23  C   UNL     1      -0.393   4.309  24.325  0.00  0.00    +0.001 A 
ATOM     24  C   UNL     1      -0.962   5.419  24.952  0.00  0.00    +0.000 A 
ENDBRANCH  14  17
ENDBRANCH  11   5
ENDBRANCH   9  11
TORSDOF 7
ENDMDL
MODEL 9
REMARK VINA RESULT:      -3.0      2.208      5.183
REMARK  Name = 75536627
REMARK  7 active torsions:
REMARK  status: ('A' for Active; 'I' for Inactive)
REMARK    1  A    between atoms: O_2  and  C_8
REMARK    2  A    between atoms: N_4  and  C_7
REMARK    3  A    between atoms: N_4  and  C_12
REMARK    4  A    between atoms: N_5  and  C_11
REMARK    5  A    between atoms: C_9  and  C_11
REMARK    6  A    between atoms: C_12  and  C_13
REMARK    7  A    between atoms: C_14  and  C_17
REMARK                            x       y       z     vdW  Elec       q    Type
REMARK                         _______ _______ _______ _____ _____    ______ ____
ROOT
ATOM      1  O   UNL     1      -3.333  -2.176  24.073  0.00  0.00    -0.371 OA
ATOM      7  C   UNL     1      -1.111  -2.077  24.906  0.00  0.00    +0.111 C 
ATOM      8  C   UNL     1      -1.924  -0.957  25.529  0.00  0.00    +0.164 C 
ATOM      9  C   UNL     1      -3.341  -1.476  25.328  0.00  0.00    +0.165 C 
ATOM     10  C   UNL     1      -1.968  -2.437  23.703  0.00  0.00    +0.181 C 
ENDROOT
BRANCH   8   2
ATOM      2  O   UNL     1      -1.622  -0.762  26.897  0.00  0.00    -0.388 OA
ATOM     26  H   UNL     1      -1.342  -1.613  27.274  0.00  0.00    +0.210 HD
ENDBRANCH   8   2
BRANCH   7   4
ATOM      4  N   UNL     1       0.241  -1.685  24.541  0.00  0.00    -0.305 NA
ATOM     25  H   UNL     1       0.566  -2.284  23.781  0.00  0.00    +0.123 HD
BRANCH   4  12
ATOM     12  C   UNL     1       0.284  -0.297  24.101  0.00  0.00    +0.118 C 
BRANCH  12  13
ATOM      6  N   UNL     1       2.475  -0.318  21.013  0.00  0.00    -0.263 NA
ATOM     13  C   UNL     1       1.451  -0.036  23.185  0.00  0.00    -0.015 A 
ATOM     15  C   UNL     1       2.552   0.695  23.617  0.00  0.00    +0.008 A 
ATOM     16  C   UNL     1       1.461  -0.515  21.885  0.00  0.00    +0.115 A 
ATOM     18  C   UNL     1       3.615   0.919  22.750  0.00  0.00    +0.020 A 
ATOM     21  C   UNL     1       3.528   0.396  21.469  0.00  0.00    +0.111 A 
ENDBRANCH  12  13
ENDBRANCH   4  12
ENDBRANCH   7   4
BRANCH   9  11
ATOM     11  C   UNL     1      -4.384  -0.374  25.296  0.00  0.00    +0.138 C 
BRANCH  11   5
ATOM      3  O   UNL     1      -3.077   1.096  23.204  0.00  0.00    -0.270 OA
ATOM      5  N   UNL     1      -3.780   0.921  25.409  0.00  0.00    -0.309 N 
ATOM     14  C   UNL     1      -3.165   1.563  24.337  0.00  0.00    +0.244 C 
ATOM     27  H   UNL     1      -3.755   1.332  26.336  0.00  0.00    +0.149 HD
BRANCH  14  17
ATOM     17  C   UNL     1      -2.562   2.889  24.624  0.00  0.00    +0.037 A 
ATOM     19  C   UNL     1      -1.210   3.114  24.363  0.00  0.00    +0.013 A 
ATOM     20  C   UNL     1      -3.348   3.912  25.154  0.00  0.00    +0.013 A 
ATOM     22  C   UNL     1      -0.644   4.360  24.631  0.00  0.00    +0.001 A 
ATOM     23  C   UNL     1      -2.783   5.159  25.422  0.00  0.00    +0.001 A 
ATOM     24  C   UNL     1      -1.431   5.383  25.160  0.00  0.00    +0.000 A 
ENDBRANCH  14  17
ENDBRANCH  11   5
ENDBRANCH   9  11
TORSDOF 7
ENDMDL
MODEL 10
REMARK VINA RESULT:      -2.9      1.757      4.954
REMARK  Name = 75536627
REMARK  7 active torsions:
REMARK  status: ('A' for Active; 'I' for Inactive)
REMARK    1  A    between atoms: O_2  and  C_8
REMARK    2  A    between atoms: N_4  and  C_7
REMARK    3  A    between atoms: N_4  and  C_12
REMARK    4  A    between atoms: N_5  and  C_11
REMARK    5  A    between atoms: C_9  and  C_11
REMARK    6  A    between atoms: C_12  and  C_13
REMARK    7  A    between atoms: C_14  and  C_17
REMARK                            x       y       z     vdW  Elec       q    Type
REMARK                         _______ _______ _______ _____ _____    ______ ____
ROOT
ATOM      1  O   UNL     1      -3.676  -2.418  23.510  0.00  0.00    -0.371 OA
ATOM      7  C   UNL     1      -1.954  -2.284  25.142  0.00  0.00    +0.111 C 
ATOM      8  C   UNL     1      -2.983  -1.202  25.416  0.00  0.00    +0.164 C 
ATOM      9  C   UNL     1      -4.193  -1.752  24.673  0.00  0.00    +0.165 C 
ATOM     10  C   UNL     1      -2.266  -2.634  23.696  0.00  0.00    +0.181 C 
ENDROOT
BRANCH   8   2
ATOM      2  O   UNL     1      -3.242  -1.035  26.797  0.00  0.00    -0.388 OA
ATOM     26  H   UNL     1      -3.002  -0.127  27.046  0.00  0.00    +0.210 HD
ENDBRANCH   8   2
BRANCH   7   4
ATOM      4  N   UNL     1      -0.581  -1.849  25.335  0.00  0.00    -0.305 NA
ATOM     25  H   UNL     1       0.026  -2.668  25.362  0.00  0.00    +0.123 HD
BRANCH   4  12
ATOM     12  C   UNL     1      -0.149  -0.976  24.251  0.00  0.00    +0.118 C 
BRANCH  12  13
ATOM      6  N   UNL     1       0.644   2.726  24.217  0.00  0.00    -0.263 NA
ATOM     13  C   UNL     1      -0.054   0.461  24.693  0.00  0.00    -0.015 A 
ATOM     15  C   UNL     1      -0.547   0.865  25.928  0.00  0.00    +0.008 A 
ATOM     16  C   UNL     1       0.527   1.422  23.881  0.00  0.00    +0.115 A 
ATOM     18  C   UNL     1      -0.445   2.198  26.310  0.00  0.00    +0.020 A 
ATOM     21  C   UNL     1       0.154   3.081  25.426  0.00  0.00    +0.111 A 
ENDBRANCH  12  13
ENDBRANCH   4  12
ENDBRANCH   7   4
BRANCH   9  11
ATOM     11  C   UNL     1      -5.179  -0.676  24.254  0.00  0.00    +0.138 C 
BRANCH  11   5
ATOM      3  O   UNL     1      -3.349   1.089  22.920  0.00  0.00    -0.270 OA
ATOM      5  N   UNL     1      -4.760   0.620  24.702  0.00  0.00    -0.309 N 
ATOM     14  C   UNL     1      -3.864   1.411  23.988  0.00  0.00    +0.244 C 
ATOM     27  H   UNL     1      -5.093   0.916  25.613  0.00  0.00    +0.149 HD
BRANCH  14  17
ATOM     17  C   UNL     1      -3.510   2.717  24.600  0.00  0.00    +0.037 A 
ATOM     19  C   UNL     1      -2.775   3.653  23.871  0.00  0.00    +0.013 A 
ATOM     20  C   UNL     1      -3.913   3.009  25.902  0.00  0.00    +0.013 A 
ATOM     22  C   UNL     1      -2.444   4.881  24.446  0.00  0.00    +0.001 A 
ATOM     23  C   UNL     1      -3.583   4.236  26.477  0.00  0.00    +0.001 A 
ATOM     24  C   UNL     1      -2.848   5.172  25.749  0.00  0.00    +0.000 A 
ENDBRANCH  14  17
ENDBRANCH  11   5
ENDBRANCH   9  11
TORSDOF 7
ENDMDL
