MODEL 1
REMARK VINA RESULT:       4.9      0.000      0.000
REMARK  Name = 56774668
REMARK  7 active torsions:
REMARK  status: ('A' for Active; 'I' for Inactive)
REMARK    1  A    between atoms: O_3  and  C_10
REMARK    2  A    between atoms: N_6  and  C_12
REMARK    3  A    between atoms: N_7  and  C_23
REMARK    4  A    between atoms: N_8  and  C_28
REMARK    5  A    between atoms: C_9  and  C_10
REMARK    6  A    between atoms: C_10  and  C_14
REMARK    7  A    between atoms: C_12  and  C_16
REMARK                            x       y       z     vdW  Elec       q    Type
REMARK                         _______ _______ _______ _____ _____    ______ ____
ROOT
ATOM     10  C   UNL     1      -2.663   2.152  23.715  0.00  0.00    +0.167 C 
ENDROOT
BRANCH  10   9
ATOM      2  O   UNL     1      -4.070   4.228  25.237  0.00  0.00    -0.369 OA
ATOM      4  O   UNL     1      -6.879   2.013  24.743  0.00  0.00    -0.273 OA
ATOM      6  N   UNL     1      -4.632   1.487  25.043  0.00  0.00    -0.287 N 
ATOM      9  C   UNL     1      -3.253   1.985  25.119  0.00  0.00    +0.135 C 
ATOM     11  C   UNL     1      -3.213   3.298  25.890  0.00  0.00    +0.185 C 
ATOM     13  C   UNL     1      -5.719   2.356  24.979  0.00  0.00    +0.242 C 
ATOM     15  C   UNL     1      -5.416   3.813  25.312  0.00  0.00    +0.255 C 
BRANCH   6  12
ATOM     12  C   UNL     1      -4.822   0.056  24.853  0.00  0.00    +0.146 C 
BRANCH  12  16
ATOM      1  F   UNL     1      -4.130  -2.204  23.292  0.00  0.00    -0.205 F 
ATOM     16  C   UNL     1      -3.545  -0.711  25.042  0.00  0.00    +0.005 A 
ATOM     21  C   UNL     1      -3.264  -1.815  24.239  0.00  0.00    +0.128 A 
ATOM     22  C   UNL     1      -2.638  -0.315  26.025  0.00  0.00    +0.008 A 
ATOM     24  C   UNL     1      -2.077  -2.525  24.418  0.00  0.00    +0.038 A 
ATOM     25  C   UNL     1      -1.450  -1.025  26.205  0.00  0.00    +0.000 A 
ATOM     26  C   UNL     1      -1.170  -2.130  25.402  0.00  0.00    +0.003 A 
ENDBRANCH  12  16
ENDBRANCH   6  12
ENDBRANCH  10   9
BRANCH  10  14
ATOM     14  C   UNL     1      -1.299   1.518  23.602  0.00  0.00    -0.017 A 
ATOM     17  C   UNL     1      -0.236   2.009  24.361  0.00  0.00    +0.008 A 
ATOM     18  C   UNL     1      -1.102   0.439  22.739  0.00  0.00    +0.008 A 
ATOM     19  C   UNL     1       1.025   1.422  24.256  0.00  0.00    +0.024 A 
ATOM     20  C   UNL     1       0.159  -0.148  22.635  0.00  0.00    +0.024 A 
ATOM     23  C   UNL     1       1.222   0.343  23.393  0.00  0.00    +0.035 A 
BRANCH  23   7
ATOM      5  O   UNL     1       3.938   1.585  23.435  0.00  0.00    -0.252 OA
ATOM      7  N   UNL     1       2.484  -0.245  23.289  0.00  0.00    -0.269 N 
ATOM      8  N   UNL     1       4.765  -0.587  23.177  0.00  0.00    -0.269 N 
ATOM     27  C   UNL     1       3.755   0.378  23.313  0.00  0.00    +0.308 C 
ATOM     35  H   UNL     1       2.485  -1.257  23.181  0.00  0.00    +0.156 HD
ATOM     36  H   UNL     1       4.463  -1.554  23.084  0.00  0.00    +0.156 HD
BRANCH   8  28
ATOM     28  C   UNL     1       6.165  -0.386  23.153  0.00  0.00    +0.035 A 
ATOM     29  C   UNL     1       6.984  -1.268  22.449  0.00  0.00    +0.023 A 
ATOM     30  C   UNL     1       6.727   0.695  23.833  0.00  0.00    +0.023 A 
ATOM     31  C   UNL     1       8.364  -1.070  22.424  0.00  0.00    +0.002 A 
ATOM     32  C   UNL     1       8.107   0.894  23.808  0.00  0.00    +0.002 A 
ATOM     33  C   UNL     1       8.926   0.011  23.103  0.00  0.00    +0.000 A 
ENDBRANCH   8  28
ENDBRANCH  23   7
ENDBRANCH  10  14
BRANCH  10   3
ATOM      3  O   UNL     1      -3.540   1.561  22.762  0.00  0.00    -0.385 OA
ATOM     34  H   UNL     1      -4.459   1.769  23.000  0.00  0.00    +0.210 HD
ENDBRANCH  10   3
TORSDOF 7
ENDMDL
MODEL 2
REMARK VINA RESULT:       4.9      1.694      2.639
REMARK  Name = 56774668
REMARK  7 active torsions:
REMARK  status: ('A' for Active; 'I' for Inactive)
REMARK    1  A    between atoms: O_3  and  C_10
REMARK    2  A    between atoms: N_6  and  C_12
REMARK    3  A    between atoms: N_7  and  C_23
REMARK    4  A    between atoms: N_8  and  C_28
REMARK    5  A    between atoms: C_9  and  C_10
REMARK    6  A    between atoms: C_10  and  C_14
REMARK    7  A    between atoms: C_12  and  C_16
REMARK                            x       y       z     vdW  Elec       q    Type
REMARK                         _______ _______ _______ _____ _____    ______ ____
ROOT
ATOM     10  C   UNL     1      -4.292   3.773  25.022  0.00  0.00    +0.167 C 
ENDROOT
BRANCH  10   9
ATOM      2  O   UNL     1      -6.872   2.443  24.594  0.00  0.00    -0.369 OA
ATOM      4  O   UNL     1      -4.764  -0.453  24.139  0.00  0.00    -0.273 OA
ATOM      6  N   UNL     1      -4.466   1.371  25.554  0.00  0.00    -0.287 N 
ATOM      9  C   UNL     1      -4.915   2.715  25.939  0.00  0.00    +0.135 C 
ATOM     11  C   UNL     1      -6.436   2.786  25.905  0.00  0.00    +0.185 C 
ATOM     13  C   UNL     1      -5.171   0.601  24.631  0.00  0.00    +0.242 C 
ATOM     15  C   UNL     1      -6.574   1.097  24.300  0.00  0.00    +0.255 C 
BRANCH   6  12
ATOM     12  C   UNL     1      -3.160   0.935  26.030  0.00  0.00    +0.146 C 
BRANCH  12  16
ATOM      1  F   UNL     1      -4.059  -1.516  27.126  0.00  0.00    -0.205 F 
ATOM     16  C   UNL     1      -2.774  -0.402  25.469  0.00  0.00    +0.005 A 
ATOM     21  C   UNL     1      -3.253  -1.573  26.056  0.00  0.00    +0.128 A 
ATOM     22  C   UNL     1      -1.935  -0.473  24.358  0.00  0.00    +0.008 A 
ATOM     24  C   UNL     1      -2.892  -2.815  25.532  0.00  0.00    +0.038 A 
ATOM     25  C   UNL     1      -1.574  -1.714  23.833  0.00  0.00    +0.000 A 
ATOM     26  C   UNL     1      -2.052  -2.885  24.421  0.00  0.00    +0.003 A 
ENDBRANCH  12  16
ENDBRANCH   6  12
ENDBRANCH  10   9
BRANCH  10  14
ATOM     14  C   UNL     1      -2.880   3.415  24.633  0.00  0.00    -0.017 A 
ATOM     17  C   UNL     1      -1.820   3.733  25.483  0.00  0.00    +0.008 A 
ATOM     18  C   UNL     1      -2.634   2.764  23.424  0.00  0.00    +0.008 A 
ATOM     19  C   UNL     1      -0.514   3.402  25.122  0.00  0.00    +0.024 A 
ATOM     20  C   UNL     1      -1.328   2.431  23.065  0.00  0.00    +0.024 A 
ATOM     23  C   UNL     1      -0.268   2.751  23.913  0.00  0.00    +0.035 A 
BRANCH  23   7
ATOM      5  O   UNL     1       1.322   0.289  24.487  0.00  0.00    -0.252 OA
ATOM      7  N   UNL     1       1.039   2.418  23.553  0.00  0.00    -0.269 N 
ATOM      8  N   UNL     1       3.050   1.314  23.290  0.00  0.00    -0.269 N 
ATOM     27  C   UNL     1       1.762   1.236  23.844  0.00  0.00    +0.308 C 
ATOM     35  H   UNL     1       1.534   3.121  23.009  0.00  0.00    +0.156 HD
ATOM     36  H   UNL     1       3.278   2.164  22.781  0.00  0.00    +0.156 HD
BRANCH   8  28
ATOM     28  C   UNL     1       4.083   0.350  23.350  0.00  0.00    +0.035 A 
ATOM     29  C   UNL     1       3.772  -0.996  23.541  0.00  0.00    +0.023 A 
ATOM     30  C   UNL     1       5.415   0.745  23.218  0.00  0.00    +0.023 A 
ATOM     31  C   UNL     1       4.790  -1.947  23.600  0.00  0.00    +0.002 A 
ATOM     32  C   UNL     1       6.434  -0.205  23.277  0.00  0.00    +0.002 A 
ATOM     33  C   UNL     1       6.122  -1.552  23.468  0.00  0.00    +0.000 A 
ENDBRANCH   8  28
ENDBRANCH  23   7
ENDBRANCH  10  14
BRANCH  10   3
ATOM      3  O   UNL     1      -5.088   3.906  23.849  0.00  0.00    -0.385 OA
ATOM     34  H   UNL     1      -4.548   3.692  23.069  0.00  0.00    +0.210 HD
ENDBRANCH  10   3
TORSDOF 7
ENDMDL
MODEL 3
REMARK VINA RESULT:       5.4      2.200      4.040
REMARK  Name = 56774668
REMARK  7 active torsions:
REMARK  status: ('A' for Active; 'I' for Inactive)
REMARK    1  A    between atoms: O_3  and  C_10
REMARK    2  A    between atoms: N_6  and  C_12
REMARK    3  A    between atoms: N_7  and  C_23
REMARK    4  A    between atoms: N_8  and  C_28
REMARK    5  A    between atoms: C_9  and  C_10
REMARK    6  A    between atoms: C_10  and  C_14
REMARK    7  A    between atoms: C_12  and  C_16
REMARK                            x       y       z     vdW  Elec       q    Type
REMARK                         _______ _______ _______ _____ _____    ______ ____
ROOT
ATOM     10  C   UNL     1      -5.499   0.354  25.073  0.00  0.00    +0.167 C 
ENDROOT
BRANCH  10   9
ATOM      2  O   UNL     1      -6.867   2.492  26.546  0.00  0.00    -0.369 OA
ATOM      4  O   UNL     1      -3.635   4.083  26.289  0.00  0.00    -0.273 OA
ATOM      6  N   UNL     1      -4.698   2.668  24.778  0.00  0.00    -0.287 N 
ATOM      9  C   UNL     1      -5.817   1.751  24.530  0.00  0.00    +0.135 C 
ATOM     11  C   UNL     1      -7.093   2.304  25.154  0.00  0.00    +0.185 C 
ATOM     13  C   UNL     1      -4.621   3.430  25.942  0.00  0.00    +0.242 C 
ATOM     15  C   UNL     1      -5.899   3.493  26.770  0.00  0.00    +0.255 C 
BRANCH   6  12
ATOM     12  C   UNL     1      -3.574   2.624  23.852  0.00  0.00    +0.146 C 
BRANCH  12  16
ATOM      1  F   UNL     1      -3.128   5.407  23.577  0.00  0.00    -0.205 F 
ATOM     16  C   UNL     1      -2.363   3.318  24.404  0.00  0.00    +0.005 A 
ATOM     21  C   UNL     1      -2.205   4.693  24.234  0.00  0.00    +0.128 A 
ATOM     22  C   UNL     1      -1.395   2.584  25.088  0.00  0.00    +0.008 A 
ATOM     24  C   UNL     1      -1.077   5.334  24.748  0.00  0.00    +0.038 A 
ATOM     25  C   UNL     1      -0.267   3.225  25.603  0.00  0.00    +0.000 A 
ATOM     26  C   UNL     1      -0.108   4.600  25.432  0.00  0.00    +0.003 A 
ENDBRANCH  12  16
ENDBRANCH   6  12
ENDBRANCH  10   9
BRANCH  10  14
ATOM     14  C   UNL     1      -4.077  -0.051  24.775  0.00  0.00    -0.017 A 
ATOM     17  C   UNL     1      -3.619  -0.071  23.458  0.00  0.00    +0.008 A 
ATOM     18  C   UNL     1      -3.221  -0.405  25.818  0.00  0.00    +0.008 A 
ATOM     19  C   UNL     1      -2.304  -0.446  23.183  0.00  0.00    +0.024 A 
ATOM     20  C   UNL     1      -1.906  -0.779  25.543  0.00  0.00    +0.024 A 
ATOM     23  C   UNL     1      -1.447  -0.800  24.226  0.00  0.00    +0.035 A 
BRANCH  23   7
ATOM      5  O   UNL     1       1.036   0.852  24.079  0.00  0.00    -0.252 OA
ATOM      7  N   UNL     1      -0.131  -1.174  23.951  0.00  0.00    -0.269 N 
ATOM      8  N   UNL     1       2.148  -1.144  23.583  0.00  0.00    -0.269 N 
ATOM     27  C   UNL     1       1.026  -0.360  23.891  0.00  0.00    +0.308 C 
ATOM     35  H   UNL     1       0.012  -2.166  23.772  0.00  0.00    +0.156 HD
ATOM     36  H   UNL     1       1.988  -2.139  23.451  0.00  0.00    +0.156 HD
BRANCH   8  28
ATOM     28  C   UNL     1       3.490  -0.722  23.430  0.00  0.00    +0.035 A 
ATOM     29  C   UNL     1       3.777   0.446  22.723  0.00  0.00    +0.023 A 
ATOM     30  C   UNL     1       4.526  -1.474  23.984  0.00  0.00    +0.023 A 
ATOM     31  C   UNL     1       5.100   0.862  22.571  0.00  0.00    +0.002 A 
ATOM     32  C   UNL     1       5.849  -1.058  23.833  0.00  0.00    +0.002 A 
ATOM     33  C   UNL     1       6.136   0.111  23.126  0.00  0.00    +0.000 A 
ENDBRANCH   8  28
ENDBRANCH  23   7
ENDBRANCH  10  14
BRANCH  10   3
ATOM      3  O   UNL     1      -5.712   0.337  26.481  0.00  0.00    -0.385 OA
ATOM     34  H   UNL     1      -5.581   1.232  26.837  0.00  0.00    +0.210 HD
ENDBRANCH  10   3
TORSDOF 7
ENDMDL
MODEL 4
REMARK VINA RESULT:       6.3     15.262     16.722
REMARK  Name = 56774668
REMARK  7 active torsions:
REMARK  status: ('A' for Active; 'I' for Inactive)
REMARK    1  A    between atoms: O_3  and  C_10
REMARK    2  A    between atoms: N_6  and  C_12
REMARK    3  A    between atoms: N_7  and  C_23
REMARK    4  A    between atoms: N_8  and  C_28
REMARK    5  A    between atoms: C_9  and  C_10
REMARK    6  A    between atoms: C_10  and  C_14
REMARK    7  A    between atoms: C_12  and  C_16
REMARK                            x       y       z     vdW  Elec       q    Type
REMARK                         _______ _______ _______ _____ _____    ______ ____
ROOT
ATOM     10  C   UNL     1      -4.732  -9.043  10.615  0.00  0.00    +0.167 C 
ENDROOT
BRANCH  10   9
ATOM      2  O   UNL     1      -5.575  -9.889  13.295  0.00  0.00    -0.369 OA
ATOM      4  O   UNL     1      -8.801 -10.114  11.688  0.00  0.00    -0.273 OA
ATOM      6  N   UNL     1      -6.689 -10.531  10.804  0.00  0.00    -0.287 N 
ATOM      9  C   UNL     1      -5.237 -10.439  10.994  0.00  0.00    +0.135 C 
ATOM     11  C   UNL     1      -4.876 -10.781  12.434  0.00  0.00    +0.185 C 
ATOM     13  C   UNL     1      -7.581 -10.223  11.828  0.00  0.00    +0.242 C 
ATOM     15  C   UNL     1      -6.966 -10.100  13.218  0.00  0.00    +0.255 C 
BRANCH   6  12
ATOM     12  C   UNL     1      -7.177 -10.781   9.454  0.00  0.00    +0.146 C 
BRANCH  12  16
ATOM      1  F   UNL     1      -7.240  -7.956   9.647  0.00  0.00    -0.205 F 
ATOM     16  C   UNL     1      -8.397  -9.965   9.137  0.00  0.00    +0.005 A 
ATOM     21  C   UNL     1      -8.360  -8.576   9.252  0.00  0.00    +0.128 A 
ATOM     22  C   UNL     1      -9.568 -10.600   8.727  0.00  0.00    +0.008 A 
ATOM     24  C   UNL     1      -9.496  -7.821   8.957  0.00  0.00    +0.038 A 
ATOM     25  C   UNL     1     -10.705  -9.845   8.431  0.00  0.00    +0.000 A 
ATOM     26  C   UNL     1     -10.669  -8.456   8.547  0.00  0.00    +0.003 A 
ENDBRANCH  12  16
ENDBRANCH   6  12
ENDBRANCH  10   9
BRANCH  10  14
ATOM     14  C   UNL     1      -3.235  -8.930  10.763  0.00  0.00    -0.017 A 
ATOM     17  C   UNL     1      -2.626  -9.270  11.970  0.00  0.00    +0.008 A 
ATOM     18  C   UNL     1      -2.462  -8.486   9.690  0.00  0.00    +0.008 A 
ATOM     19  C   UNL     1      -1.241  -9.166  12.106  0.00  0.00    +0.024 A 
ATOM     20  C   UNL     1      -1.077  -8.383   9.826  0.00  0.00    +0.024 A 
ATOM     23  C   UNL     1      -0.467  -8.722  11.034  0.00  0.00    +0.035 A 
BRANCH  23   7
ATOM      5  O   UNL     1       1.184  -6.678  12.453  0.00  0.00    -0.252 OA
ATOM      7  N   UNL     1       0.918  -8.618  11.169  0.00  0.00    -0.269 N 
ATOM      8  N   UNL     1       3.040  -7.907  11.739  0.00  0.00    -0.269 N 
ATOM     27  C   UNL     1       1.669  -7.631  11.853  0.00  0.00    +0.308 C 
ATOM     35  H   UNL     1       1.457  -9.352  10.714  0.00  0.00    +0.156 HD
ATOM     36  H   UNL     1       3.297  -8.735  11.207  0.00  0.00    +0.156 HD
BRANCH   8  28
ATOM     28  C   UNL     1       4.124  -7.172  12.273  0.00  0.00    +0.035 A 
ATOM     29  C   UNL     1       3.978  -5.812  12.544  0.00  0.00    +0.023 A 
ATOM     30  C   UNL     1       5.340  -7.807  12.528  0.00  0.00    +0.023 A 
ATOM     31  C   UNL     1       5.046  -5.086  13.071  0.00  0.00    +0.002 A 
ATOM     32  C   UNL     1       6.409  -7.082  13.055  0.00  0.00    +0.002 A 
ATOM     33  C   UNL     1       6.262  -5.721  13.327  0.00  0.00    +0.000 A 
ENDBRANCH   8  28
ENDBRANCH  23   7
ENDBRANCH  10  14
BRANCH  10   3
ATOM      3  O   UNL     1      -5.098  -8.759   9.269  0.00  0.00    -0.385 OA
ATOM     34  H   UNL     1      -5.397  -7.836   9.206  0.00  0.00    +0.210 HD
ENDBRANCH  10   3
TORSDOF 7
ENDMDL
MODEL 5
REMARK VINA RESULT:       6.8      1.875      3.456
REMARK  Name = 56774668
REMARK  7 active torsions:
REMARK  status: ('A' for Active; 'I' for Inactive)
REMARK    1  A    between atoms: O_3  and  C_10
REMARK    2  A    between atoms: N_6  and  C_12
REMARK    3  A    between atoms: N_7  and  C_23
REMARK    4  A    between atoms: N_8  and  C_28
REMARK    5  A    between atoms: C_9  and  C_10
REMARK    6  A    between atoms: C_10  and  C_14
REMARK    7  A    between atoms: C_12  and  C_16
REMARK                            x       y       z     vdW  Elec       q    Type
REMARK                         _______ _______ _______ _____ _____    ______ ____
ROOT
ATOM     10  C   UNL     1      -4.151   0.541  24.145  0.00  0.00    +0.167 C 
ENDROOT
BRANCH  10   9
ATOM      2  O   UNL     1      -6.682   2.022  24.078  0.00  0.00    -0.369 OA
ATOM      4  O   UNL     1      -5.863   2.634  27.542  0.00  0.00    -0.273 OA
ATOM      6  N   UNL     1      -4.439   2.422  25.714  0.00  0.00    -0.287 N 
ATOM      9  C   UNL     1      -4.302   2.057  24.298  0.00  0.00    +0.135 C 
ATOM     11  C   UNL     1      -5.499   2.571  23.508  0.00  0.00    +0.185 C 
ATOM     13  C   UNL     1      -5.686   2.503  26.329  0.00  0.00    +0.242 C 
ATOM     15  C   UNL     1      -6.885   2.508  25.386  0.00  0.00    +0.255 C 
BRANCH   6  12
ATOM     12  C   UNL     1      -3.220   2.519  26.505  0.00  0.00    +0.146 C 
BRANCH  12  16
ATOM      1  F   UNL     1      -0.548   1.687  26.070  0.00  0.00    -0.205 F 
ATOM     16  C   UNL     1      -2.189   3.387  25.845  0.00  0.00    +0.005 A 
ATOM     21  C   UNL     1      -0.890   2.916  25.659  0.00  0.00    +0.128 A 
ATOM     22  C   UNL     1      -2.534   4.669  25.415  0.00  0.00    +0.008 A 
ATOM     24  C   UNL     1       0.066   3.727  25.046  0.00  0.00    +0.038 A 
ATOM     25  C   UNL     1      -1.579   5.480  24.801  0.00  0.00    +0.000 A 
ATOM     26  C   UNL     1      -0.279   5.009  24.617  0.00  0.00    +0.003 A 
ENDBRANCH  12  16
ENDBRANCH   6  12
ENDBRANCH  10   9
BRANCH  10  14
ATOM     14  C   UNL     1      -2.703   0.131  24.038  0.00  0.00    -0.017 A 
ATOM     17  C   UNL     1      -2.200  -0.877  24.861  0.00  0.00    +0.008 A 
ATOM     18  C   UNL     1      -1.868   0.760  23.115  0.00  0.00    +0.008 A 
ATOM     19  C   UNL     1      -0.861  -1.255  24.762  0.00  0.00    +0.024 A 
ATOM     20  C   UNL     1      -0.529   0.381  23.015  0.00  0.00    +0.024 A 
ATOM     23  C   UNL     1      -0.026  -0.626  23.838  0.00  0.00    +0.035 A 
BRANCH  23   7
ATOM      5  O   UNL     1       2.445   1.045  23.695  0.00  0.00    -0.252 OA
ATOM      7  N   UNL     1       1.314  -1.005  23.738  0.00  0.00    -0.269 N 
ATOM      8  N   UNL     1       3.617  -0.975  23.578  0.00  0.00    -0.269 N 
ATOM     27  C   UNL     1       2.464  -0.181  23.672  0.00  0.00    +0.308 C 
ATOM     35  H   UNL     1       1.482  -2.009  23.709  0.00  0.00    +0.156 HD
ATOM     36  H   UNL     1       3.479  -1.983  23.569  0.00  0.00    +0.156 HD
BRANCH   8  28
ATOM     28  C   UNL     1       4.963  -0.549  23.491  0.00  0.00    +0.035 A 
ATOM     29  C   UNL     1       5.365   0.625  24.127  0.00  0.00    +0.023 A 
ATOM     30  C   UNL     1       5.889  -1.302  22.768  0.00  0.00    +0.023 A 
ATOM     31  C   UNL     1       6.692   1.046  24.042  0.00  0.00    +0.002 A 
ATOM     32  C   UNL     1       7.216  -0.882  22.682  0.00  0.00    +0.002 A 
ATOM     33  C   UNL     1       7.618   0.293  23.320  0.00  0.00    +0.000 A 
ENDBRANCH   8  28
ENDBRANCH  23   7
ENDBRANCH  10  14
BRANCH  10   3
ATOM      3  O   UNL     1      -4.745  -0.107  25.264  0.00  0.00    -0.385 OA
ATOM     34  H   UNL     1      -5.357  -0.794  24.950  0.00  0.00    +0.210 HD
ENDBRANCH  10   3
TORSDOF 7
ENDMDL
