MODEL 1
REMARK VINA RESULT:       2.1      0.000      0.000
REMARK  Name = 7127962
REMARK  15 active torsions:
REMARK  status: ('A' for Active; 'I' for Inactive)
REMARK    1  A    between atoms: S_1  and  C_20
REMARK    2  A    between atoms: S_1  and  C_26
REMARK    3  A    between atoms: S_2  and  C_30
REMARK    4  A    between atoms: S_2  and  C_33
REMARK    5  A    between atoms: O_6  and  C_22
REMARK    6  A    between atoms: O_6  and  C_29
REMARK    7  A    between atoms: N_9  and  C_13
REMARK    8  A    between atoms: N_10  and  C_18
REMARK    9  A    between atoms: N_11  and  C_25
REMARK   10  A    between atoms: C_12  and  C_16
REMARK   11  A    between atoms: C_17  and  C_20
REMARK   12  A    between atoms: C_18  and  C_19
REMARK   13  A    between atoms: C_18  and  C_22
REMARK   14  A    between atoms: C_19  and  C_23
REMARK   15  A    between atoms: C_19  and  C_24
REMARK                            x       y       z     vdW  Elec       q    Type
REMARK                         _______ _______ _______ _____ _____    ______ ____
ROOT
ATOM      4  O   UNL     1      -6.017   2.617  24.849  0.00  0.00    -0.275 OA
ATOM      8  N   UNL     1      -3.958   3.579  25.289  0.00  0.00    -0.287 N 
ATOM     12  C   UNL     1      -3.554   3.735  23.899  0.00  0.00    +0.164 C 
ATOM     13  C   UNL     1      -1.747   4.444  25.337  0.00  0.00    +0.094 C 
ATOM     14  C   UNL     1      -2.337   4.656  23.940  0.00  0.00    +0.055 C 
ATOM     15  C   UNL     1      -2.971   4.156  26.200  0.00  0.00    +0.131 C 
ATOM     17  C   UNL     1      -5.210   3.099  25.645  0.00  0.00    +0.226 C 
ENDROOT
BRANCH  13   9
ATOM      5  O   UNL     1      -0.254   3.418  23.118  0.00  0.00    -0.253 OA
ATOM      9  N   UNL     1      -0.805   3.352  25.362  0.00  0.00    -0.295 N 
ATOM     11  N   UNL     1       0.726   1.840  24.555  0.00  0.00    -0.269 N 
ATOM     21  C   UNL     1      -0.113   2.910  24.228  0.00  0.00    +0.304 C 
ATOM     34  H   UNL     1      -0.676   2.847  26.233  0.00  0.00    +0.151 HD
ATOM     36  H   UNL     1       0.731   1.545  25.528  0.00  0.00    +0.156 HD
BRANCH  11  25
ATOM     25  C   UNL     1       1.586   1.117  23.697  0.00  0.00    +0.036 A 
ATOM     27  C   UNL     1       2.966   1.154  23.896  0.00  0.00    +0.038 A 
ATOM     28  C   UNL     1       1.053   0.366  22.648  0.00  0.00    +0.023 A 
ATOM     30  C   UNL     1       3.812   0.441  23.048  0.00  0.00    +0.009 A 
ATOM     31  C   UNL     1       1.900  -0.347  21.800  0.00  0.00    +0.003 A 
ATOM     32  C   UNL     1       3.279  -0.310  22.000  0.00  0.00    +0.015 A 
BRANCH  30   2
ATOM      2  S   UNL     1       5.575   0.486  23.304  0.00  0.00    -0.129 S 
ATOM     33  C   UNL     1       5.836  -0.982  24.339  0.00  0.00    +0.090 C 
ENDBRANCH  30   2
ENDBRANCH  11  25
ENDBRANCH  13   9
BRANCH  12  16
ATOM      3  O   UNL     1      -2.972   2.216  22.151  0.00  0.00    -0.274 OA
ATOM     10  N   UNL     1      -3.201   1.404  24.321  0.00  0.00    -0.301 N 
ATOM     16  C   UNL     1      -3.204   2.386  23.345  0.00  0.00    +0.234 C 
ATOM     35  H   UNL     1      -3.393   1.662  25.285  0.00  0.00    +0.150 HD
BRANCH  10  18
ATOM     18  C   UNL     1      -2.918   0.015  24.043  0.00  0.00    +0.184 C 
BRANCH  18  19
ATOM     19  C   UNL     1      -4.082  -0.918  24.441  0.00  0.00    +0.014 C 
ATOM     23  C   UNL     1      -3.941  -1.492  25.854  0.00  0.00    +0.009 C 
ATOM     24  C   UNL     1      -4.253  -2.055  23.429  0.00  0.00    +0.009 C 
ENDBRANCH  18  19
BRANCH  18  22
ATOM      7  O   UNL     1      -1.134   0.120  25.674  0.00  0.00    -0.249 OA
ATOM     22  C   UNL     1      -1.608  -0.430  24.684  0.00  0.00    +0.328 C 
BRANCH  22   6
ATOM      6  O   UNL     1      -1.046  -1.486  24.031  0.00  0.00    -0.467 OA
ATOM     29  C   UNL     1      -0.628  -2.578  24.858  0.00  0.00    +0.280 C 
ENDBRANCH  22   6
ENDBRANCH  18  22
ENDBRANCH  10  18
ENDBRANCH  12  16
BRANCH  17  20
ATOM     20  C   UNL     1      -5.546   3.184  27.112  0.00  0.00    +0.164 C 
BRANCH  20   1
ATOM      1  S   UNL     1      -6.558   1.756  27.525  0.00  0.00    -0.155 S 
ATOM     26  C   UNL     1      -6.456   0.873  25.948  0.00  0.00    +0.085 C 
ENDBRANCH  20   1
ENDBRANCH  17  20
TORSDOF 10
ENDMDL
MODEL 2
REMARK VINA RESULT:       3.9      1.709      4.204
REMARK  Name = 7127962
REMARK  15 active torsions:
REMARK  status: ('A' for Active; 'I' for Inactive)
REMARK    1  A    between atoms: S_1  and  C_20
REMARK    2  A    between atoms: S_1  and  C_26
REMARK    3  A    between atoms: S_2  and  C_30
REMARK    4  A    between atoms: S_2  and  C_33
REMARK    5  A    between atoms: O_6  and  C_22
REMARK    6  A    between atoms: O_6  and  C_29
REMARK    7  A    between atoms: N_9  and  C_13
REMARK    8  A    between atoms: N_10  and  C_18
REMARK    9  A    between atoms: N_11  and  C_25
REMARK   10  A    between atoms: C_12  and  C_16
REMARK   11  A    between atoms: C_17  and  C_20
REMARK   12  A    between atoms: C_18  and  C_19
REMARK   13  A    between atoms: C_18  and  C_22
REMARK   14  A    between atoms: C_19  and  C_23
REMARK   15  A    between atoms: C_19  and  C_24
REMARK                            x       y       z     vdW  Elec       q    Type
REMARK                         _______ _______ _______ _____ _____    ______ ____
ROOT
ATOM      4  O   UNL     1      -4.812   1.125  26.453  0.00  0.00    -0.275 OA
ATOM      8  N   UNL     1      -3.741  -0.481  25.177  0.00  0.00    -0.287 N 
ATOM     12  C   UNL     1      -2.662  -0.741  26.119  0.00  0.00    +0.164 C 
ATOM     13  C   UNL     1      -2.298  -2.041  24.115  0.00  0.00    +0.094 C 
ATOM     14  C   UNL     1      -1.995  -2.019  25.616  0.00  0.00    +0.055 C 
ATOM     15  C   UNL     1      -3.665  -1.372  24.019  0.00  0.00    +0.131 C 
ATOM     17  C   UNL     1      -4.783   0.387  25.468  0.00  0.00    +0.226 C 
ENDROOT
BRANCH  13   9
ATOM      5  O   UNL     1       0.405  -1.517  24.905  0.00  0.00    -0.253 OA
ATOM      9  N   UNL     1      -1.300  -1.330  23.355  0.00  0.00    -0.295 N 
ATOM     11  N   UNL     1       0.745  -0.400  22.868  0.00  0.00    -0.269 N 
ATOM     21  C   UNL     1       0.006  -1.116  23.815  0.00  0.00    +0.304 C 
ATOM     34  H   UNL     1      -1.570  -0.921  22.466  0.00  0.00    +0.151 HD
ATOM     36  H   UNL     1       0.264  -0.150  22.007  0.00  0.00    +0.156 HD
BRANCH  11  25
ATOM     25  C   UNL     1       2.094   0.015  22.953  0.00  0.00    +0.036 A 
ATOM     27  C   UNL     1       3.082  -0.893  23.334  0.00  0.00    +0.038 A 
ATOM     28  C   UNL     1       2.438   1.334  22.655  0.00  0.00    +0.023 A 
ATOM     30  C   UNL     1       4.412  -0.482  23.418  0.00  0.00    +0.009 A 
ATOM     31  C   UNL     1       3.767   1.745  22.738  0.00  0.00    +0.003 A 
ATOM     32  C   UNL     1       4.755   0.837  23.120  0.00  0.00    +0.015 A 
BRANCH  30   2
ATOM      2  S   UNL     1       5.675  -1.642  23.903  0.00  0.00    -0.129 S 
ATOM     33  C   UNL     1       7.169  -0.867  23.225  0.00  0.00    +0.090 C 
ENDBRANCH  30   2
ENDBRANCH  11  25
ENDBRANCH  13   9
BRANCH  12  16
ATOM      3  O   UNL     1      -0.641   0.391  26.695  0.00  0.00    -0.274 OA
ATOM     10  N   UNL     1      -2.206   1.485  25.363  0.00  0.00    -0.301 N 
ATOM     16  C   UNL     1      -1.713   0.420  26.098  0.00  0.00    +0.234 C 
ATOM     35  H   UNL     1      -3.103   1.392  24.895  0.00  0.00    +0.150 HD
BRANCH  10  18
ATOM     18  C   UNL     1      -1.494   2.732  25.206  0.00  0.00    +0.184 C 
BRANCH  18  19
ATOM     19  C   UNL     1      -2.401   3.962  25.424  0.00  0.00    +0.014 C 
ATOM     23  C   UNL     1      -1.680   5.295  25.193  0.00  0.00    +0.009 C 
ATOM     24  C   UNL     1      -3.033   3.945  26.820  0.00  0.00    +0.009 C 
ENDBRANCH  18  19
BRANCH  18  22
ATOM      7  O   UNL     1       0.095   3.633  23.620  0.00  0.00    -0.249 OA
ATOM     22  C   UNL     1      -0.777   2.804  23.862  0.00  0.00    +0.328 C 
BRANCH  22   6
ATOM      6  O   UNL     1      -1.220   1.856  22.989  0.00  0.00    -0.467 OA
ATOM     29  C   UNL     1      -2.503   2.102  22.402  0.00  0.00    +0.280 C 
ENDBRANCH  22   6
ENDBRANCH  18  22
ENDBRANCH  10  18
ENDBRANCH  12  16
BRANCH  17  20
ATOM     20  C   UNL     1      -5.918   0.396  24.475  0.00  0.00    +0.164 C 
BRANCH  20   1
ATOM      1  S   UNL     1      -6.781   1.965  24.645  0.00  0.00    -0.155 S 
ATOM     26  C   UNL     1      -5.381   3.084  24.389  0.00  0.00    +0.085 C 
ENDBRANCH  20   1
ENDBRANCH  17  20
TORSDOF 10
ENDMDL
