MODEL 1
REMARK VINA RESULT:       8.5      0.000      0.000
REMARK  Name = 28991371
REMARK  7 active torsions:
REMARK  status: ('A' for Active; 'I' for Inactive)
REMARK    1  A    between atoms: O_3  and  C_20
REMARK    2  A    between atoms: O_3  and  C_32
REMARK    3  A    between atoms: N_7  and  C_11
REMARK    4  A    between atoms: N_7  and  C_21
REMARK    5  A    between atoms: C_9  and  C_17
REMARK    6  A    between atoms: C_13  and  C_20
REMARK    7  A    between atoms: C_21  and  C_29
REMARK                            x       y       z     vdW  Elec       q    Type
REMARK                         _______ _______ _______ _____ _____    ______ ____
ROOT
ATOM      5  N   UNL     1      -1.096   1.486  25.848  0.00  0.00    -0.274 NA
ATOM      6  N   UNL     1      -3.831  -0.065  23.794  0.00  0.00    -0.356 N 
ATOM      8  C   UNL     1      -2.133   1.580  24.774  0.00  0.00    +0.106 C 
ATOM      9  C   UNL     1      -0.480   2.805  26.142  0.00  0.00    +0.090 C 
ATOM     10  C   UNL     1      -3.236   2.574  25.171  0.00  0.00    +0.044 C 
ATOM     11  C   UNL     1      -2.641   3.958  25.434  0.00  0.00    +0.058 C 
ATOM     12  C   UNL     1      -1.559   3.853  26.509  0.00  0.00    +0.042 C 
ATOM     13  C   UNL     1      -0.124   0.381  25.619  0.00  0.00    +0.172 C 
ATOM     14  C   UNL     1      -2.690   0.218  24.492  0.00  0.00    +0.038 A 
ATOM     15  C   UNL     1      -0.806  -1.011  25.584  0.00  0.00    +0.068 C 
ATOM     16  C   UNL     1      -2.092  -0.974  24.836  0.00  0.00    -0.016 A 
ATOM     18  C   UNL     1      -2.918  -2.028  24.361  0.00  0.00    +0.003 A 
ATOM     19  C   UNL     1      -4.004  -1.430  23.712  0.00  0.00    +0.047 A 
ATOM     24  C   UNL     1      -2.852  -3.435  24.412  0.00  0.00    +0.010 A 
ATOM     25  C   UNL     1      -5.027  -2.174  23.113  0.00  0.00    +0.026 A 
ATOM     26  C   UNL     1      -3.870  -4.190  23.819  0.00  0.00    +0.001 A 
ATOM     30  C   UNL     1      -4.940  -3.567  23.179  0.00  0.00    +0.002 A 
ATOM     36  H   UNL     1      -4.462   0.619  23.397  0.00  0.00    +0.166 HD
ENDROOT
BRANCH   9  17
ATOM      2  F   UNL     1       3.300   2.699  30.348  0.00  0.00    -0.205 F 
ATOM     17  C   UNL     1       0.540   2.777  27.278  0.00  0.00    -0.030 A 
ATOM     22  C   UNL     1       0.158   2.345  28.548  0.00  0.00    +0.008 A 
ATOM     23  C   UNL     1       1.855   3.182  27.045  0.00  0.00    +0.008 A 
ATOM     27  C   UNL     1       1.090   2.319  29.585  0.00  0.00    +0.038 A 
ATOM     28  C   UNL     1       2.786   3.157  28.083  0.00  0.00    +0.038 A 
ATOM     31  C   UNL     1       2.404   2.725  29.352  0.00  0.00    +0.123 A 
ENDBRANCH   9  17
BRANCH  13  20
ATOM      4  O   UNL     1       1.243   1.673  24.111  0.00  0.00    -0.249 OA
ATOM     20  C   UNL     1       0.664   0.625  24.364  0.00  0.00    +0.325 C 
BRANCH  20   3
ATOM      3  O   UNL     1       0.626  -0.489  23.578  0.00  0.00    -0.467 OA
ATOM     32  C   UNL     1       1.368  -0.405  22.358  0.00  0.00    +0.280 C 
ENDBRANCH  20   3
ENDBRANCH  13  20
BRANCH  11   7
ATOM      7  N   UNL     1      -3.692   4.888  25.842  0.00  0.00    -0.309 NA
ATOM     37  H   UNL     1      -3.922   4.728  26.823  0.00  0.00    +0.123 HD
BRANCH   7  21
ATOM     21  C   UNL     1      -4.894   4.688  25.047  0.00  0.00    +0.123 C 
BRANCH  21  29
ATOM      1  S   UNL     1      -5.813   2.913  26.981  0.00  0.00    -0.100 S 
ATOM     29  C   UNL     1      -5.554   3.369  25.351  0.00  0.00    +0.004 A 
ATOM     33  C   UNL     1      -6.010   2.414  24.469  0.00  0.00    +0.012 A 
ATOM     34  C   UNL     1      -6.578   1.294  25.140  0.00  0.00    +0.008 A 
ATOM     35  C   UNL     1      -6.536   1.435  26.510  0.00  0.00    +0.045 A 
ENDBRANCH  21  29
ENDBRANCH   7  21
ENDBRANCH  11   7
TORSDOF 6
ENDMDL
MODEL 2
REMARK VINA RESULT:      11.6      3.703      8.244
REMARK  Name = 28991371
REMARK  7 active torsions:
REMARK  status: ('A' for Active; 'I' for Inactive)
REMARK    1  A    between atoms: O_3  and  C_20
REMARK    2  A    between atoms: O_3  and  C_32
REMARK    3  A    between atoms: N_7  and  C_11
REMARK    4  A    between atoms: N_7  and  C_21
REMARK    5  A    between atoms: C_9  and  C_17
REMARK    6  A    between atoms: C_13  and  C_20
REMARK    7  A    between atoms: C_21  and  C_29
REMARK                            x       y       z     vdW  Elec       q    Type
REMARK                         _______ _______ _______ _____ _____    ______ ____
ROOT
ATOM      5  N   UNL     1      -0.886   0.589  24.911  0.00  0.00    -0.274 NA
ATOM      6  N   UNL     1       1.807   2.707  26.449  0.00  0.00    -0.356 N 
ATOM      8  C   UNL     1       0.222   1.585  24.782  0.00  0.00    +0.106 C 
ATOM      9  C   UNL     1      -1.385   0.138  23.587  0.00  0.00    +0.090 C 
ATOM     10  C   UNL     1       1.391   0.995  23.977  0.00  0.00    +0.044 C 
ATOM     11  C   UNL     1       0.921   0.565  22.587  0.00  0.00    +0.058 C 
ATOM     12  C   UNL     1      -0.233  -0.429  22.722  0.00  0.00    +0.042 C 
ATOM     13  C   UNL     1      -1.947   1.022  25.862  0.00  0.00    +0.172 C 
ATOM     14  C   UNL     1       0.658   2.033  26.144  0.00  0.00    +0.038 A 
ATOM     15  C   UNL     1      -1.407   1.224  27.301  0.00  0.00    +0.068 C 
ATOM     16  C   UNL     1      -0.077   1.894  27.301  0.00  0.00    -0.016 A 
ATOM     18  C   UNL     1       0.668   2.475  28.362  0.00  0.00    +0.003 A 
ATOM     19  C   UNL     1       1.847   2.977  27.800  0.00  0.00    +0.047 A 
ATOM     24  C   UNL     1       0.458   2.630  29.747  0.00  0.00    +0.010 A 
ATOM     25  C   UNL     1       2.827   3.625  28.561  0.00  0.00    +0.026 A 
ATOM     26  C   UNL     1       1.432   3.275  30.518  0.00  0.00    +0.001 A 
ATOM     30  C   UNL     1       2.598   3.765  29.932  0.00  0.00    +0.002 A 
ATOM     36  H   UNL     1       2.527   2.969  25.789  0.00  0.00    +0.166 HD
ENDROOT
BRANCH   9  17
ATOM      2  F   UNL     1      -5.418  -3.817  23.864  0.00  0.00    -0.205 F 
ATOM     17  C   UNL     1      -2.474  -0.930  23.661  0.00  0.00    -0.030 A 
ATOM     22  C   UNL     1      -2.151  -2.228  24.056  0.00  0.00    +0.008 A 
ATOM     23  C   UNL     1      -3.791  -0.607  23.336  0.00  0.00    +0.008 A 
ATOM     27  C   UNL     1      -3.146  -3.204  24.125  0.00  0.00    +0.038 A 
ATOM     28  C   UNL     1      -4.785  -1.583  23.403  0.00  0.00    +0.038 A 
ATOM     31  C   UNL     1      -4.463  -2.881  23.798  0.00  0.00    +0.123 A 
ENDBRANCH   9  17
BRANCH  13  20
ATOM      4  O   UNL     1      -2.049   3.328  25.167  0.00  0.00    -0.249 OA
ATOM     20  C   UNL     1      -2.624   2.266  25.364  0.00  0.00    +0.325 C 
BRANCH  20   3
ATOM      3  O   UNL     1      -3.951   2.017  25.172  0.00  0.00    -0.467 OA
ATOM     32  C   UNL     1      -4.837   3.070  25.563  0.00  0.00    +0.280 C 
ENDBRANCH  20   3
ENDBRANCH  13  20
BRANCH  11   7
ATOM      7  N   UNL     1       2.032  -0.024  21.842  0.00  0.00    -0.309 NA
ATOM     37  H   UNL     1       2.242  -0.947  22.223  0.00  0.00    +0.123 HD
BRANCH   7  21
ATOM     21  C   UNL     1       3.223   0.804  21.951  0.00  0.00    +0.123 C 
BRANCH  21  29
ATOM      1  S   UNL     1       4.011  -1.384  23.477  0.00  0.00    -0.100 S 
ATOM     29  C   UNL     1       4.229   0.215  22.904  0.00  0.00    +0.004 A 
ATOM     33  C   UNL     1       5.366   0.798  23.420  0.00  0.00    +0.012 A 
ATOM     34  C   UNL     1       6.067  -0.079  24.295  0.00  0.00    +0.008 A 
ATOM     35  C   UNL     1       5.440  -1.300  24.417  0.00  0.00    +0.045 A 
ENDBRANCH  21  29
ENDBRANCH   7  21
ENDBRANCH  11   7
TORSDOF 6
ENDMDL
