MODEL 1
REMARK VINA RESULT:      -3.1      0.000      0.000
REMARK  Name = 45784187
REMARK  4 active torsions:
REMARK  status: ('A' for Active; 'I' for Inactive)
REMARK    1  A    between atoms: N_4  and  C_10
REMARK    2  A    between atoms: C_6  and  C_11
REMARK    3  A    between atoms: C_10  and  C_12
REMARK    4  A    between atoms: C_19  and  C_24
REMARK                            x       y       z     vdW  Elec       q    Type
REMARK                         _______ _______ _______ _____ _____    ______ ____
ROOT
ATOM      4  N   UNL     1       0.538  -0.636  23.750  0.00  0.00    -0.297 NA
ATOM      6  C   UNL     1      -1.129   0.182  25.183  0.00  0.00    +0.090 C 
ATOM      7  C   UNL     1      -1.478  -1.255  24.753  0.00  0.00    +0.029 C 
ATOM      8  C   UNL     1      -0.048   0.631  24.190  0.00  0.00    +0.097 C 
ATOM      9  C   UNL     1      -0.604  -1.525  23.535  0.00  0.00    +0.085 C 
ENDROOT
BRANCH   6  11
ATOM      3  O   UNL     1      -3.537   0.553  25.174  0.00  0.00    -0.439 OA
ATOM      5  N   UNL     1      -2.293   2.440  25.356  0.00  0.00    -0.213 NA
ATOM     11  C   UNL     1      -2.305   1.129  25.244  0.00  0.00    +0.201 A 
ATOM     13  C   UNL     1      -3.627   2.768  25.362  0.00  0.00    +0.110 A 
ATOM     14  C   UNL     1      -4.393   1.616  25.250  0.00  0.00    +0.155 A 
ATOM     17  C   UNL     1      -4.278   4.006  25.457  0.00  0.00    +0.035 A 
ATOM     18  C   UNL     1      -5.781   1.586  25.225  0.00  0.00    +0.049 A 
ATOM     19  C   UNL     1      -5.680   4.017  25.433  0.00  0.00    -0.048 A 
ATOM     20  C   UNL     1      -6.415   2.830  25.320  0.00  0.00    +0.007 A 
ATOM     24  C   UNL     1      -6.402   5.320  25.532  0.00  0.00    +0.044 C 
ENDBRANCH   6  11
BRANCH   4  10
ATOM     10  C   UNL     1       1.354  -0.484  22.555  0.00  0.00    +0.119 C 
BRANCH  10  12
ATOM      1  F   UNL     1       5.580  -2.144  24.347  0.00  0.00    -0.202 F 
ATOM      2  F   UNL     1       6.798   0.244  23.811  0.00  0.00    -0.202 F 
ATOM     12  C   UNL     1       2.809  -0.289  22.890  0.00  0.00    -0.030 A 
ATOM     15  C   UNL     1       3.535  -1.326  23.475  0.00  0.00    +0.046 A 
ATOM     16  C   UNL     1       3.432   0.929  22.615  0.00  0.00    +0.008 A 
ATOM     21  C   UNL     1       4.883  -1.147  23.786  0.00  0.00    +0.159 A 
ATOM     22  C   UNL     1       4.780   1.109  22.927  0.00  0.00    +0.041 A 
ATOM     23  C   UNL     1       5.505   0.071  23.512  0.00  0.00    +0.158 A 
ENDBRANCH  10  12
ENDBRANCH   4  10
TORSDOF 3
ENDMDL
MODEL 2
REMARK VINA RESULT:      -2.2      3.473      7.695
REMARK  Name = 45784187
REMARK  4 active torsions:
REMARK  status: ('A' for Active; 'I' for Inactive)
REMARK    1  A    between atoms: N_4  and  C_10
REMARK    2  A    between atoms: C_6  and  C_11
REMARK    3  A    between atoms: C_10  and  C_12
REMARK    4  A    between atoms: C_19  and  C_24
REMARK                            x       y       z     vdW  Elec       q    Type
REMARK                         _______ _______ _______ _____ _____    ______ ____
ROOT
ATOM      4  N   UNL     1      -3.898   2.308  25.012  0.00  0.00    -0.297 NA
ATOM      6  C   UNL     1      -1.642   2.779  24.578  0.00  0.00    +0.090 C 
ATOM      7  C   UNL     1      -2.517   3.374  23.460  0.00  0.00    +0.029 C 
ATOM      8  C   UNL     1      -2.561   1.787  25.303  0.00  0.00    +0.097 C 
ATOM      9  C   UNL     1      -3.861   2.670  23.595  0.00  0.00    +0.085 C 
ENDROOT
BRANCH   6  11
ATOM      3  O   UNL     1      -0.476   1.003  23.385  0.00  0.00    -0.439 OA
ATOM      5  N   UNL     1       0.881   2.569  24.303  0.00  0.00    -0.213 NA
ATOM     11  C   UNL     1      -0.351   2.151  24.107  0.00  0.00    +0.201 A 
ATOM     13  C   UNL     1       1.642   1.624  23.661  0.00  0.00    +0.110 A 
ATOM     14  C   UNL     1       0.815   0.662  23.097  0.00  0.00    +0.155 A 
ATOM     17  C   UNL     1       3.030   1.499  23.504  0.00  0.00    +0.035 A 
ATOM     18  C   UNL     1       1.258  -0.438  22.373  0.00  0.00    +0.049 A 
ATOM     19  C   UNL     1       3.515   0.400  22.780  0.00  0.00    -0.048 A 
ATOM     20  C   UNL     1       2.645  -0.547  22.226  0.00  0.00    +0.007 A 
ATOM     24  C   UNL     1       4.988   0.239  22.596  0.00  0.00    +0.044 C 
ENDBRANCH   6  11
BRANCH   4  10
ATOM     10  C   UNL     1      -4.946   1.344  25.309  0.00  0.00    +0.119 C 
BRANCH  10  12
ATOM      1  F   UNL     1      -4.575  -2.736  22.656  0.00  0.00    -0.202 F 
ATOM      2  F   UNL     1      -3.166  -3.962  24.653  0.00  0.00    -0.202 F 
ATOM     12  C   UNL     1      -4.471  -0.075  25.135  0.00  0.00    -0.030 A 
ATOM     15  C   UNL     1      -4.749  -0.762  23.954  0.00  0.00    +0.046 A 
ATOM     16  C   UNL     1      -3.751  -0.700  26.153  0.00  0.00    +0.008 A 
ATOM     21  C   UNL     1      -4.308  -2.076  23.790  0.00  0.00    +0.159 A 
ATOM     22  C   UNL     1      -3.310  -2.014  25.990  0.00  0.00    +0.041 A 
ATOM     23  C   UNL     1      -3.589  -2.702  24.809  0.00  0.00    +0.158 A 
ENDBRANCH  10  12
ENDBRANCH   4  10
TORSDOF 3
ENDMDL
MODEL 3
REMARK VINA RESULT:      -1.8      2.999      7.537
REMARK  Name = 45784187
REMARK  4 active torsions:
REMARK  status: ('A' for Active; 'I' for Inactive)
REMARK    1  A    between atoms: N_4  and  C_10
REMARK    2  A    between atoms: C_6  and  C_11
REMARK    3  A    between atoms: C_10  and  C_12
REMARK    4  A    between atoms: C_19  and  C_24
REMARK                            x       y       z     vdW  Elec       q    Type
REMARK                         _______ _______ _______ _____ _____    ______ ____
ROOT
ATOM      4  N   UNL     1      -3.325  -0.173  24.596  0.00  0.00    -0.297 NA
ATOM      6  C   UNL     1      -1.317  -1.047  23.758  0.00  0.00    +0.090 C 
ATOM      7  C   UNL     1      -1.712  -1.802  25.039  0.00  0.00    +0.029 C 
ATOM      8  C   UNL     1      -2.181   0.222  23.774  0.00  0.00    +0.097 C 
ATOM      9  C   UNL     1      -2.747  -0.913  25.717  0.00  0.00    +0.085 C 
ENDROOT
BRANCH   6  11
ATOM      3  O   UNL     1       0.481   0.495  23.182  0.00  0.00    -0.439 OA
ATOM      5  N   UNL     1       1.178  -1.546  23.880  0.00  0.00    -0.213 NA
ATOM     11  C   UNL     1       0.160  -0.753  23.624  0.00  0.00    +0.201 A 
ATOM     13  C   UNL     1       2.268  -0.765  23.584  0.00  0.00    +0.110 A 
ATOM     14  C   UNL     1       1.846   0.485  23.156  0.00  0.00    +0.155 A 
ATOM     17  C   UNL     1       3.644  -1.030  23.647  0.00  0.00    +0.035 A 
ATOM     18  C   UNL     1       2.692   1.521  22.778  0.00  0.00    +0.049 A 
ATOM     19  C   UNL     1       4.530  -0.010  23.272  0.00  0.00    -0.048 A 
ATOM     20  C   UNL     1       4.061   1.240  22.846  0.00  0.00    +0.007 A 
ATOM     24  C   UNL     1       6.000  -0.261  23.329  0.00  0.00    +0.044 C 
ENDBRANCH   6  11
BRANCH   4  10
ATOM     10  C   UNL     1      -4.115   0.968  25.034  0.00  0.00    +0.119 C 
BRANCH  10  12
ATOM      1  F   UNL     1       0.025   3.341  26.060  0.00  0.00    -0.202 F 
ATOM      2  F   UNL     1      -1.055   5.697  25.189  0.00  0.00    -0.202 F 
ATOM     12  C   UNL     1      -3.298   2.232  25.075  0.00  0.00    -0.030 A 
ATOM     15  C   UNL     1      -1.990   2.201  25.558  0.00  0.00    +0.046 A 
ATOM     16  C   UNL     1      -3.848   3.435  24.630  0.00  0.00    +0.008 A 
ATOM     21  C   UNL     1      -1.232   3.372  25.597  0.00  0.00    +0.159 A 
ATOM     22  C   UNL     1      -3.090   4.605  24.669  0.00  0.00    +0.041 A 
ATOM     23  C   UNL     1      -1.782   4.574  25.152  0.00  0.00    +0.158 A 
ENDBRANCH  10  12
ENDBRANCH   4  10
TORSDOF 3
ENDMDL
