MODEL 1
REMARK VINA RESULT:      -4.8      0.000      0.000
REMARK  Name = 26744515
REMARK  6 active torsions:
REMARK  status: ('A' for Active; 'I' for Inactive)
REMARK    1  A    between atoms: O_4  and  C_12
REMARK    2  A    between atoms: O_6  and  C_22
REMARK    3  A    between atoms: O_6  and  C_23
REMARK    4  A    between atoms: N_7  and  C_15
REMARK    5  A    between atoms: C_10  and  C_14
REMARK    6  A    between atoms: C_16  and  C_17
REMARK                            x       y       z     vdW  Elec       q    Type
REMARK                         _______ _______ _______ _____ _____    ______ ____
ROOT
ATOM      5  O   UNL     1      -5.648 -10.741  17.454  0.00  0.00    -0.336 OA
ATOM      8  N   UNL     1      -5.949 -10.301  15.279  0.00  0.00    -0.190 NA
ATOM      9  N   UNL     1      -4.376 -10.781  16.869  0.00  0.00    -0.056 NA
ATOM     14  C   UNL     1      -6.515 -10.453  16.449  0.00  0.00    +0.245 A 
ATOM     16  C   UNL     1      -4.636 -10.512  15.586  0.00  0.00    +0.202 A 
ENDROOT
BRANCH  14  10
ATOM      7  N   UNL     1      -8.177  -9.781  18.177  0.00  0.00    -0.292 NA
ATOM     10  C   UNL     1      -7.977 -10.351  16.828  0.00  0.00    +0.148 C 
ATOM     11  C   UNL     1      -8.773  -9.425  15.888  0.00  0.00    +0.061 C 
ATOM     12  C   UNL     1      -9.422  -8.395  16.805  0.00  0.00    +0.130 C 
ATOM     13  C   UNL     1      -9.468  -9.096  18.149  0.00  0.00    +0.116 C 
ATOM     15  C   UNL     1      -8.108 -10.780  19.237  0.00  0.00    +0.105 C 
BRANCH  12   4
ATOM      4  O   UNL     1     -10.715  -8.056  16.345  0.00  0.00    -0.390 OA
ATOM     24  H   UNL     1     -10.623  -7.288  15.756  0.00  0.00    +0.210 HD
ENDBRANCH  12   4
ENDBRANCH  14  10
BRANCH  16  17
ATOM     17  C   UNL     1      -3.608 -10.447  14.587  0.00  0.00    +0.023 A 
ATOM     18  C   UNL     1      -2.268 -10.387  14.969  0.00  0.00    +0.015 A 
ATOM     19  C   UNL     1      -3.950 -10.446  13.235  0.00  0.00    +0.015 A 
ATOM     20  C   UNL     1      -1.269 -10.323  13.997  0.00  0.00    +0.046 A 
ATOM     21  C   UNL     1      -2.951 -10.382  12.263  0.00  0.00    +0.046 A 
ATOM     22  C   UNL     1      -1.611 -10.320  12.644  0.00  0.00    +0.130 A 
BRANCH  22   6
ATOM      6  O   UNL     1      -0.637 -10.258  11.696  0.00  0.00    -0.406 OA
BRANCH   6  23
ATOM      1  F   UNL     1       0.904  -9.106  10.515  0.00  0.00    -0.133 F 
ATOM      2  F   UNL     1      -1.183  -8.474  10.374  0.00  0.00    -0.133 F 
ATOM      3  F   UNL     1      -0.031  -8.116  12.225  0.00  0.00    -0.133 F 
ATOM     23  C   UNL     1      -0.250  -8.978  11.209  0.00  0.00    +0.575 C 
ENDBRANCH   6  23
ENDBRANCH  22   6
ENDBRANCH  16  17
TORSDOF 5
ENDMDL
MODEL 2
REMARK VINA RESULT:      -3.7     14.392     15.073
REMARK  Name = 26744515
REMARK  6 active torsions:
REMARK  status: ('A' for Active; 'I' for Inactive)
REMARK    1  A    between atoms: O_4  and  C_12
REMARK    2  A    between atoms: O_6  and  C_22
REMARK    3  A    between atoms: O_6  and  C_23
REMARK    4  A    between atoms: N_7  and  C_15
REMARK    5  A    between atoms: C_10  and  C_14
REMARK    6  A    between atoms: C_16  and  C_17
REMARK                            x       y       z     vdW  Elec       q    Type
REMARK                         _______ _______ _______ _____ _____    ______ ____
ROOT
ATOM      5  O   UNL     1      -2.880  -0.338  24.462  0.00  0.00    -0.336 OA
ATOM      8  N   UNL     1      -1.486   1.402  24.674  0.00  0.00    -0.190 NA
ATOM      9  N   UNL     1      -1.666  -0.739  23.888  0.00  0.00    -0.056 NA
ATOM     14  C   UNL     1      -2.687   0.933  24.899  0.00  0.00    +0.245 A 
ATOM     16  C   UNL     1      -0.896   0.341  24.052  0.00  0.00    +0.202 A 
ENDROOT
BRANCH  14  10
ATOM      7  N   UNL     1      -4.023   3.016  25.172  0.00  0.00    -0.292 NA
ATOM     10  C   UNL     1      -3.868   1.602  25.570  0.00  0.00    +0.148 C 
ATOM     11  C   UNL     1      -5.212   0.941  25.206  0.00  0.00    +0.061 C 
ATOM     12  C   UNL     1      -6.071   2.073  24.654  0.00  0.00    +0.130 C 
ATOM     13  C   UNL     1      -5.451   3.317  25.260  0.00  0.00    +0.116 C 
ATOM     15  C   UNL     1      -3.219   3.929  25.975  0.00  0.00    +0.105 C 
BRANCH  12   4
ATOM      4  O   UNL     1      -7.421   1.915  25.045  0.00  0.00    -0.390 OA
ATOM     24  H   UNL     1      -7.692   2.734  25.496  0.00  0.00    +0.210 HD
ENDBRANCH  12   4
ENDBRANCH  14  10
BRANCH  16  17
ATOM     17  C   UNL     1       0.466   0.391  23.604  0.00  0.00    +0.023 A 
ATOM     18  C   UNL     1       0.978  -0.635  22.810  0.00  0.00    +0.015 A 
ATOM     19  C   UNL     1       1.277   1.468  23.963  0.00  0.00    +0.015 A 
ATOM     20  C   UNL     1       2.303  -0.586  22.377  0.00  0.00    +0.046 A 
ATOM     21  C   UNL     1       2.603   1.517  23.529  0.00  0.00    +0.046 A 
ATOM     22  C   UNL     1       3.115   0.490  22.736  0.00  0.00    +0.130 A 
BRANCH  22   6
ATOM      6  O   UNL     1       4.408   0.539  22.312  0.00  0.00    -0.406 OA
BRANCH   6  23
ATOM      1  F   UNL     1       4.972  -1.001  23.863  0.00  0.00    -0.133 F 
ATOM      2  F   UNL     1       6.534  -0.276  22.518  0.00  0.00    -0.133 F 
ATOM      3  F   UNL     1       5.735   1.032  24.110  0.00  0.00    -0.133 F 
ATOM     23  C   UNL     1       5.425   0.086  23.198  0.00  0.00    +0.575 C 
ENDBRANCH   6  23
ENDBRANCH  22   6
ENDBRANCH  16  17
TORSDOF 5
ENDMDL
MODEL 3
REMARK VINA RESULT:      -3.7     14.398     15.076
REMARK  Name = 26744515
REMARK  6 active torsions:
REMARK  status: ('A' for Active; 'I' for Inactive)
REMARK    1  A    between atoms: O_4  and  C_12
REMARK    2  A    between atoms: O_6  and  C_22
REMARK    3  A    between atoms: O_6  and  C_23
REMARK    4  A    between atoms: N_7  and  C_15
REMARK    5  A    between atoms: C_10  and  C_14
REMARK    6  A    between atoms: C_16  and  C_17
REMARK                            x       y       z     vdW  Elec       q    Type
REMARK                         _______ _______ _______ _____ _____    ______ ____
ROOT
ATOM      5  O   UNL     1      -2.866   0.051  24.780  0.00  0.00    -0.336 OA
ATOM      8  N   UNL     1      -1.816   1.624  23.581  0.00  0.00    -0.190 NA
ATOM      9  N   UNL     1      -1.545  -0.390  24.631  0.00  0.00    -0.056 NA
ATOM     14  C   UNL     1      -2.940   1.242  24.132  0.00  0.00    +0.245 A 
ATOM     16  C   UNL     1      -0.989   0.591  23.914  0.00  0.00    +0.202 A 
ENDROOT
BRANCH  14  10
ATOM      7  N   UNL     1      -5.229   1.328  25.108  0.00  0.00    -0.292 NA
ATOM     10  C   UNL     1      -4.286   1.936  24.147  0.00  0.00    +0.148 C 
ATOM     11  C   UNL     1      -4.190   3.414  24.572  0.00  0.00    +0.061 C 
ATOM     12  C   UNL     1      -5.148   3.549  25.749  0.00  0.00    +0.130 C 
ATOM     13  C   UNL     1      -6.118   2.400  25.551  0.00  0.00    +0.116 C 
ATOM     15  C   UNL     1      -5.965   0.199  24.553  0.00  0.00    +0.105 C 
BRANCH  12   4
ATOM      4  O   UNL     1      -5.804   4.801  25.722  0.00  0.00    -0.390 OA
ATOM     24  H   UNL     1      -6.112   4.949  24.811  0.00  0.00    +0.210 HD
ENDBRANCH  12   4
ENDBRANCH  14  10
BRANCH  16  17
ATOM     17  C   UNL     1       0.388   0.568  23.512  0.00  0.00    +0.023 A 
ATOM     18  C   UNL     1       0.881  -0.507  22.772  0.00  0.00    +0.015 A 
ATOM     19  C   UNL     1       1.233   1.621  23.863  0.00  0.00    +0.015 A 
ATOM     20  C   UNL     1       2.220  -0.529  22.383  0.00  0.00    +0.046 A 
ATOM     21  C   UNL     1       2.573   1.598  23.474  0.00  0.00    +0.046 A 
ATOM     22  C   UNL     1       3.066   0.524  22.735  0.00  0.00    +0.130 A 
BRANCH  22   6
ATOM      6  O   UNL     1       4.373   0.503  22.355  0.00  0.00    -0.406 OA
BRANCH   6  23
ATOM      1  F   UNL     1       5.562   0.956  24.220  0.00  0.00    -0.133 F 
ATOM      2  F   UNL     1       4.885  -1.098  23.906  0.00  0.00    -0.133 F 
ATOM      3  F   UNL     1       6.509  -0.256  22.666  0.00  0.00    -0.133 F 
ATOM     23  C   UNL     1       5.336   0.010  23.280  0.00  0.00    +0.575 C 
ENDBRANCH   6  23
ENDBRANCH  22   6
ENDBRANCH  16  17
TORSDOF 5
ENDMDL
MODEL 4
REMARK VINA RESULT:      -3.7     21.922     24.377
REMARK  Name = 26744515
REMARK  6 active torsions:
REMARK  status: ('A' for Active; 'I' for Inactive)
REMARK    1  A    between atoms: O_4  and  C_12
REMARK    2  A    between atoms: O_6  and  C_22
REMARK    3  A    between atoms: O_6  and  C_23
REMARK    4  A    between atoms: N_7  and  C_15
REMARK    5  A    between atoms: C_10  and  C_14
REMARK    6  A    between atoms: C_16  and  C_17
REMARK                            x       y       z     vdW  Elec       q    Type
REMARK                         _______ _______ _______ _____ _____    ______ ____
ROOT
ATOM      5  O   UNL     1      15.280  -9.358  31.107  0.00  0.00    -0.336 OA
ATOM      8  N   UNL     1      13.583  -8.388  30.014  0.00  0.00    -0.190 NA
ATOM      9  N   UNL     1      14.137  -9.582  31.885  0.00  0.00    -0.056 NA
ATOM     14  C   UNL     1      14.866  -8.649  30.025  0.00  0.00    +0.245 A 
ATOM     16  C   UNL     1      13.178  -8.980  31.174  0.00  0.00    +0.202 A 
ENDROOT
BRANCH  14  10
ATOM      7  N   UNL     1      15.921  -9.155  27.828  0.00  0.00    -0.292 NA
ATOM     10  C   UNL     1      15.930  -8.276  29.015  0.00  0.00    +0.148 C 
ATOM     11  C   UNL     1      15.745  -6.853  28.453  0.00  0.00    +0.061 C 
ATOM     12  C   UNL     1      15.689  -7.032  26.940  0.00  0.00    +0.130 C 
ATOM     13  C   UNL     1      16.407  -8.347  26.711  0.00  0.00    +0.116 C 
ATOM     15  C   UNL     1      16.705 -10.371  28.008  0.00  0.00    +0.105 C 
BRANCH  12   4
ATOM      4  O   UNL     1      16.335  -5.959  26.283  0.00  0.00    -0.390 OA
ATOM     24  H   UNL     1      17.220  -6.268  26.021  0.00  0.00    +0.210 HD
ENDBRANCH  12   4
ENDBRANCH  14  10
BRANCH  16  17
ATOM     17  C   UNL     1      11.807  -8.952  31.597  0.00  0.00    +0.023 A 
ATOM     18  C   UNL     1      11.230  -7.751  32.010  0.00  0.00    +0.015 A 
ATOM     19  C   UNL     1      11.053 -10.125  31.594  0.00  0.00    +0.015 A 
ATOM     20  C   UNL     1       9.898  -7.724  32.422  0.00  0.00    +0.046 A 
ATOM     21  C   UNL     1       9.720 -10.098  32.006  0.00  0.00    +0.046 A 
ATOM     22  C   UNL     1       9.143  -8.898  32.420  0.00  0.00    +0.130 A 
BRANCH  22   6
ATOM      6  O   UNL     1       7.843  -8.873  32.822  0.00  0.00    -0.406 OA
BRANCH   6  23
ATOM      1  F   UNL     1       6.451 -10.094  31.530  0.00  0.00    -0.133 F 
ATOM      2  F   UNL     1       5.742  -8.162  32.265  0.00  0.00    -0.133 F 
ATOM      3  F   UNL     1       7.288  -8.258  30.689  0.00  0.00    -0.133 F 
ATOM     23  C   UNL     1       6.830  -8.829  31.823  0.00  0.00    +0.575 C 
ENDBRANCH   6  23
ENDBRANCH  22   6
ENDBRANCH  16  17
TORSDOF 5
ENDMDL
MODEL 5
REMARK VINA RESULT:      -3.5     22.632     24.958
REMARK  Name = 26744515
REMARK  6 active torsions:
REMARK  status: ('A' for Active; 'I' for Inactive)
REMARK    1  A    between atoms: O_4  and  C_12
REMARK    2  A    between atoms: O_6  and  C_22
REMARK    3  A    between atoms: O_6  and  C_23
REMARK    4  A    between atoms: N_7  and  C_15
REMARK    5  A    between atoms: C_10  and  C_14
REMARK    6  A    between atoms: C_16  and  C_17
REMARK                            x       y       z     vdW  Elec       q    Type
REMARK                         _______ _______ _______ _____ _____    ______ ____
ROOT
ATOM      5  O   UNL     1      15.269  -9.240  30.648  0.00  0.00    -0.336 OA
ATOM      8  N   UNL     1      13.893  -7.512  31.015  0.00  0.00    -0.190 NA
ATOM      9  N   UNL     1      14.029  -9.795  30.989  0.00  0.00    -0.056 NA
ATOM     14  C   UNL     1      15.101  -7.893  30.687  0.00  0.00    +0.245 A 
ATOM     16  C   UNL     1      13.271  -8.713  31.191  0.00  0.00    +0.202 A 
ENDROOT
BRANCH  14  10
ATOM      7  N   UNL     1      16.276  -6.525  28.970  0.00  0.00    -0.292 NA
ATOM     10  C   UNL     1      16.315  -7.053  30.349  0.00  0.00    +0.148 C 
ATOM     11  C   UNL     1      16.444  -5.805  31.245  0.00  0.00    +0.061 C 
ATOM     12  C   UNL     1      16.515  -4.631  30.276  0.00  0.00    +0.130 C 
ATOM     13  C   UNL     1      17.011  -5.261  28.989  0.00  0.00    +0.116 C 
ATOM     15  C   UNL     1      16.810  -7.456  27.984  0.00  0.00    +0.105 C 
BRANCH  12   4
ATOM      4  O   UNL     1      17.405  -3.641  30.753  0.00  0.00    -0.390 OA
ATOM     24  H   UNL     1      18.278  -3.819  30.359  0.00  0.00    +0.210 HD
ENDBRANCH  12   4
ENDBRANCH  14  10
BRANCH  16  17
ATOM     17  C   UNL     1      11.890  -8.798  31.571  0.00  0.00    +0.023 A 
ATOM     18  C   UNL     1      11.210  -7.654  31.989  0.00  0.00    +0.015 A 
ATOM     19  C   UNL     1      11.228 -10.025  31.521  0.00  0.00    +0.015 A 
ATOM     20  C   UNL     1       9.868  -7.737  32.359  0.00  0.00    +0.046 A 
ATOM     21  C   UNL     1       9.885 -10.108  31.892  0.00  0.00    +0.046 A 
ATOM     22  C   UNL     1       9.206  -8.965  32.311  0.00  0.00    +0.130 A 
BRANCH  22   6
ATOM      6  O   UNL     1       7.896  -9.047  32.671  0.00  0.00    -0.406 OA
BRANCH   6  23
ATOM      1  F   UNL     1       6.534 -10.204  31.291  0.00  0.00    -0.133 F 
ATOM      2  F   UNL     1       5.811  -8.304  32.094  0.00  0.00    -0.133 F 
ATOM      3  F   UNL     1       7.397  -8.336  30.555  0.00  0.00    -0.133 F 
ATOM     23  C   UNL     1       6.909  -8.955  31.651  0.00  0.00    +0.575 C 
ENDBRANCH   6  23
ENDBRANCH  22   6
ENDBRANCH  16  17
TORSDOF 5
ENDMDL
MODEL 6
REMARK VINA RESULT:      -3.3     15.412     17.311
REMARK  Name = 26744515
REMARK  6 active torsions:
REMARK  status: ('A' for Active; 'I' for Inactive)
REMARK    1  A    between atoms: O_4  and  C_12
REMARK    2  A    between atoms: O_6  and  C_22
REMARK    3  A    between atoms: O_6  and  C_23
REMARK    4  A    between atoms: N_7  and  C_15
REMARK    5  A    between atoms: C_10  and  C_14
REMARK    6  A    between atoms: C_16  and  C_17
REMARK                            x       y       z     vdW  Elec       q    Type
REMARK                         _______ _______ _______ _____ _____    ______ ____
ROOT
ATOM      5  O   UNL     1       0.972  -1.116  23.652  0.00  0.00    -0.336 OA
ATOM      8  N   UNL     1       1.013   1.110  23.414  0.00  0.00    -0.190 NA
ATOM      9  N   UNL     1      -0.301  -0.661  24.019  0.00  0.00    -0.056 NA
ATOM     14  C   UNL     1       1.683  -0.010  23.310  0.00  0.00    +0.245 A 
ATOM     16  C   UNL     1      -0.198   0.660  23.851  0.00  0.00    +0.202 A 
ENDROOT
BRANCH  14  10
ATOM      7  N   UNL     1       3.994   0.905  23.187  0.00  0.00    -0.292 NA
ATOM     10  C   UNL     1       3.113  -0.237  22.869  0.00  0.00    +0.148 C 
ATOM     11  C   UNL     1       3.767  -1.445  23.565  0.00  0.00    +0.061 C 
ATOM     12  C   UNL     1       5.033  -0.892  24.209  0.00  0.00    +0.130 C 
ATOM     13  C   UNL     1       5.331   0.351  23.393  0.00  0.00    +0.116 C 
ATOM     15  C   UNL     1       3.982   1.943  22.163  0.00  0.00    +0.105 C 
BRANCH  12   4
ATOM      4  O   UNL     1       6.086  -1.833  24.137  0.00  0.00    -0.390 OA
ATOM     24  H   UNL     1       6.362  -2.032  25.048  0.00  0.00    +0.210 HD
ENDBRANCH  12   4
ENDBRANCH  14  10
BRANCH  16  17
ATOM     17  C   UNL     1      -1.286   1.558  24.114  0.00  0.00    +0.023 A 
ATOM     18  C   UNL     1      -1.225   2.427  25.204  0.00  0.00    +0.015 A 
ATOM     19  C   UNL     1      -2.403   1.562  23.279  0.00  0.00    +0.015 A 
ATOM     20  C   UNL     1      -2.283   3.299  25.460  0.00  0.00    +0.046 A 
ATOM     21  C   UNL     1      -3.462   2.434  23.535  0.00  0.00    +0.046 A 
ATOM     22  C   UNL     1      -3.401   3.302  24.625  0.00  0.00    +0.130 A 
BRANCH  22   6
ATOM      6  O   UNL     1      -4.434   4.153  24.874  0.00  0.00    -0.406 OA
BRANCH   6  23
ATOM      1  F   UNL     1      -5.244   3.109  26.704  0.00  0.00    -0.133 F 
ATOM      2  F   UNL     1      -6.503   4.611  25.736  0.00  0.00    -0.133 F 
ATOM      3  F   UNL     1      -6.158   2.652  24.772  0.00  0.00    -0.133 F 
ATOM     23  C   UNL     1      -5.597   3.634  25.509  0.00  0.00    +0.575 C 
ENDBRANCH   6  23
ENDBRANCH  22   6
ENDBRANCH  16  17
TORSDOF 5
ENDMDL
MODEL 7
REMARK VINA RESULT:      -3.1     14.854     15.505
REMARK  Name = 26744515
REMARK  6 active torsions:
REMARK  status: ('A' for Active; 'I' for Inactive)
REMARK    1  A    between atoms: O_4  and  C_12
REMARK    2  A    between atoms: O_6  and  C_22
REMARK    3  A    between atoms: O_6  and  C_23
REMARK    4  A    between atoms: N_7  and  C_15
REMARK    5  A    between atoms: C_10  and  C_14
REMARK    6  A    between atoms: C_16  and  C_17
REMARK                            x       y       z     vdW  Elec       q    Type
REMARK                         _______ _______ _______ _____ _____    ______ ____
ROOT
ATOM      5  O   UNL     1      -1.816   3.229  25.065  0.00  0.00    -0.336 OA
ATOM      8  N   UNL     1      -1.588   1.516  23.640  0.00  0.00    -0.190 NA
ATOM      9  N   UNL     1      -0.438   3.009  24.937  0.00  0.00    -0.056 NA
ATOM     14  C   UNL     1      -2.419   2.308  24.269  0.00  0.00    +0.245 A 
ATOM     16  C   UNL     1      -0.385   1.984  24.082  0.00  0.00    +0.202 A 
ENDROOT
BRANCH  14  10
ATOM      7  N   UNL     1      -4.545   1.383  25.176  0.00  0.00    -0.292 NA
ATOM     10  C   UNL     1      -3.932   2.338  24.230  0.00  0.00    +0.148 C 
ATOM     11  C   UNL     1      -4.511   3.710  24.625  0.00  0.00    +0.061 C 
ATOM     12  C   UNL     1      -5.472   3.417  25.770  0.00  0.00    +0.130 C 
ATOM     13  C   UNL     1      -5.830   1.957  25.569  0.00  0.00    +0.116 C 
ATOM     15  C   UNL     1      -4.689   0.042  24.624  0.00  0.00    +0.105 C 
BRANCH  12   4
ATOM      4  O   UNL     1      -6.611   4.252  25.697  0.00  0.00    -0.390 OA
ATOM     24  H   UNL     1      -6.378   5.016  25.142  0.00  0.00    +0.210 HD
ENDBRANCH  12   4
ENDBRANCH  14  10
BRANCH  16  17
ATOM     17  C   UNL     1       0.855   1.404  23.649  0.00  0.00    +0.023 A 
ATOM     18  C   UNL     1       0.935   0.034  23.403  0.00  0.00    +0.015 A 
ATOM     19  C   UNL     1       1.978   2.212  23.475  0.00  0.00    +0.015 A 
ATOM     20  C   UNL     1       2.139  -0.530  22.984  0.00  0.00    +0.046 A 
ATOM     21  C   UNL     1       3.184   1.648  23.056  0.00  0.00    +0.046 A 
ATOM     22  C   UNL     1       3.264   0.278  22.811  0.00  0.00    +0.130 A 
BRANCH  22   6
ATOM      6  O   UNL     1       4.441  -0.271  22.402  0.00  0.00    -0.406 OA
BRANCH   6  23
ATOM      1  F   UNL     1       5.379  -1.383  24.129  0.00  0.00    -0.133 F 
ATOM      2  F   UNL     1       6.706  -0.428  22.678  0.00  0.00    -0.133 F 
ATOM      3  F   UNL     1       5.539   0.797  24.101  0.00  0.00    -0.133 F 
ATOM     23  C   UNL     1       5.525  -0.306  23.323  0.00  0.00    +0.575 C 
ENDBRANCH   6  23
ENDBRANCH  22   6
ENDBRANCH  16  17
TORSDOF 5
ENDMDL
MODEL 8
REMARK VINA RESULT:      -2.4     14.903     16.952
REMARK  Name = 26744515
REMARK  6 active torsions:
REMARK  status: ('A' for Active; 'I' for Inactive)
REMARK    1  A    between atoms: O_4  and  C_12
REMARK    2  A    between atoms: O_6  and  C_22
REMARK    3  A    between atoms: O_6  and  C_23
REMARK    4  A    between atoms: N_7  and  C_15
REMARK    5  A    between atoms: C_10  and  C_14
REMARK    6  A    between atoms: C_16  and  C_17
REMARK                            x       y       z     vdW  Elec       q    Type
REMARK                         _______ _______ _______ _____ _____    ______ ____
ROOT
ATOM      5  O   UNL     1       1.801   1.800  23.945  0.00  0.00    -0.336 OA
ATOM      8  N   UNL     1       0.527   0.033  23.427  0.00  0.00    -0.190 NA
ATOM      9  N   UNL     1       0.506   2.114  24.376  0.00  0.00    -0.056 NA
ATOM     14  C   UNL     1       1.725   0.559  23.399  0.00  0.00    +0.245 A 
ATOM     16  C   UNL     1      -0.187   1.024  24.036  0.00  0.00    +0.202 A 
ENDROOT
BRANCH  14  10
ATOM      7  N   UNL     1       4.173   0.874  23.069  0.00  0.00    -0.292 NA
ATOM     10  C   UNL     1       3.014  -0.017  22.851  0.00  0.00    +0.148 C 
ATOM     11  C   UNL     1       3.406  -1.345  23.525  0.00  0.00    +0.061 C 
ATOM     12  C   UNL     1       4.818  -1.118  24.052  0.00  0.00    +0.130 C 
ATOM     13  C   UNL     1       5.344   0.007  23.182  0.00  0.00    +0.116 C 
ATOM     15  C   UNL     1       4.331   1.876  22.022  0.00  0.00    +0.105 C 
BRANCH  12   4
ATOM      4  O   UNL     1       5.597  -2.291  23.921  0.00  0.00    -0.390 OA
ATOM     24  H   UNL     1       5.310  -2.744  23.110  0.00  0.00    +0.210 HD
ENDBRANCH  12   4
ENDBRANCH  14  10
BRANCH  16  17
ATOM     17  C   UNL     1      -1.593   0.893  24.288  0.00  0.00    +0.023 A 
ATOM     18  C   UNL     1      -2.497   1.748  23.658  0.00  0.00    +0.015 A 
ATOM     19  C   UNL     1      -2.055  -0.089  25.164  0.00  0.00    +0.015 A 
ATOM     20  C   UNL     1      -3.864   1.621  23.905  0.00  0.00    +0.046 A 
ATOM     21  C   UNL     1      -3.423  -0.216  25.412  0.00  0.00    +0.046 A 
ATOM     22  C   UNL     1      -4.327   0.639  24.782  0.00  0.00    +0.130 A 
BRANCH  22   6
ATOM      6  O   UNL     1      -5.661   0.515  25.023  0.00  0.00    -0.406 OA
BRANCH   6  23
ATOM      1  F   UNL     1      -7.348   1.965  24.638  0.00  0.00    -0.133 F 
ATOM      2  F   UNL     1      -6.942   1.385  26.706  0.00  0.00    -0.133 F 
ATOM      3  F   UNL     1      -5.550   2.719  25.626  0.00  0.00    -0.133 F 
ATOM     23  C   UNL     1      -6.366   1.649  25.513  0.00  0.00    +0.575 C 
ENDBRANCH   6  23
ENDBRANCH  22   6
ENDBRANCH  16  17
TORSDOF 5
ENDMDL
MODEL 9
REMARK VINA RESULT:      -1.5     22.689     24.910
REMARK  Name = 26744515
REMARK  6 active torsions:
REMARK  status: ('A' for Active; 'I' for Inactive)
REMARK    1  A    between atoms: O_4  and  C_12
REMARK    2  A    between atoms: O_6  and  C_22
REMARK    3  A    between atoms: O_6  and  C_23
REMARK    4  A    between atoms: N_7  and  C_15
REMARK    5  A    between atoms: C_10  and  C_14
REMARK    6  A    between atoms: C_16  and  C_17
REMARK                            x       y       z     vdW  Elec       q    Type
REMARK                         _______ _______ _______ _____ _____    ______ ____
ROOT
ATOM      5  O   UNL     1      13.778  -9.703  31.228  0.00  0.00    -0.336 OA
ATOM      8  N   UNL     1      12.738  -8.315  32.644  0.00  0.00    -0.190 NA
ATOM      9  N   UNL     1      12.410  -9.986  31.118  0.00  0.00    -0.056 NA
ATOM     14  C   UNL     1      13.883  -8.708  32.147  0.00  0.00    +0.245 A 
ATOM     16  C   UNL     1      11.864  -9.127  31.983  0.00  0.00    +0.202 A 
ENDROOT
BRANCH  14  10
ATOM      7  N   UNL     1      16.191  -8.337  31.290  0.00  0.00    -0.292 NA
ATOM     10  C   UNL     1      15.282  -8.215  32.449  0.00  0.00    +0.148 C 
ATOM     11  C   UNL     1      15.319  -6.720  32.822  0.00  0.00    +0.061 C 
ATOM     12  C   UNL     1      16.310  -6.095  31.848  0.00  0.00    +0.130 C 
ATOM     13  C   UNL     1      17.176  -7.265  31.422  0.00  0.00    +0.116 C 
ATOM     15  C   UNL     1      16.818  -9.649  31.189  0.00  0.00    +0.105 C 
BRANCH  12   4
ATOM      4  O   UNL     1      17.068  -5.084  32.482  0.00  0.00    -0.390 OA
ATOM     24  H   UNL     1      17.574  -4.621  31.791  0.00  0.00    +0.210 HD
ENDBRANCH  12   4
ENDBRANCH  14  10
BRANCH  16  17
ATOM     17  C   UNL     1      10.449  -9.056  32.211  0.00  0.00    +0.023 A 
ATOM     18  C   UNL     1       9.873  -7.864  32.650  0.00  0.00    +0.015 A 
ATOM     19  C   UNL     1       9.652 -10.179  31.993  0.00  0.00    +0.015 A 
ATOM     20  C   UNL     1       8.498  -7.796  32.873  0.00  0.00    +0.046 A 
ATOM     21  C   UNL     1       8.276 -10.111  32.216  0.00  0.00    +0.046 A 
ATOM     22  C   UNL     1       7.700  -8.920  32.657  0.00  0.00    +0.130 A 
BRANCH  22   6
ATOM      6  O   UNL     1       6.357  -8.854  32.873  0.00  0.00    -0.406 OA
BRANCH   6  23
ATOM      1  F   UNL     1       5.977  -6.766  32.103  0.00  0.00    -0.133 F 
ATOM      2  F   UNL     1       5.733  -8.436  30.713  0.00  0.00    -0.133 F 
ATOM      3  F   UNL     1       4.264  -8.105  32.331  0.00  0.00    -0.133 F 
ATOM     23  C   UNL     1       5.572  -8.052  31.998  0.00  0.00    +0.575 C 
ENDBRANCH   6  23
ENDBRANCH  22   6
ENDBRANCH  16  17
TORSDOF 5
ENDMDL
