MODEL 1
REMARK VINA RESULT:       4.6      0.000      0.000
REMARK  Name = 11884036
REMARK  8 active torsions:
REMARK  status: ('A' for Active; 'I' for Inactive)
REMARK    1  A    between atoms: O_3  and  C_14
REMARK    2  A    between atoms: O_3  and  C_18
REMARK    3  A    between atoms: O_6  and  C_30
REMARK    4  A    between atoms: O_6  and  C_32
REMARK    5  A    between atoms: N_7  and  C_13
REMARK    6  A    between atoms: N_8  and  C_19
REMARK    7  A    between atoms: N_9  and  C_20
REMARK    8  A    between atoms: C_25  and  C_31
REMARK                            x       y       z     vdW  Elec       q    Type
REMARK                         _______ _______ _______ _____ _____    ______ ____
ROOT
ATOM      1  O   UNL     1      -3.898   3.210  26.360  0.00  0.00    -0.368 OA
ATOM      2  O   UNL     1      -6.288   4.777  25.249  0.00  0.00    -0.368 OA
ATOM     11  C   UNL     1      -5.747   3.486  24.902  0.00  0.00    +0.173 C 
ATOM     12  C   UNL     1      -4.241   3.594  25.018  0.00  0.00    +0.192 C 
ATOM     13  C   UNL     1      -6.119   2.467  25.954  0.00  0.00    +0.131 C 
ATOM     14  C   UNL     1      -4.001   5.066  24.779  0.00  0.00    +0.235 C 
ATOM     15  C   UNL     1      -5.069   2.712  27.024  0.00  0.00    +0.185 C 
ATOM     16  C   UNL     1      -5.204   5.698  25.441  0.00  0.00    +0.207 C 
ENDROOT
BRANCH  13   7
ATOM      4  O   UNL     1      -3.730   0.959  25.479  0.00  0.00    -0.252 OA
ATOM      7  N   UNL     1      -6.036   1.124  25.435  0.00  0.00    -0.292 N 
ATOM      8  N   UNL     1      -5.053  -0.826  24.723  0.00  0.00    -0.269 N 
ATOM     17  C   UNL     1      -4.823   0.454  25.231  0.00  0.00    +0.304 C 
ATOM     38  H   UNL     1      -6.900   0.616  25.270  0.00  0.00    +0.151 HD
ATOM     39  H   UNL     1      -6.024  -1.091  24.573  0.00  0.00    +0.156 HD
BRANCH   8  19
ATOM     19  C   UNL     1      -4.096  -1.812  24.385  0.00  0.00    +0.036 A 
ATOM     21  C   UNL     1      -2.792  -1.714  24.870  0.00  0.00    +0.042 A 
ATOM     22  C   UNL     1      -4.457  -2.882  23.566  0.00  0.00    +0.023 A 
ATOM     25  C   UNL     1      -1.849  -2.686  24.537  0.00  0.00    +0.054 A 
ATOM     26  C   UNL     1      -3.514  -3.855  23.234  0.00  0.00    +0.003 A 
ATOM     29  C   UNL     1      -2.210  -3.756  23.719  0.00  0.00    +0.019 A 
BRANCH  25  31
ATOM     10  N   UNL     1       0.573  -2.505  25.435  0.00  0.00    -0.191 NA
ATOM     31  C   UNL     1      -0.513  -2.586  25.033  0.00  0.00    +0.099 C 
ENDBRANCH  25  31
ENDBRANCH   8  19
ENDBRANCH  13   7
BRANCH  14   3
ATOM      3  O   UNL     1      -2.788   5.535  25.324  0.00  0.00    -0.442 OA
BRANCH   3  18
ATOM      5  O   UNL     1      -0.533   5.383  24.979  0.00  0.00    -0.226 OA
ATOM      9  N   UNL     1      -1.957   3.562  24.613  0.00  0.00    -0.251 N 
ATOM     18  C   UNL     1      -1.640   4.859  24.965  0.00  0.00    +0.405 C 
ATOM     40  H   UNL     1      -2.942   3.309  24.667  0.00  0.00    +0.158 HD
BRANCH   9  20
ATOM     20  C   UNL     1      -1.083   2.537  24.184  0.00  0.00    +0.037 A 
ATOM     23  C   UNL     1       0.187   2.423  24.750  0.00  0.00    +0.027 A 
ATOM     24  C   UNL     1      -1.491   1.641  23.198  0.00  0.00    +0.027 A 
ATOM     27  C   UNL     1       1.049   1.410  24.327  0.00  0.00    +0.048 A 
ATOM     28  C   UNL     1      -0.629   0.628  22.775  0.00  0.00    +0.048 A 
ATOM     30  C   UNL     1       0.641   0.513  23.341  0.00  0.00    +0.129 A 
BRANCH  30   6
ATOM      6  O   UNL     1       1.483  -0.475  22.929  0.00  0.00    -0.456 OA
BRANCH   6  32
ATOM     32  C   UNL     1       2.840  -0.293  23.138  0.00  0.00    +0.128 A 
ATOM     33  C   UNL     1       3.452   0.898  22.747  0.00  0.00    +0.046 A 
ATOM     34  C   UNL     1       3.594  -1.301  23.737  0.00  0.00    +0.046 A 
ATOM     35  C   UNL     1       4.819   1.081  22.957  0.00  0.00    +0.004 A 
ATOM     36  C   UNL     1       4.960  -1.119  23.947  0.00  0.00    +0.004 A 
ATOM     37  C   UNL     1       5.573   0.073  23.557  0.00  0.00    +0.000 A 
ENDBRANCH   6  32
ENDBRANCH  30   6
ENDBRANCH   9  20
ENDBRANCH   3  18
ENDBRANCH  14   3
TORSDOF 8
ENDMDL
