MODEL 1
REMARK VINA RESULT:       0.4      0.000      0.000
REMARK  Name = 11884055
REMARK  7 active torsions:
REMARK  status: ('A' for Active; 'I' for Inactive)
REMARK    1  A    between atoms: O_3  and  C_13
REMARK    2  A    between atoms: O_3  and  C_17
REMARK    3  A    between atoms: O_7  and  C_27
REMARK    4  A    between atoms: O_7  and  C_28
REMARK    5  A    between atoms: N_8  and  C_12
REMARK    6  A    between atoms: N_9  and  C_20
REMARK    7  A    between atoms: C_16  and  C_18
REMARK                            x       y       z     vdW  Elec       q    Type
REMARK                         _______ _______ _______ _____ _____    ______ ____
ROOT
ATOM      1  O   UNL     1      -3.319   3.201  23.911  0.00  0.00    -0.368 OA
ATOM      2  O   UNL     1      -1.970   5.103  25.903  0.00  0.00    -0.368 OA
ATOM     10  C   UNL     1      -1.522   3.867  25.308  0.00  0.00    +0.173 C 
ATOM     11  C   UNL     1      -2.736   2.966  25.204  0.00  0.00    +0.192 C 
ATOM     12  C   UNL     1      -1.118   4.099  23.871  0.00  0.00    +0.130 C 
ATOM     13  C   UNL     1      -3.618   3.475  26.317  0.00  0.00    +0.235 C 
ATOM     14  C   UNL     1      -2.454   4.059  23.149  0.00  0.00    +0.185 C 
ATOM     15  C   UNL     1      -3.347   4.962  26.285  0.00  0.00    +0.207 C 
ENDROOT
BRANCH  12   8
ATOM      4  O   UNL     1       0.473   2.427  25.493  0.00  0.00    -0.267 OA
ATOM      8  N   UNL     1      -0.236   3.060  23.401  0.00  0.00    -0.301 N 
ATOM     16  C   UNL     1       0.519   2.273  24.270  0.00  0.00    +0.280 C 
ATOM     29  H   UNL     1      -0.204   2.862  22.404  0.00  0.00    +0.150 HD
BRANCH  16  18
ATOM      6  O   UNL     1       2.620   1.559  23.401  0.00  0.00    -0.458 OA
ATOM     18  C   UNL     1       1.345   1.233  23.641  0.00  0.00    +0.189 A 
ATOM     19  C   UNL     1       1.023  -0.016  23.259  0.00  0.00    +0.054 A 
ATOM     21  C   UNL     1       2.219  -0.544  22.718  0.00  0.00    +0.042 A 
ATOM     22  C   UNL     1       3.161   0.452  22.828  0.00  0.00    +0.196 A 
ENDBRANCH  16  18
ENDBRANCH  12   8
BRANCH  13   3
ATOM      3  O   UNL     1      -4.985   3.181  26.131  0.00  0.00    -0.442 OA
BRANCH   3  17
ATOM      5  O   UNL     1      -6.413   1.641  25.227  0.00  0.00    -0.226 OA
ATOM      9  N   UNL     1      -4.159   1.146  25.621  0.00  0.00    -0.251 N 
ATOM     17  C   UNL     1      -5.291   1.939  25.616  0.00  0.00    +0.405 C 
ATOM     30  H   UNL     1      -3.312   1.575  25.986  0.00  0.00    +0.158 HD
BRANCH   9  20
ATOM     20  C   UNL     1      -4.032  -0.192  25.181  0.00  0.00    +0.037 A 
ATOM     23  C   UNL     1      -4.525  -0.547  23.935  0.00  0.00    +0.027 A 
ATOM     24  C   UNL     1      -3.416  -1.121  26.003  0.00  0.00    +0.027 A 
ATOM     25  C   UNL     1      -4.399  -1.866  23.501  0.00  0.00    +0.047 A 
ATOM     26  C   UNL     1      -3.291  -2.441  25.569  0.00  0.00    +0.047 A 
ATOM     27  C   UNL     1      -3.782  -2.812  24.318  0.00  0.00    +0.120 A 
BRANCH  27   7
ATOM      7  O   UNL     1      -3.658  -4.100  23.893  0.00  0.00    -0.495 OA
ATOM     28  C   UNL     1      -2.518  -4.412  23.094  0.00  0.00    +0.277 C 
ENDBRANCH  27   7
ENDBRANCH   9  20
ENDBRANCH   3  17
ENDBRANCH  13   3
TORSDOF 6
ENDMDL
MODEL 2
REMARK VINA RESULT:       0.5      1.731      2.638
REMARK  Name = 11884055
REMARK  7 active torsions:
REMARK  status: ('A' for Active; 'I' for Inactive)
REMARK    1  A    between atoms: O_3  and  C_13
REMARK    2  A    between atoms: O_3  and  C_17
REMARK    3  A    between atoms: O_7  and  C_27
REMARK    4  A    between atoms: O_7  and  C_28
REMARK    5  A    between atoms: N_8  and  C_12
REMARK    6  A    between atoms: N_9  and  C_20
REMARK    7  A    between atoms: C_16  and  C_18
REMARK                            x       y       z     vdW  Elec       q    Type
REMARK                         _______ _______ _______ _____ _____    ______ ____
ROOT
ATOM      1  O   UNL     1      -0.850   1.416  24.876  0.00  0.00    -0.368 OA
ATOM      2  O   UNL     1      -0.509   4.140  23.508  0.00  0.00    -0.368 OA
ATOM     10  C   UNL     1       0.444   3.264  24.146  0.00  0.00    +0.173 C 
ATOM     11  C   UNL     1      -0.259   2.643  25.336  0.00  0.00    +0.192 C 
ATOM     12  C   UNL     1       0.750   2.087  23.250  0.00  0.00    +0.130 C 
ATOM     13  C   UNL     1      -1.305   3.678  25.673  0.00  0.00    +0.235 C 
ATOM     14  C   UNL     1      -0.418   1.157  23.531  0.00  0.00    +0.185 C 
ATOM     15  C   UNL     1      -1.700   4.190  24.307  0.00  0.00    +0.207 C 
ENDROOT
BRANCH  12   8
ATOM      4  O   UNL     1       2.037   0.026  21.817  0.00  0.00    -0.267 OA
ATOM      8  N   UNL     1       2.006   1.473  23.602  0.00  0.00    -0.301 N 
ATOM     16  C   UNL     1       2.579   0.456  22.838  0.00  0.00    +0.280 C 
ATOM     29  H   UNL     1       2.514   1.830  24.407  0.00  0.00    +0.150 HD
BRANCH  16  18
ATOM      6  O   UNL     1       3.920  -1.336  23.656  0.00  0.00    -0.458 OA
ATOM     18  C   UNL     1       3.878  -0.045  23.307  0.00  0.00    +0.189 A 
ATOM     19  C   UNL     1       5.054   0.594  23.447  0.00  0.00    +0.054 A 
ATOM     21  C   UNL     1       5.941  -0.394  23.937  0.00  0.00    +0.042 A 
ATOM     22  C   UNL     1       5.204  -1.550  24.046  0.00  0.00    +0.196 A 
ENDBRANCH  16  18
ENDBRANCH  12   8
BRANCH  13   3
ATOM      3  O   UNL     1      -2.407   3.153  26.382  0.00  0.00    -0.442 OA
BRANCH   3  17
ATOM      5  O   UNL     1      -4.230   2.541  25.145  0.00  0.00    -0.226 OA
ATOM      9  N   UNL     1      -2.624   0.979  25.825  0.00  0.00    -0.251 N 
ATOM     17  C   UNL     1      -3.194   2.234  25.721  0.00  0.00    +0.405 C 
ATOM     30  H   UNL     1      -1.754   0.923  26.348  0.00  0.00    +0.158 HD
BRANCH   9  20
ATOM     20  C   UNL     1      -3.104  -0.241  25.294  0.00  0.00    +0.037 A 
ATOM     23  C   UNL     1      -3.841  -0.227  24.120  0.00  0.00    +0.027 A 
ATOM     24  C   UNL     1      -2.826  -1.425  25.956  0.00  0.00    +0.027 A 
ATOM     25  C   UNL     1      -4.314  -1.429  23.596  0.00  0.00    +0.047 A 
ATOM     26  C   UNL     1      -3.299  -2.628  25.431  0.00  0.00    +0.047 A 
ATOM     27  C   UNL     1      -4.042  -2.630  24.251  0.00  0.00    +0.120 A 
BRANCH  27   7
ATOM      7  O   UNL     1      -4.501  -3.804  23.739  0.00  0.00    -0.495 OA
ATOM     28  C   UNL     1      -5.423  -3.722  22.652  0.00  0.00    +0.277 C 
ENDBRANCH  27   7
ENDBRANCH   9  20
ENDBRANCH   3  17
ENDBRANCH  13   3
TORSDOF 6
ENDMDL
MODEL 3
REMARK VINA RESULT:       1.0      2.005      5.496
REMARK  Name = 11884055
REMARK  7 active torsions:
REMARK  status: ('A' for Active; 'I' for Inactive)
REMARK    1  A    between atoms: O_3  and  C_13
REMARK    2  A    between atoms: O_3  and  C_17
REMARK    3  A    between atoms: O_7  and  C_27
REMARK    4  A    between atoms: O_7  and  C_28
REMARK    5  A    between atoms: N_8  and  C_12
REMARK    6  A    between atoms: N_9  and  C_20
REMARK    7  A    between atoms: C_16  and  C_18
REMARK                            x       y       z     vdW  Elec       q    Type
REMARK                         _______ _______ _______ _____ _____    ______ ____
ROOT
ATOM      1  O   UNL     1      -2.612  -0.581  25.595  0.00  0.00    -0.368 OA
ATOM      2  O   UNL     1      -2.555  -3.351  24.279  0.00  0.00    -0.368 OA
ATOM     10  C   UNL     1      -1.749  -2.173  24.064  0.00  0.00    +0.173 C 
ATOM     11  C   UNL     1      -2.669  -0.979  24.214  0.00  0.00    +0.192 C 
ATOM     12  C   UNL     1      -0.756  -2.011  25.190  0.00  0.00    +0.130 C 
ATOM     13  C   UNL     1      -4.016  -1.556  23.853  0.00  0.00    +0.235 C 
ATOM     14  C   UNL     1      -1.595  -1.343  26.266  0.00  0.00    +0.185 C 
ATOM     15  C   UNL     1      -3.927  -2.954  24.421  0.00  0.00    +0.207 C 
ENDROOT
BRANCH  12   8
ATOM      4  O   UNL     1      -0.147  -1.216  22.553  0.00  0.00    -0.267 OA
ATOM      8  N   UNL     1       0.353  -1.178  24.795  0.00  0.00    -0.301 N 
ATOM     16  C   UNL     1       0.586  -0.828  23.466  0.00  0.00    +0.280 C 
ATOM     29  H   UNL     1       0.954  -0.792  25.519  0.00  0.00    +0.150 HD
BRANCH  16  18
ATOM      6  O   UNL     1       2.868  -0.546  22.840  0.00  0.00    -0.458 OA
ATOM     18  C   UNL     1       1.736   0.054  23.226  0.00  0.00    +0.189 A 
ATOM     19  C   UNL     1       1.840   1.391  23.335  0.00  0.00    +0.054 A 
ATOM     21  C   UNL     1       3.180   1.676  22.981  0.00  0.00    +0.042 A 
ATOM     22  C   UNL     1       3.763   0.465  22.687  0.00  0.00    +0.196 A 
ENDBRANCH  16  18
ENDBRANCH  12   8
BRANCH  13   3
ATOM      3  O   UNL     1      -5.101  -0.832  24.391  0.00  0.00    -0.442 OA
BRANCH   3  17
ATOM      5  O   UNL     1      -5.396   0.832  25.931  0.00  0.00    -0.226 OA
ATOM      9  N   UNL     1      -3.814   1.010  24.216  0.00  0.00    -0.251 N 
ATOM     17  C   UNL     1      -4.816   0.399  24.944  0.00  0.00    +0.405 C 
ATOM     30  H   UNL     1      -3.453   0.488  23.421  0.00  0.00    +0.158 HD
BRANCH   9  20
ATOM     20  C   UNL     1      -3.224   2.277  24.439  0.00  0.00    +0.037 A 
ATOM     23  C   UNL     1      -1.859   2.360  24.662  0.00  0.00    +0.027 A 
ATOM     24  C   UNL     1      -4.023   3.408  24.430  0.00  0.00    +0.027 A 
ATOM     25  C   UNL     1      -1.278   3.609  24.882  0.00  0.00    +0.047 A 
ATOM     26  C   UNL     1      -3.441   4.657  24.650  0.00  0.00    +0.047 A 
ATOM     27  C   UNL     1      -2.069   4.757  24.876  0.00  0.00    +0.120 A 
BRANCH  27   7
ATOM      7  O   UNL     1      -1.502   5.975  25.089  0.00  0.00    -0.495 OA
ATOM     28  C   UNL     1      -0.154   6.149  24.653  0.00  0.00    +0.277 C 
ENDBRANCH  27   7
ENDBRANCH   9  20
ENDBRANCH   3  17
ENDBRANCH  13   3
TORSDOF 6
ENDMDL
MODEL 4
REMARK VINA RESULT:       1.6      1.985      7.100
REMARK  Name = 11884055
REMARK  7 active torsions:
REMARK  status: ('A' for Active; 'I' for Inactive)
REMARK    1  A    between atoms: O_3  and  C_13
REMARK    2  A    between atoms: O_3  and  C_17
REMARK    3  A    between atoms: O_7  and  C_27
REMARK    4  A    between atoms: O_7  and  C_28
REMARK    5  A    between atoms: N_8  and  C_12
REMARK    6  A    between atoms: N_9  and  C_20
REMARK    7  A    between atoms: C_16  and  C_18
REMARK                            x       y       z     vdW  Elec       q    Type
REMARK                         _______ _______ _______ _____ _____    ______ ____
ROOT
ATOM      1  O   UNL     1      -2.157  -0.521  23.746  0.00  0.00    -0.368 OA
ATOM      2  O   UNL     1      -3.369  -3.135  24.796  0.00  0.00    -0.368 OA
ATOM     10  C   UNL     1      -3.559  -1.763  25.200  0.00  0.00    +0.173 C 
ATOM     11  C   UNL     1      -2.214  -1.078  25.070  0.00  0.00    +0.192 C 
ATOM     12  C   UNL     1      -4.431  -1.043  24.200  0.00  0.00    +0.130 C 
ATOM     13  C   UNL     1      -1.246  -2.224  25.238  0.00  0.00    +0.235 C 
ATOM     14  C   UNL     1      -3.437  -0.672  23.112  0.00  0.00    +0.185 C 
ATOM     15  C   UNL     1      -1.972  -3.359  24.554  0.00  0.00    +0.207 C 
ENDROOT
BRANCH  12   8
ATOM      4  O   UNL     1      -3.652   1.625  23.717  0.00  0.00    -0.267 OA
ATOM      8  N   UNL     1      -5.036   0.131  24.781  0.00  0.00    -0.301 N 
ATOM     16  C   UNL     1      -4.591   1.420  24.490  0.00  0.00    +0.280 C 
ATOM     29  H   UNL     1      -5.846   0.013  25.384  0.00  0.00    +0.150 HD
BRANCH  16  18
ATOM      6  O   UNL     1      -4.918   3.754  24.845  0.00  0.00    -0.458 OA
ATOM     18  C   UNL     1      -5.329   2.515  25.135  0.00  0.00    +0.189 A 
ATOM     19  C   UNL     1      -6.371   2.474  25.986  0.00  0.00    +0.054 A 
ATOM     21  C   UNL     1      -6.654   3.830  26.269  0.00  0.00    +0.042 A 
ATOM     22  C   UNL     1      -5.744   4.569  25.551  0.00  0.00    +0.196 A 
ENDBRANCH  16  18
ENDBRANCH  12   8
BRANCH  13   3
ATOM      3  O   UNL     1       0.020  -1.980  24.664  0.00  0.00    -0.442 OA
BRANCH   3  17
ATOM      5  O   UNL     1       1.023  -0.430  23.315  0.00  0.00    -0.226 OA
ATOM      9  N   UNL     1      -0.416   0.198  25.052  0.00  0.00    -0.251 N 
ATOM     17  C   UNL     1       0.279  -0.690  24.253  0.00  0.00    +0.405 C 
ATOM     30  H   UNL     1      -0.987  -0.212  25.786  0.00  0.00    +0.158 HD
BRANCH   9  20
ATOM     20  C   UNL     1      -0.432   1.610  24.974  0.00  0.00    +0.037 A 
ATOM     23  C   UNL     1       0.341   2.246  24.016  0.00  0.00    +0.027 A 
ATOM     24  C   UNL     1      -1.221   2.329  25.857  0.00  0.00    +0.027 A 
ATOM     25  C   UNL     1       0.325   3.638  23.939  0.00  0.00    +0.047 A 
ATOM     26  C   UNL     1      -1.237   3.722  25.779  0.00  0.00    +0.047 A 
ATOM     27  C   UNL     1      -0.464   4.376  24.821  0.00  0.00    +0.120 A 
BRANCH  27   7
ATOM      7  O   UNL     1      -0.481   5.735  24.745  0.00  0.00    -0.495 OA
ATOM     28  C   UNL     1      -1.740   6.379  24.934  0.00  0.00    +0.277 C 
ENDBRANCH  27   7
ENDBRANCH   9  20
ENDBRANCH   3  17
ENDBRANCH  13   3
TORSDOF 6
ENDMDL
MODEL 5
REMARK VINA RESULT:       2.0      2.371      2.944
REMARK  Name = 11884055
REMARK  7 active torsions:
REMARK  status: ('A' for Active; 'I' for Inactive)
REMARK    1  A    between atoms: O_3  and  C_13
REMARK    2  A    between atoms: O_3  and  C_17
REMARK    3  A    between atoms: O_7  and  C_27
REMARK    4  A    between atoms: O_7  and  C_28
REMARK    5  A    between atoms: N_8  and  C_12
REMARK    6  A    between atoms: N_9  and  C_20
REMARK    7  A    between atoms: C_16  and  C_18
REMARK                            x       y       z     vdW  Elec       q    Type
REMARK                         _______ _______ _______ _____ _____    ______ ____
ROOT
ATOM      1  O   UNL     1      -2.625   2.571  25.362  0.00  0.00    -0.368 OA
ATOM      2  O   UNL     1      -2.466   5.417  24.230  0.00  0.00    -0.368 OA
ATOM     10  C   UNL     1      -1.942   4.841  25.445  0.00  0.00    +0.173 C 
ATOM     11  C   UNL     1      -2.971   3.843  25.937  0.00  0.00    +0.192 C 
ATOM     12  C   UNL     1      -0.732   3.991  25.136  0.00  0.00    +0.130 C 
ATOM     13  C   UNL     1      -4.255   4.388  25.360  0.00  0.00    +0.235 C 
ATOM     14  C   UNL     1      -1.362   2.683  24.688  0.00  0.00    +0.185 C 
ATOM     15  C   UNL     1      -3.801   4.931  24.024  0.00  0.00    +0.207 C 
ENDROOT
BRANCH  12   8
ATOM      4  O   UNL     1      -0.274   1.541  26.457  0.00  0.00    -0.267 OA
ATOM      8  N   UNL     1       0.090   3.805  26.306  0.00  0.00    -0.301 N 
ATOM     16  C   UNL     1       0.267   2.556  26.902  0.00  0.00    +0.280 C 
ATOM     29  H   UNL     1       0.596   4.604  26.678  0.00  0.00    +0.150 HD
BRANCH  16  18
ATOM      6  O   UNL     1       2.392   3.009  27.881  0.00  0.00    -0.458 OA
ATOM     18  C   UNL     1       1.160   2.522  28.068  0.00  0.00    +0.189 A 
ATOM     19  C   UNL     1       0.938   2.072  29.317  0.00  0.00    +0.054 A 
ATOM     21  C   UNL     1       2.156   2.296  29.999  0.00  0.00    +0.042 A 
ATOM     22  C   UNL     1       3.008   2.868  29.084  0.00  0.00    +0.196 A 
ENDBRANCH  16  18
ENDBRANCH  12   8
BRANCH  13   3
ATOM      3  O   UNL     1      -5.267   3.414  25.221  0.00  0.00    -0.442 OA
BRANCH   3  17
ATOM      5  O   UNL     1      -4.929   2.240  23.287  0.00  0.00    -0.226 OA
ATOM      9  N   UNL     1      -4.658   1.250  25.391  0.00  0.00    -0.251 N 
ATOM     17  C   UNL     1      -4.944   2.276  24.511  0.00  0.00    +0.405 C 
ATOM     30  H   UNL     1      -4.724   1.475  26.381  0.00  0.00    +0.158 HD
BRANCH   9  20
ATOM     20  C   UNL     1      -4.282  -0.079  25.085  0.00  0.00    +0.037 A 
ATOM     23  C   UNL     1      -4.780  -0.678  23.938  0.00  0.00    +0.027 A 
ATOM     24  C   UNL     1      -3.424  -0.755  25.936  0.00  0.00    +0.027 A 
ATOM     25  C   UNL     1      -4.410  -1.988  23.636  0.00  0.00    +0.047 A 
ATOM     26  C   UNL     1      -3.054  -2.066  25.634  0.00  0.00    +0.047 A 
ATOM     27  C   UNL     1      -3.547  -2.681  24.484  0.00  0.00    +0.120 A 
BRANCH  27   7
ATOM      7  O   UNL     1      -3.184  -3.960  24.189  0.00  0.00    -0.495 OA
ATOM     28  C   UNL     1      -2.091  -4.132  23.289  0.00  0.00    +0.277 C 
ENDBRANCH  27   7
ENDBRANCH   9  20
ENDBRANCH   3  17
ENDBRANCH  13   3
TORSDOF 6
ENDMDL
MODEL 6
REMARK VINA RESULT:       2.6      2.265      4.881
REMARK  Name = 11884055
REMARK  7 active torsions:
REMARK  status: ('A' for Active; 'I' for Inactive)
REMARK    1  A    between atoms: O_3  and  C_13
REMARK    2  A    between atoms: O_3  and  C_17
REMARK    3  A    between atoms: O_7  and  C_27
REMARK    4  A    between atoms: O_7  and  C_28
REMARK    5  A    between atoms: N_8  and  C_12
REMARK    6  A    between atoms: N_9  and  C_20
REMARK    7  A    between atoms: C_16  and  C_18
REMARK                            x       y       z     vdW  Elec       q    Type
REMARK                         _______ _______ _______ _____ _____    ______ ____
ROOT
ATOM      1  O   UNL     1      -1.759  -0.639  23.489  0.00  0.00    -0.368 OA
ATOM      2  O   UNL     1      -1.553  -1.035  26.524  0.00  0.00    -0.368 OA
ATOM     10  C   UNL     1      -0.596  -1.248  25.465  0.00  0.00    +0.173 C 
ATOM     11  C   UNL     1      -1.370  -1.779  24.274  0.00  0.00    +0.192 C 
ATOM     12  C   UNL     1      -0.052   0.075  24.982  0.00  0.00    +0.130 C 
ATOM     13  C   UNL     1      -2.559  -2.441  24.927  0.00  0.00    +0.235 C 
ATOM     14  C   UNL     1      -1.135   0.540  24.024  0.00  0.00    +0.185 C 
ATOM     15  C   UNL     1      -2.834  -1.524  26.097  0.00  0.00    +0.207 C 
ENDROOT
BRANCH  12   8
ATOM      4  O   UNL     1       1.471   2.133  23.798  0.00  0.00    -0.267 OA
ATOM      8  N   UNL     1       1.211  -0.092  24.306  0.00  0.00    -0.301 N 
ATOM     16  C   UNL     1       1.905   0.980  23.746  0.00  0.00    +0.280 C 
ATOM     29  H   UNL     1       1.632  -1.017  24.284  0.00  0.00    +0.150 HD
BRANCH  16  18
ATOM      6  O   UNL     1       4.249   0.601  23.940  0.00  0.00    -0.458 OA
ATOM     18  C   UNL     1       3.193   0.653  23.120  0.00  0.00    +0.189 A 
ATOM     19  C   UNL     1       3.491   0.395  21.834  0.00  0.00    +0.054 A 
ATOM     21  C   UNL     1       4.885   0.151  21.831  0.00  0.00    +0.042 A 
ATOM     22  C   UNL     1       5.299   0.288  23.136  0.00  0.00    +0.196 A 
ENDBRANCH  16  18
ENDBRANCH  12   8
BRANCH  13   3
ATOM      3  O   UNL     1      -3.676  -2.560  24.073  0.00  0.00    -0.442 OA
BRANCH   3  17
ATOM      5  O   UNL     1      -5.689  -1.605  23.558  0.00  0.00    -0.226 OA
ATOM      9  N   UNL     1      -4.064  -0.460  24.794  0.00  0.00    -0.251 N 
ATOM     17  C   UNL     1      -4.591  -1.529  24.095  0.00  0.00    +0.405 C 
ATOM     30  H   UNL     1      -3.127  -0.587  25.170  0.00  0.00    +0.158 HD
BRANCH   9  20
ATOM     20  C   UNL     1      -4.667   0.793  25.053  0.00  0.00    +0.037 A 
ATOM     23  C   UNL     1      -5.744   0.860  25.924  0.00  0.00    +0.027 A 
ATOM     24  C   UNL     1      -4.170   1.927  24.433  0.00  0.00    +0.027 A 
ATOM     25  C   UNL     1      -6.339   2.095  26.180  0.00  0.00    +0.047 A 
ATOM     26  C   UNL     1      -4.765   3.162  24.690  0.00  0.00    +0.047 A 
ATOM     27  C   UNL     1      -5.849   3.246  25.563  0.00  0.00    +0.120 A 
BRANCH  27   7
ATOM      7  O   UNL     1      -6.429   4.452  25.814  0.00  0.00    -0.495 OA
ATOM     28  C   UNL     1      -5.942   5.572  25.076  0.00  0.00    +0.277 C 
ENDBRANCH  27   7
ENDBRANCH   9  20
ENDBRANCH   3  17
ENDBRANCH  13   3
TORSDOF 6
ENDMDL
MODEL 7
REMARK VINA RESULT:       3.3      2.241      6.325
REMARK  Name = 11884055
REMARK  7 active torsions:
REMARK  status: ('A' for Active; 'I' for Inactive)
REMARK    1  A    between atoms: O_3  and  C_13
REMARK    2  A    between atoms: O_3  and  C_17
REMARK    3  A    between atoms: O_7  and  C_27
REMARK    4  A    between atoms: O_7  and  C_28
REMARK    5  A    between atoms: N_8  and  C_12
REMARK    6  A    between atoms: N_9  and  C_20
REMARK    7  A    between atoms: C_16  and  C_18
REMARK                            x       y       z     vdW  Elec       q    Type
REMARK                         _______ _______ _______ _____ _____    ______ ____
ROOT
ATOM      1  O   UNL     1      -2.103  -0.204  23.550  0.00  0.00    -0.368 OA
ATOM      2  O   UNL     1      -4.808  -1.045  24.728  0.00  0.00    -0.368 OA
ATOM     10  C   UNL     1      -3.947   0.077  25.015  0.00  0.00    +0.173 C 
ATOM     11  C   UNL     1      -2.521  -0.424  24.908  0.00  0.00    +0.192 C 
ATOM     12  C   UNL     1      -4.052   1.108  23.916  0.00  0.00    +0.130 C 
ATOM     13  C   UNL     1      -2.669  -1.895  25.217  0.00  0.00    +0.235 C 
ATOM     14  C   UNL     1      -3.113   0.551  22.860  0.00  0.00    +0.185 C 
ATOM     15  C   UNL     1      -4.001  -2.223  24.582  0.00  0.00    +0.207 C 
ENDROOT
BRANCH  12   8
ATOM      4  O   UNL     1      -1.510   2.248  23.476  0.00  0.00    -0.267 OA
ATOM      8  N   UNL     1      -3.620   2.406  24.371  0.00  0.00    -0.301 N 
ATOM     16  C   UNL     1      -2.342   2.900  24.111  0.00  0.00    +0.280 C 
ATOM     29  H   UNL     1      -4.289   3.000  24.855  0.00  0.00    +0.150 HD
BRANCH  16  18
ATOM      6  O   UNL     1      -0.834   4.727  24.374  0.00  0.00    -0.458 OA
ATOM     18  C   UNL     1      -2.062   4.252  24.612  0.00  0.00    +0.189 A 
ATOM     19  C   UNL     1      -2.853   5.108  25.285  0.00  0.00    +0.054 A 
ATOM     21  C   UNL     1      -2.045   6.249  25.500  0.00  0.00    +0.042 A 
ATOM     22  C   UNL     1      -0.827   5.968  24.926  0.00  0.00    +0.196 A 
ENDBRANCH  16  18
ENDBRANCH  12   8
BRANCH  13   3
ATOM      3  O   UNL     1      -1.623  -2.686  24.697  0.00  0.00    -0.442 OA
BRANCH   3  17
ATOM      5  O   UNL     1       0.293  -2.442  25.921  0.00  0.00    -0.226 OA
ATOM      9  N   UNL     1       0.077  -1.524  23.778  0.00  0.00    -0.251 N 
ATOM     17  C   UNL     1      -0.337  -2.228  24.893  0.00  0.00    +0.405 C 
ATOM     30  H   UNL     1      -0.594  -1.453  23.017  0.00  0.00    +0.158 HD
BRANCH   9  20
ATOM     20  C   UNL     1       1.322  -0.889  23.563  0.00  0.00    +0.037 A 
ATOM     23  C   UNL     1       1.347   0.450  23.205  0.00  0.00    +0.027 A 
ATOM     24  C   UNL     1       2.490  -1.617  23.714  0.00  0.00    +0.027 A 
ATOM     25  C   UNL     1       2.575   1.077  22.993  0.00  0.00    +0.047 A 
ATOM     26  C   UNL     1       3.718  -0.989  23.502  0.00  0.00    +0.047 A 
ATOM     27  C   UNL     1       3.760   0.357  23.142  0.00  0.00    +0.120 A 
BRANCH  27   7
ATOM      7  O   UNL     1       4.958   0.969  22.937  0.00  0.00    -0.495 OA
ATOM     28  C   UNL     1       6.079   0.459  23.657  0.00  0.00    +0.277 C 
ENDBRANCH  27   7
ENDBRANCH   9  20
ENDBRANCH   3  17
ENDBRANCH  13   3
TORSDOF 6
ENDMDL
