MODEL 1
REMARK VINA RESULT:      -3.6      0.000      0.000
REMARK  Name = 51136770
REMARK  6 active torsions:
REMARK  status: ('A' for Active; 'I' for Inactive)
REMARK    1  A    between atoms: O_4  and  C_18
REMARK    2  A    between atoms: C_8  and  C_13
REMARK    3  A    between atoms: C_9  and  C_14
REMARK    4  A    between atoms: C_13  and  C_15
REMARK    5  A    between atoms: C_14  and  C_18
REMARK    6  A    between atoms: C_16  and  C_22
REMARK                            x       y       z     vdW  Elec       q    Type
REMARK                         _______ _______ _______ _____ _____    ______ ____
ROOT
ATOM      3  O   UNL     1      16.504  -4.748  25.817  0.00  0.00    -0.270 OA
ATOM      6  N   UNL     1      17.157  -5.621  27.887  0.00  0.00    -0.297 N 
ATOM      8  C   UNL     1      16.565  -6.659  30.065  0.00  0.00    +0.016 C 
ATOM      9  C   UNL     1      16.804  -5.285  30.741  0.00  0.00    +0.006 C 
ATOM     10  C   UNL     1      16.581  -4.125  29.757  0.00  0.00    +0.023 C 
ATOM     11  C   UNL     1      17.402  -6.764  28.777  0.00  0.00    +0.112 C 
ATOM     12  C   UNL     1      17.405  -4.312  28.486  0.00  0.00    +0.108 C 
ATOM     16  C   UNL     1      16.715  -5.702  26.564  0.00  0.00    +0.247 C 
ENDROOT
BRANCH  16  22
ATOM      2  F   UNL     1      15.805 -10.780  24.396  0.00  0.00    -0.205 F 
ATOM     22  C   UNL     1      16.477  -7.034  25.996  0.00  0.00    +0.037 A 
ATOM     26  C   UNL     1      15.323  -7.740  26.336  0.00  0.00    +0.016 A 
ATOM     27  C   UNL     1      17.403  -7.592  25.115  0.00  0.00    +0.016 A 
ATOM     29  C   UNL     1      15.097  -9.006  25.796  0.00  0.00    +0.039 A 
ATOM     30  C   UNL     1      17.176  -8.858  24.575  0.00  0.00    +0.039 A 
ATOM     31  C   UNL     1      16.024  -9.565  24.915  0.00  0.00    +0.123 A 
ENDBRANCH  16  22
BRANCH   8  13
ATOM     13  C   UNL     1      15.089  -6.958  29.767  0.00  0.00    +0.061 C 
BRANCH  13  15
ATOM      1  F   UNL     1       9.449  -8.707  32.503  0.00  0.00    -0.205 F 
ATOM      7  N   UNL     1      15.522  -9.170  30.595  0.00  0.00    -0.287 NA
ATOM     15  C   UNL     1      14.662  -8.210  30.493  0.00  0.00    +0.044 C 
ATOM     17  C   UNL     1      13.285  -8.284  31.043  0.00  0.00    -0.001 A 
ATOM     19  C   UNL     1      12.796  -9.559  31.354  0.00  0.00    -0.034 A 
ATOM     20  C   UNL     1      13.675 -10.748  31.102  0.00  0.00    +0.059 C 
ATOM     21  C   UNL     1      15.127 -10.363  31.353  0.00  0.00    +0.146 C 
ATOM     23  C   UNL     1      12.488  -7.153  31.238  0.00  0.00    +0.013 A 
ATOM     24  C   UNL     1      11.493  -9.699  31.838  0.00  0.00    +0.042 A 
ATOM     25  C   UNL     1      11.193  -7.303  31.736  0.00  0.00    +0.039 A 
ATOM     28  C   UNL     1      10.695  -8.572  32.033  0.00  0.00    +0.124 A 
ENDBRANCH  13  15
ENDBRANCH   8  13
BRANCH   9  14
ATOM     14  C   UNL     1      15.973  -5.085  32.008  0.00  0.00    +0.124 C 
BRANCH  14  18
ATOM      5  O   UNL     1      15.512  -2.693  31.952  0.00  0.00    -0.251 OA
ATOM     18  C   UNL     1      15.120  -3.850  31.923  0.00  0.00    +0.305 C 
BRANCH  18   4
ATOM      4  O   UNL     1      13.814  -4.202  31.807  0.00  0.00    -0.481 OA
ATOM     32  H   UNL     1      13.298  -3.963  32.606  0.00  0.00    +0.295 HD
ENDBRANCH  18   4
ENDBRANCH  14  18
ENDBRANCH   9  14
TORSDOF 6
ENDMDL
MODEL 2
REMARK VINA RESULT:      -0.2     17.776     20.121
REMARK  Name = 51136770
REMARK  6 active torsions:
REMARK  status: ('A' for Active; 'I' for Inactive)
REMARK    1  A    between atoms: O_4  and  C_18
REMARK    2  A    between atoms: C_8  and  C_13
REMARK    3  A    between atoms: C_9  and  C_14
REMARK    4  A    between atoms: C_13  and  C_15
REMARK    5  A    between atoms: C_14  and  C_18
REMARK    6  A    between atoms: C_16  and  C_22
REMARK                            x       y       z     vdW  Elec       q    Type
REMARK                         _______ _______ _______ _____ _____    ______ ____
ROOT
ATOM      3  O   UNL     1      -2.280   5.251  25.550  0.00  0.00    -0.270 OA
ATOM      6  N   UNL     1      -1.523   3.572  24.106  0.00  0.00    -0.297 N 
ATOM      8  C   UNL     1      -0.609   1.288  23.756  0.00  0.00    +0.016 C 
ATOM      9  C   UNL     1       0.780   1.926  23.496  0.00  0.00    +0.006 C 
ATOM     10  C   UNL     1       0.921   3.282  24.208  0.00  0.00    +0.023 C 
ATOM     11  C   UNL     1      -1.722   2.294  23.409  0.00  0.00    +0.112 C 
ATOM     12  C   UNL     1      -0.235   4.214  23.855  0.00  0.00    +0.108 C 
ATOM     16  C   UNL     1      -2.444   4.184  24.960  0.00  0.00    +0.247 C 
ENDROOT
BRANCH  16  22
ATOM      2  F   UNL     1      -7.336   1.609  25.830  0.00  0.00    -0.205 F 
ATOM     22  C   UNL     1      -3.727   3.509  25.188  0.00  0.00    +0.037 A 
ATOM     26  C   UNL     1      -4.386   2.888  24.127  0.00  0.00    +0.016 A 
ATOM     27  C   UNL     1      -4.287   3.488  26.466  0.00  0.00    +0.016 A 
ATOM     29  C   UNL     1      -5.606   2.247  24.344  0.00  0.00    +0.039 A 
ATOM     30  C   UNL     1      -5.506   2.846  26.682  0.00  0.00    +0.039 A 
ATOM     31  C   UNL     1      -6.165   2.226  25.622  0.00  0.00    +0.123 A 
ENDBRANCH  16  22
BRANCH   8  13
ATOM     13  C   UNL     1      -0.795   0.762  25.186  0.00  0.00    +0.061 C 
BRANCH  13  15
ATOM      1  F   UNL     1      -5.839  -2.952  23.417  0.00  0.00    -0.205 F 
ATOM      7  N   UNL     1       0.008  -1.478  25.511  0.00  0.00    -0.287 NA
ATOM     15  C   UNL     1      -0.989  -0.735  25.160  0.00  0.00    +0.044 C 
ATOM     17  C   UNL     1      -2.302  -1.277  24.729  0.00  0.00    -0.001 A 
ATOM     19  C   UNL     1      -2.334  -2.625  24.346  0.00  0.00    -0.034 A 
ATOM     20  C   UNL     1      -1.059  -3.414  24.382  0.00  0.00    +0.059 C 
ATOM     21  C   UNL     1      -0.200  -2.930  25.543  0.00  0.00    +0.146 C 
ATOM     23  C   UNL     1      -3.463  -0.502  24.684  0.00  0.00    +0.013 A 
ATOM     24  C   UNL     1      -3.531  -3.185  23.892  0.00  0.00    +0.042 A 
ATOM     25  C   UNL     1      -4.656  -1.075  24.244  0.00  0.00    +0.039 A 
ATOM     28  C   UNL     1      -4.691  -2.412  23.846  0.00  0.00    +0.124 A 
ENDBRANCH  13  15
ENDBRANCH   8  13
BRANCH   9  14
ATOM     14  C   UNL     1       1.943   1.003  23.860  0.00  0.00    +0.124 C 
BRANCH  14  18
ATOM      5  O   UNL     1       3.931   0.753  22.472  0.00  0.00    -0.251 OA
ATOM     18  C   UNL     1       2.731   0.598  22.645  0.00  0.00    +0.305 C 
BRANCH  18   4
ATOM      4  O   UNL     1       1.906   0.020  21.735  0.00  0.00    -0.481 OA
ATOM     32  H   UNL     1       1.254  -0.578  22.161  0.00  0.00    +0.295 HD
ENDBRANCH  18   4
ENDBRANCH  14  18
ENDBRANCH   9  14
TORSDOF 6
ENDMDL
