MODEL 1
REMARK VINA RESULT:       3.3      0.000      0.000
REMARK  Name = 25390364
REMARK  9 active torsions:
REMARK  status: ('A' for Active; 'I' for Inactive)
REMARK    1  A    between atoms: S_1  and  N_9
REMARK    2  A    between atoms: S_1  and  C_24
REMARK    3  A    between atoms: O_3  and  C_13
REMARK    4  A    between atoms: O_4  and  C_14
REMARK    5  A    between atoms: N_9  and  C_17
REMARK    6  A    between atoms: C_12  and  C_16
REMARK    7  A    between atoms: C_15  and  C_17
REMARK    8  A    between atoms: C_16  and  C_18
REMARK    9  A    between atoms: C_32  and  C_34
REMARK                            x       y       z     vdW  Elec       q    Type
REMARK                         _______ _______ _______ _____ _____    ______ ____
ROOT
ATOM      2  O   UNL     1      -2.122  -0.483  24.762  0.00  0.00    -0.366 OA
ATOM     12  C   UNL     1      -3.482  -0.343  24.314  0.00  0.00    +0.158 C 
ATOM     13  C   UNL     1      -3.806  -1.633  23.579  0.00  0.00    +0.175 C 
ATOM     14  C   UNL     1      -3.033  -2.649  24.394  0.00  0.00    +0.175 C 
ATOM     15  C   UNL     1      -1.759  -1.882  24.732  0.00  0.00    +0.165 C 
ENDROOT
BRANCH  13   3
ATOM      3  O   UNL     1      -5.194  -1.886  23.542  0.00  0.00    -0.387 OA
ATOM     35  H   UNL     1      -5.355  -2.521  22.823  0.00  0.00    +0.210 HD
ENDBRANCH  13   3
BRANCH  14   4
ATOM      4  O   UNL     1      -3.717  -2.929  25.615  0.00  0.00    -0.387 OA
ATOM     36  H   UNL     1      -3.337  -3.746  25.981  0.00  0.00    +0.210 HD
ENDBRANCH  14   4
BRANCH  12  16
ATOM     16  C   UNL     1      -3.609   0.894  23.442  0.00  0.00    +0.130 C 
BRANCH  16  18
ATOM      5  O   UNL     1      -4.512   2.941  24.237  0.00  0.00    -0.276 OA
ATOM      8  N   UNL     1      -2.472   2.283  25.135  0.00  0.00    -0.298 N 
ATOM     10  N   UNL     1      -0.325   2.588  27.051  0.00  0.00    -0.312 N 
ATOM     11  N   UNL     1       1.972   2.770  27.568  0.00  0.00    -0.240 NA
ATOM     18  C   UNL     1      -3.583   2.134  24.303  0.00  0.00    +0.218 C 
ATOM     19  C   UNL     1      -2.371   3.459  25.995  0.00  0.00    +0.126 C 
ATOM     20  C   UNL     1      -1.375   1.317  25.219  0.00  0.00    +0.126 C 
ATOM     21  C   UNL     1      -1.656   3.147  27.307  0.00  0.00    +0.125 C 
ATOM     22  C   UNL     1      -0.086   1.933  25.763  0.00  0.00    +0.125 C 
ATOM     23  C   UNL     1       0.691   2.711  27.996  0.00  0.00    +0.121 A 
ATOM     25  C   UNL     1       0.314   2.762  29.329  0.00  0.00    +0.043 A 
ATOM     28  C   UNL     1       1.317   2.884  30.284  0.00  0.00    +0.005 A 
ATOM     29  C   UNL     1       2.919   2.889  28.526  0.00  0.00    +0.113 A 
ATOM     33  C   UNL     1       2.647   2.949  29.883  0.00  0.00    +0.020 A 
ENDBRANCH  16  18
ENDBRANCH  12  16
BRANCH  15  17
ATOM     17  C   UNL     1      -0.664  -2.057  23.688  0.00  0.00    +0.140 C 
BRANCH  17   9
ATOM      9  N   UNL     1       0.431  -1.166  23.932  0.00  0.00    -0.187 NA
ATOM     37  H   UNL     1       0.580  -0.880  24.908  0.00  0.00    +0.148 HD
BRANCH   9   1
ATOM      1  S   UNL     1       1.020  -0.114  22.701  0.00  0.00    +0.058 S 
ATOM      6  O   UNL     1       0.539   1.227  22.969  0.00  0.00    -0.153 OA
ATOM      7  O   UNL     1       0.823  -0.711  21.394  0.00  0.00    -0.153 OA
BRANCH   1  24
ATOM     24  C   UNL     1       2.757  -0.144  23.026  0.00  0.00    +0.105 A 
ATOM     26  C   UNL     1       3.344  -1.284  23.575  0.00  0.00    +0.029 A 
ATOM     27  C   UNL     1       3.541   0.973  22.736  0.00  0.00    +0.029 A 
ATOM     30  C   UNL     1       4.715  -1.307  23.835  0.00  0.00    +0.005 A 
ATOM     31  C   UNL     1       4.912   0.950  22.994  0.00  0.00    +0.005 A 
ATOM     32  C   UNL     1       5.498  -0.190  23.544  0.00  0.00    -0.050 A 
ATOM     34  C   UNL     1       6.963  -0.215  23.821  0.00  0.00    +0.044 C 
ENDBRANCH   1  24
ENDBRANCH   9   1
ENDBRANCH  17   9
ENDBRANCH  15  17
TORSDOF 8
ENDMDL
MODEL 2
REMARK VINA RESULT:       3.6      2.174      5.483
REMARK  Name = 25390364
REMARK  9 active torsions:
REMARK  status: ('A' for Active; 'I' for Inactive)
REMARK    1  A    between atoms: S_1  and  N_9
REMARK    2  A    between atoms: S_1  and  C_24
REMARK    3  A    between atoms: O_3  and  C_13
REMARK    4  A    between atoms: O_4  and  C_14
REMARK    5  A    between atoms: N_9  and  C_17
REMARK    6  A    between atoms: C_12  and  C_16
REMARK    7  A    between atoms: C_15  and  C_17
REMARK    8  A    between atoms: C_16  and  C_18
REMARK    9  A    between atoms: C_32  and  C_34
REMARK                            x       y       z     vdW  Elec       q    Type
REMARK                         _______ _______ _______ _____ _____    ______ ____
ROOT
ATOM      2  O   UNL     1      -4.279   2.642  24.125  0.00  0.00    -0.366 OA
ATOM     12  C   UNL     1      -5.299   1.682  24.452  0.00  0.00    +0.158 C 
ATOM     13  C   UNL     1      -5.574   1.865  25.935  0.00  0.00    +0.175 C 
ATOM     14  C   UNL     1      -5.404   3.362  26.093  0.00  0.00    +0.175 C 
ATOM     15  C   UNL     1      -4.231   3.648  25.162  0.00  0.00    +0.165 C 
ENDROOT
BRANCH  13   3
ATOM      3  O   UNL     1      -6.860   1.407  26.296  0.00  0.00    -0.387 OA
ATOM     35  H   UNL     1      -7.360   2.172  26.627  0.00  0.00    +0.210 HD
ENDBRANCH  13   3
BRANCH  14   4
ATOM      4  O   UNL     1      -6.548   4.046  25.585  0.00  0.00    -0.387 OA
ATOM     36  H   UNL     1      -6.432   4.992  25.781  0.00  0.00    +0.210 HD
ENDBRANCH  14   4
BRANCH  12  16
ATOM     16  C   UNL     1      -4.820   0.285  24.097  0.00  0.00    +0.130 C 
BRANCH  16  18
ATOM      5  O   UNL     1      -4.128  -0.640  26.172  0.00  0.00    -0.276 OA
ATOM      8  N   UNL     1      -2.446  -0.010  24.698  0.00  0.00    -0.298 N 
ATOM     10  N   UNL     1       0.337   0.071  23.906  0.00  0.00    -0.312 N 
ATOM     11  N   UNL     1       2.244   1.258  23.177  0.00  0.00    -0.240 NA
ATOM     18  C   UNL     1      -3.776  -0.167  25.089  0.00  0.00    +0.218 C 
ATOM     19  C   UNL     1      -1.376  -0.420  25.604  0.00  0.00    +0.126 C 
ATOM     20  C   UNL     1      -2.030   0.541  23.406  0.00  0.00    +0.126 C 
ATOM     21  C   UNL     1      -0.155  -0.937  24.849  0.00  0.00    +0.125 C 
ATOM     22  C   UNL     1      -0.603   1.088  23.429  0.00  0.00    +0.125 C 
ATOM     23  C   UNL     1       1.671   0.079  23.505  0.00  0.00    +0.121 A 
ATOM     25  C   UNL     1       2.329  -1.141  23.468  0.00  0.00    +0.043 A 
ATOM     28  C   UNL     1       3.661  -1.149  23.069  0.00  0.00    +0.005 A 
ATOM     29  C   UNL     1       3.539   1.211  22.794  0.00  0.00    +0.113 A 
ATOM     33  C   UNL     1       4.285   0.044  22.725  0.00  0.00    +0.020 A 
ENDBRANCH  16  18
ENDBRANCH  12  16
BRANCH  15  17
ATOM     17  C   UNL     1      -2.880   3.537  25.856  0.00  0.00    +0.140 C 
BRANCH  17   9
ATOM      9  N   UNL     1      -1.847   3.190  24.925  0.00  0.00    -0.187 NA
ATOM     37  H   UNL     1      -1.879   2.238  24.540  0.00  0.00    +0.148 HD
BRANCH   9   1
ATOM      1  S   UNL     1      -0.316   3.982  24.950  0.00  0.00    +0.058 S 
ATOM      6  O   UNL     1      -0.535   5.405  25.118  0.00  0.00    -0.153 OA
ATOM      7  O   UNL     1       0.517   3.495  23.868  0.00  0.00    -0.153 OA
BRANCH   1  24
ATOM     24  C   UNL     1       0.371   3.355  26.453  0.00  0.00    +0.105 A 
ATOM     26  C   UNL     1      -0.334   2.412  27.202  0.00  0.00    +0.029 A 
ATOM     27  C   UNL     1       1.617   3.804  26.891  0.00  0.00    +0.029 A 
ATOM     30  C   UNL     1       0.207   1.919  28.390  0.00  0.00    +0.005 A 
ATOM     31  C   UNL     1       2.158   3.310  28.078  0.00  0.00    +0.005 A 
ATOM     32  C   UNL     1       1.453   2.369  28.828  0.00  0.00    -0.050 A 
ATOM     34  C   UNL     1       2.031   1.841  30.098  0.00  0.00    +0.044 C 
ENDBRANCH   1  24
ENDBRANCH   9   1
ENDBRANCH  17   9
ENDBRANCH  15  17
TORSDOF 8
ENDMDL
MODEL 3
REMARK VINA RESULT:       3.6      2.737      6.050
REMARK  Name = 25390364
REMARK  9 active torsions:
REMARK  status: ('A' for Active; 'I' for Inactive)
REMARK    1  A    between atoms: S_1  and  N_9
REMARK    2  A    between atoms: S_1  and  C_24
REMARK    3  A    between atoms: O_3  and  C_13
REMARK    4  A    between atoms: O_4  and  C_14
REMARK    5  A    between atoms: N_9  and  C_17
REMARK    6  A    between atoms: C_12  and  C_16
REMARK    7  A    between atoms: C_15  and  C_17
REMARK    8  A    between atoms: C_16  and  C_18
REMARK    9  A    between atoms: C_32  and  C_34
REMARK                            x       y       z     vdW  Elec       q    Type
REMARK                         _______ _______ _______ _____ _____    ______ ____
ROOT
ATOM      2  O   UNL     1      -4.550   0.134  24.135  0.00  0.00    -0.366 OA
ATOM     12  C   UNL     1      -5.058   0.065  25.479  0.00  0.00    +0.158 C 
ATOM     13  C   UNL     1      -5.352   1.501  25.880  0.00  0.00    +0.175 C 
ATOM     14  C   UNL     1      -5.832   2.091  24.570  0.00  0.00    +0.175 C 
ATOM     15  C   UNL     1      -4.912   1.411  23.561  0.00  0.00    +0.165 C 
ENDROOT
BRANCH  13   3
ATOM      3  O   UNL     1      -6.313   1.576  26.912  0.00  0.00    -0.387 OA
ATOM     35  H   UNL     1      -6.789   0.728  26.930  0.00  0.00    +0.210 HD
ENDBRANCH  13   3
BRANCH  14   4
ATOM      4  O   UNL     1      -7.169   1.673  24.300  0.00  0.00    -0.387 OA
ATOM     36  H   UNL     1      -7.721   2.473  24.258  0.00  0.00    +0.210 HD
ENDBRANCH  14   4
BRANCH  12  16
ATOM     16  C   UNL     1      -4.038  -0.614  26.377  0.00  0.00    +0.130 C 
BRANCH  16  18
ATOM      5  O   UNL     1      -3.783  -2.790  25.461  0.00  0.00    -0.276 OA
ATOM      8  N   UNL     1      -2.053  -1.286  25.075  0.00  0.00    -0.298 N 
ATOM     10  N   UNL     1       0.419  -0.540  23.768  0.00  0.00    -0.312 N 
ATOM     11  N   UNL     1       2.632   0.280  23.847  0.00  0.00    -0.240 NA
ATOM     18  C   UNL     1      -3.290  -1.668  25.598  0.00  0.00    +0.218 C 
ATOM     19  C   UNL     1      -1.265  -2.251  24.313  0.00  0.00    +0.126 C 
ATOM     20  C   UNL     1      -1.475   0.050  25.230  0.00  0.00    +0.126 C 
ATOM     21  C   UNL     1      -0.451  -1.580  23.210  0.00  0.00    +0.125 C 
ATOM     22  C   UNL     1       0.043   0.062  25.049  0.00  0.00    +0.125 C 
ATOM     23  C   UNL     1       1.589  -0.166  23.111  0.00  0.00    +0.121 A 
ATOM     25  C   UNL     1       1.603  -0.274  21.730  0.00  0.00    +0.043 A 
ATOM     28  C   UNL     1       2.764   0.097  21.060  0.00  0.00    +0.005 A 
ATOM     29  C   UNL     1       3.743   0.631  23.161  0.00  0.00    +0.113 A 
ATOM     33  C   UNL     1       3.859   0.559  21.782  0.00  0.00    +0.020 A 
ENDBRANCH  16  18
ENDBRANCH  12  16
BRANCH  15  17
ATOM     17  C   UNL     1      -3.628   2.190  23.309  0.00  0.00    +0.140 C 
BRANCH  17   9
ATOM      9  N   UNL     1      -3.905   3.565  23.020  0.00  0.00    -0.187 NA
ATOM     37  H   UNL     1      -3.849   3.846  22.033  0.00  0.00    +0.148 HD
BRANCH   9   1
ATOM      1  S   UNL     1      -3.671   4.794  24.205  0.00  0.00    +0.058 S 
ATOM      6  O   UNL     1      -4.822   4.812  25.086  0.00  0.00    -0.153 OA
ATOM      7  O   UNL     1      -3.216   6.018  23.575  0.00  0.00    -0.153 OA
BRANCH   1  24
ATOM     24  C   UNL     1      -2.301   4.141  25.112  0.00  0.00    +0.105 A 
ATOM     26  C   UNL     1      -1.023   4.156  24.553  0.00  0.00    +0.029 A 
ATOM     27  C   UNL     1      -2.498   3.607  26.386  0.00  0.00    +0.029 A 
ATOM     30  C   UNL     1       0.058   3.638  25.266  0.00  0.00    +0.005 A 
ATOM     31  C   UNL     1      -1.417   3.089  27.100  0.00  0.00    +0.005 A 
ATOM     32  C   UNL     1      -0.140   3.104  26.540  0.00  0.00    -0.050 A 
ATOM     34  C   UNL     1       1.015   2.550  27.303  0.00  0.00    +0.044 C 
ENDBRANCH   1  24
ENDBRANCH   9   1
ENDBRANCH  17   9
ENDBRANCH  15  17
TORSDOF 8
ENDMDL
MODEL 4
REMARK VINA RESULT:       3.6      2.377      4.214
REMARK  Name = 25390364
REMARK  9 active torsions:
REMARK  status: ('A' for Active; 'I' for Inactive)
REMARK    1  A    between atoms: S_1  and  N_9
REMARK    2  A    between atoms: S_1  and  C_24
REMARK    3  A    between atoms: O_3  and  C_13
REMARK    4  A    between atoms: O_4  and  C_14
REMARK    5  A    between atoms: N_9  and  C_17
REMARK    6  A    between atoms: C_12  and  C_16
REMARK    7  A    between atoms: C_15  and  C_17
REMARK    8  A    between atoms: C_16  and  C_18
REMARK    9  A    between atoms: C_32  and  C_34
REMARK                            x       y       z     vdW  Elec       q    Type
REMARK                         _______ _______ _______ _____ _____    ______ ____
ROOT
ATOM      2  O   UNL     1      -4.111   1.732  25.158  0.00  0.00    -0.366 OA
ATOM     12  C   UNL     1      -4.505   3.109  25.029  0.00  0.00    +0.158 C 
ATOM     13  C   UNL     1      -6.024   3.097  24.966  0.00  0.00    +0.175 C 
ATOM     14  C   UNL     1      -6.358   1.958  25.906  0.00  0.00    +0.175 C 
ATOM     15  C   UNL     1      -5.250   0.957  25.599  0.00  0.00    +0.165 C 
ENDROOT
BRANCH  13   3
ATOM      3  O   UNL     1      -6.580   4.332  25.363  0.00  0.00    -0.387 OA
ATOM     35  H   UNL     1      -7.385   4.472  24.836  0.00  0.00    +0.210 HD
ENDBRANCH  13   3
BRANCH  14   4
ATOM      4  O   UNL     1      -6.211   2.377  27.263  0.00  0.00    -0.387 OA
ATOM     36  H   UNL     1      -6.965   2.016  27.761  0.00  0.00    +0.210 HD
ENDBRANCH  14   4
BRANCH  12  16
ATOM     16  C   UNL     1      -3.857   3.714  23.797  0.00  0.00    +0.130 C 
BRANCH  16  18
ATOM      5  O   UNL     1      -2.207   2.713  22.412  0.00  0.00    -0.276 OA
ATOM      8  N   UNL     1      -1.697   2.903  24.671  0.00  0.00    -0.298 N 
ATOM     10  N   UNL     1       0.166   2.711  26.878  0.00  0.00    -0.312 N 
ATOM     11  N   UNL     1       0.736   1.951  29.039  0.00  0.00    -0.240 NA
ATOM     18  C   UNL     1      -2.515   3.065  23.552  0.00  0.00    +0.218 C 
ATOM     19  C   UNL     1      -0.385   2.279  24.518  0.00  0.00    +0.126 C 
ATOM     20  C   UNL     1      -2.060   3.332  26.023  0.00  0.00    +0.126 C 
ATOM     21  C   UNL     1       0.637   2.851  25.497  0.00  0.00    +0.125 C 
ATOM     22  C   UNL     1      -1.276   2.595  27.108  0.00  0.00    +0.125 C 
ATOM     23  C   UNL     1       1.071   2.655  27.936  0.00  0.00    +0.121 A 
ATOM     25  C   UNL     1       2.268   3.336  27.782  0.00  0.00    +0.043 A 
ATOM     28  C   UNL     1       3.181   3.290  28.829  0.00  0.00    +0.005 A 
ATOM     29  C   UNL     1       1.649   1.928  30.036  0.00  0.00    +0.113 A 
ATOM     33  C   UNL     1       2.874   2.575  29.982  0.00  0.00    +0.020 A 
ENDBRANCH  16  18
ENDBRANCH  12  16
BRANCH  15  17
ATOM     17  C   UNL     1      -5.615  -0.011  24.482  0.00  0.00    +0.140 C 
BRANCH  17   9
ATOM      9  N   UNL     1      -4.447  -0.639  23.938  0.00  0.00    -0.187 NA
ATOM     37  H   UNL     1      -4.430  -0.771  22.920  0.00  0.00    +0.148 HD
BRANCH   9   1
ATOM      1  S   UNL     1      -3.476  -1.698  24.889  0.00  0.00    +0.058 S 
ATOM      6  O   UNL     1      -3.732  -3.062  24.469  0.00  0.00    -0.153 OA
ATOM      7  O   UNL     1      -3.566  -1.338  26.291  0.00  0.00    -0.153 OA
BRANCH   1  24
ATOM     24  C   UNL     1      -1.853  -1.257  24.346  0.00  0.00    +0.105 A 
ATOM     26  C   UNL     1      -1.688  -0.487  23.194  0.00  0.00    +0.029 A 
ATOM     27  C   UNL     1      -0.736  -1.681  25.066  0.00  0.00    +0.029 A 
ATOM     30  C   UNL     1      -0.408  -0.140  22.763  0.00  0.00    +0.005 A 
ATOM     31  C   UNL     1       0.545  -1.334  24.636  0.00  0.00    +0.005 A 
ATOM     32  C   UNL     1       0.709  -0.565  23.485  0.00  0.00    -0.050 A 
ATOM     34  C   UNL     1       2.078  -0.194  23.024  0.00  0.00    +0.044 C 
ENDBRANCH   1  24
ENDBRANCH   9   1
ENDBRANCH  17   9
ENDBRANCH  15  17
TORSDOF 8
ENDMDL
MODEL 5
REMARK VINA RESULT:       3.8      2.927      5.504
REMARK  Name = 25390364
REMARK  9 active torsions:
REMARK  status: ('A' for Active; 'I' for Inactive)
REMARK    1  A    between atoms: S_1  and  N_9
REMARK    2  A    between atoms: S_1  and  C_24
REMARK    3  A    between atoms: O_3  and  C_13
REMARK    4  A    between atoms: O_4  and  C_14
REMARK    5  A    between atoms: N_9  and  C_17
REMARK    6  A    between atoms: C_12  and  C_16
REMARK    7  A    between atoms: C_15  and  C_17
REMARK    8  A    between atoms: C_16  and  C_18
REMARK    9  A    between atoms: C_32  and  C_34
REMARK                            x       y       z     vdW  Elec       q    Type
REMARK                         _______ _______ _______ _____ _____    ______ ____
ROOT
ATOM      2  O   UNL     1      -3.580   2.290  25.967  0.00  0.00    -0.366 OA
ATOM     12  C   UNL     1      -4.051   3.554  26.464  0.00  0.00    +0.158 C 
ATOM     13  C   UNL     1      -5.132   4.000  25.493  0.00  0.00    +0.175 C 
ATOM     14  C   UNL     1      -5.768   2.677  25.119  0.00  0.00    +0.175 C 
ATOM     15  C   UNL     1      -4.558   1.752  25.048  0.00  0.00    +0.165 C 
ENDROOT
BRANCH  13   3
ATOM      3  O   UNL     1      -6.035   4.907  26.087  0.00  0.00    -0.387 OA
ATOM     35  H   UNL     1      -5.894   4.872  27.049  0.00  0.00    +0.210 HD
ENDBRANCH  13   3
BRANCH  14   4
ATOM      4  O   UNL     1      -6.614   2.219  26.173  0.00  0.00    -0.387 OA
ATOM     36  H   UNL     1      -7.058   2.998  26.549  0.00  0.00    +0.210 HD
ENDBRANCH  14   4
BRANCH  12  16
ATOM     16  C   UNL     1      -2.891   4.529  26.563  0.00  0.00    +0.130 C 
BRANCH  16  18
ATOM      5  O   UNL     1      -2.629   5.731  24.532  0.00  0.00    -0.276 OA
ATOM      8  N   UNL     1      -1.363   3.798  24.770  0.00  0.00    -0.298 N 
ATOM     10  N   UNL     1       0.724   2.003  23.876  0.00  0.00    -0.312 N 
ATOM     11  N   UNL     1       1.493  -0.162  23.330  0.00  0.00    -0.240 NA
ATOM     18  C   UNL     1      -2.289   4.751  25.197  0.00  0.00    +0.218 C 
ATOM     19  C   UNL     1      -0.738   3.939  23.458  0.00  0.00    +0.126 C 
ATOM     20  C   UNL     1      -0.951   2.640  25.567  0.00  0.00    +0.126 C 
ATOM     21  C   UNL     1       0.691   3.404  23.445  0.00  0.00    +0.125 C 
ATOM     22  C   UNL     1      -0.372   1.512  24.714  0.00  0.00    +0.125 C 
ATOM     23  C   UNL     1       1.753   1.158  23.466  0.00  0.00    +0.121 A 
ATOM     25  C   UNL     1       2.990   1.735  23.227  0.00  0.00    +0.043 A 
ATOM     28  C   UNL     1       4.027   0.904  22.818  0.00  0.00    +0.005 A 
ATOM     29  C   UNL     1       2.526  -0.938  22.931  0.00  0.00    +0.113 A 
ATOM     33  C   UNL     1       3.799  -0.460  22.665  0.00  0.00    +0.020 A 
ENDBRANCH  16  18
ENDBRANCH  12  16
BRANCH  15  17
ATOM     17  C   UNL     1      -3.924   1.707  23.664  0.00  0.00    +0.140 C 
BRANCH  17   9
ATOM      9  N   UNL     1      -3.896   0.370  23.151  0.00  0.00    -0.187 NA
ATOM     37  H   UNL     1      -4.037   0.265  22.138  0.00  0.00    +0.148 HD
BRANCH   9   1
ATOM      1  S   UNL     1      -4.290  -0.980  24.147  0.00  0.00    +0.058 S 
ATOM      6  O   UNL     1      -4.889  -2.007  23.318  0.00  0.00    -0.153 OA
ATOM      7  O   UNL     1      -4.959  -0.534  25.354  0.00  0.00    -0.153 OA
BRANCH   1  24
ATOM     24  C   UNL     1      -2.681  -1.536  24.625  0.00  0.00    +0.105 A 
ATOM     26  C   UNL     1      -2.041  -0.958  25.721  0.00  0.00    +0.029 A 
ATOM     27  C   UNL     1      -2.050  -2.550  23.904  0.00  0.00    +0.029 A 
ATOM     30  C   UNL     1      -0.770  -1.393  26.097  0.00  0.00    +0.005 A 
ATOM     31  C   UNL     1      -0.780  -2.986  24.280  0.00  0.00    +0.005 A 
ATOM     32  C   UNL     1      -0.140  -2.408  25.375  0.00  0.00    -0.050 A 
ATOM     34  C   UNL     1       1.219  -2.874  25.777  0.00  0.00    +0.044 C 
ENDBRANCH   1  24
ENDBRANCH   9   1
ENDBRANCH  17   9
ENDBRANCH  15  17
TORSDOF 8
ENDMDL
MODEL 6
REMARK VINA RESULT:       4.1      3.403      7.037
REMARK  Name = 25390364
REMARK  9 active torsions:
REMARK  status: ('A' for Active; 'I' for Inactive)
REMARK    1  A    between atoms: S_1  and  N_9
REMARK    2  A    between atoms: S_1  and  C_24
REMARK    3  A    between atoms: O_3  and  C_13
REMARK    4  A    between atoms: O_4  and  C_14
REMARK    5  A    between atoms: N_9  and  C_17
REMARK    6  A    between atoms: C_12  and  C_16
REMARK    7  A    between atoms: C_15  and  C_17
REMARK    8  A    between atoms: C_16  and  C_18
REMARK    9  A    between atoms: C_32  and  C_34
REMARK                            x       y       z     vdW  Elec       q    Type
REMARK                         _______ _______ _______ _____ _____    ______ ____
ROOT
ATOM      2  O   UNL     1      -2.959   2.583  25.932  0.00  0.00    -0.366 OA
ATOM     12  C   UNL     1      -1.930   2.289  24.972  0.00  0.00    +0.158 C 
ATOM     13  C   UNL     1      -1.924   3.461  24.005  0.00  0.00    +0.175 C 
ATOM     14  C   UNL     1      -2.246   4.618  24.927  0.00  0.00    +0.175 C 
ATOM     15  C   UNL     1      -3.267   3.995  25.874  0.00  0.00    +0.165 C 
ENDROOT
BRANCH  13   3
ATOM      3  O   UNL     1      -0.683   3.599  23.347  0.00  0.00    -0.387 OA
ATOM     35  H   UNL     1      -0.004   3.731  24.030  0.00  0.00    +0.210 HD
ENDBRANCH  13   3
BRANCH  14   4
ATOM      4  O   UNL     1      -1.096   4.976  25.692  0.00  0.00    -0.387 OA
ATOM     36  H   UNL     1      -1.087   5.946  25.767  0.00  0.00    +0.210 HD
ENDBRANCH  14   4
BRANCH  12  16
ATOM     16  C   UNL     1      -2.220   0.957  24.302  0.00  0.00    +0.130 C 
BRANCH  16  18
ATOM      5  O   UNL     1      -1.958   1.122  21.947  0.00  0.00    -0.276 OA
ATOM      8  N   UNL     1      -0.106   0.408  23.156  0.00  0.00    -0.298 N 
ATOM     10  N   UNL     1       2.702  -0.274  23.333  0.00  0.00    -0.312 N 
ATOM     11  N   UNL     1       4.433  -1.747  23.971  0.00  0.00    -0.240 NA
ATOM     18  C   UNL     1      -1.426   0.842  23.024  0.00  0.00    +0.218 C 
ATOM     19  C   UNL     1       0.728   0.266  21.965  0.00  0.00    +0.126 C 
ATOM     20  C   UNL     1       0.528   0.087  24.436  0.00  0.00    +0.126 C 
ATOM     21  C   UNL     1       2.194   0.577  22.253  0.00  0.00    +0.125 C 
ATOM     22  C   UNL     1       1.737  -0.835  24.282  0.00  0.00    +0.125 C 
ATOM     23  C   UNL     1       4.060  -0.567  23.428  0.00  0.00    +0.121 A 
ATOM     25  C   UNL     1       4.949   0.385  22.955  0.00  0.00    +0.043 A 
ATOM     28  C   UNL     1       6.308   0.107  23.043  0.00  0.00    +0.005 A 
ATOM     29  C   UNL     1       5.762  -1.982  24.041  0.00  0.00    +0.113 A 
ATOM     33  C   UNL     1       6.731  -1.097  23.595  0.00  0.00    +0.020 A 
ENDBRANCH  16  18
ENDBRANCH  12  16
BRANCH  15  17
ATOM     17  C   UNL     1      -4.700   4.139  25.381  0.00  0.00    +0.140 C 
BRANCH  17   9
ATOM      9  N   UNL     1      -5.116   2.977  24.652  0.00  0.00    -0.187 NA
ATOM     37  H   UNL     1      -5.161   3.069  23.630  0.00  0.00    +0.148 HD
BRANCH   9   1
ATOM      1  S   UNL     1      -6.109   1.771  25.382  0.00  0.00    +0.058 S 
ATOM      6  O   UNL     1      -7.306   1.611  24.580  0.00  0.00    -0.153 OA
ATOM      7  O   UNL     1      -6.213   2.004  26.809  0.00  0.00    -0.153 OA
BRANCH   1  24
ATOM     24  C   UNL     1      -5.111   0.328  25.165  0.00  0.00    +0.105 A 
ATOM     26  C   UNL     1      -5.093  -0.329  23.935  0.00  0.00    +0.029 A 
ATOM     27  C   UNL     1      -4.344  -0.155  26.225  0.00  0.00    +0.029 A 
ATOM     30  C   UNL     1      -4.308  -1.469  23.764  0.00  0.00    +0.005 A 
ATOM     31  C   UNL     1      -3.558  -1.295  26.055  0.00  0.00    +0.005 A 
ATOM     32  C   UNL     1      -3.541  -1.952  24.825  0.00  0.00    -0.050 A 
ATOM     34  C   UNL     1      -2.701  -3.172  24.643  0.00  0.00    +0.044 C 
ENDBRANCH   1  24
ENDBRANCH   9   1
ENDBRANCH  17   9
ENDBRANCH  15  17
TORSDOF 8
ENDMDL
MODEL 7
REMARK VINA RESULT:       4.2      2.931      5.510
REMARK  Name = 25390364
REMARK  9 active torsions:
REMARK  status: ('A' for Active; 'I' for Inactive)
REMARK    1  A    between atoms: S_1  and  N_9
REMARK    2  A    between atoms: S_1  and  C_24
REMARK    3  A    between atoms: O_3  and  C_13
REMARK    4  A    between atoms: O_4  and  C_14
REMARK    5  A    between atoms: N_9  and  C_17
REMARK    6  A    between atoms: C_12  and  C_16
REMARK    7  A    between atoms: C_15  and  C_17
REMARK    8  A    between atoms: C_16  and  C_18
REMARK    9  A    between atoms: C_32  and  C_34
REMARK                            x       y       z     vdW  Elec       q    Type
REMARK                         _______ _______ _______ _____ _____    ______ ____
ROOT
ATOM      2  O   UNL     1      -2.399   3.557  23.922  0.00  0.00    -0.366 OA
ATOM     12  C   UNL     1      -2.183   4.777  24.652  0.00  0.00    +0.158 C 
ATOM     13  C   UNL     1      -0.705   4.789  25.002  0.00  0.00    +0.175 C 
ATOM     14  C   UNL     1      -0.097   4.138  23.778  0.00  0.00    +0.175 C 
ATOM     15  C   UNL     1      -1.126   3.062  23.447  0.00  0.00    +0.165 C 
ENDROOT
BRANCH  13   3
ATOM      3  O   UNL     1      -0.227   6.098  25.235  0.00  0.00    -0.387 OA
ATOM     35  H   UNL     1      -0.582   6.389  26.092  0.00  0.00    +0.210 HD
ENDBRANCH  13   3
BRANCH  14   4
ATOM      4  O   UNL     1      -0.060   5.063  22.691  0.00  0.00    -0.387 OA
ATOM     36  H   UNL     1      -0.974   5.186  22.383  0.00  0.00    +0.210 HD
ENDBRANCH  14   4
BRANCH  12  16
ATOM     16  C   UNL     1      -3.090   4.812  25.869  0.00  0.00    +0.130 C 
BRANCH  16  18
ATOM      5  O   UNL     1      -5.429   4.646  25.489  0.00  0.00    -0.276 OA
ATOM      8  N   UNL     1      -4.223   2.659  25.458  0.00  0.00    -0.298 N 
ATOM     10  N   UNL     1      -4.028  -0.185  24.959  0.00  0.00    -0.312 N 
ATOM     11  N   UNL     1      -3.431  -2.366  25.640  0.00  0.00    -0.240 NA
ATOM     18  C   UNL     1      -4.358   4.042  25.588  0.00  0.00    +0.218 C 
ATOM     19  C   UNL     1      -5.404   1.843  25.190  0.00  0.00    +0.126 C 
ATOM     20  C   UNL     1      -2.948   1.946  25.564  0.00  0.00    +0.126 C 
ATOM     21  C   UNL     1      -5.074   0.627  24.329  0.00  0.00    +0.125 C 
ATOM     22  C   UNL     1      -3.125   0.468  25.910  0.00  0.00    +0.125 C 
ATOM     23  C   UNL     1      -3.923  -1.546  24.684  0.00  0.00    +0.121 A 
ATOM     25  C   UNL     1      -4.332  -1.974  23.431  0.00  0.00    +0.043 A 
ATOM     28  C   UNL     1      -4.232  -3.330  23.141  0.00  0.00    +0.005 A 
ATOM     29  C   UNL     1      -3.349  -3.677  25.322  0.00  0.00    +0.113 A 
ATOM     33  C   UNL     1      -3.733  -4.205  24.100  0.00  0.00    +0.020 A 
ENDBRANCH  16  18
ENDBRANCH  12  16
BRANCH  15  17
ATOM     17  C   UNL     1      -0.849   1.739  24.147  0.00  0.00    +0.140 C 
BRANCH  17   9
ATOM      9  N   UNL     1       0.503   1.314  23.936  0.00  0.00    -0.187 NA
ATOM     37  H   UNL     1       1.203   2.057  23.811  0.00  0.00    +0.148 HD
BRANCH   9   1
ATOM      1  S   UNL     1       0.861  -0.230  23.259  0.00  0.00    +0.058 S 
ATOM      6  O   UNL     1       0.444  -0.234  21.871  0.00  0.00    -0.153 OA
ATOM      7  O   UNL     1       0.425  -1.283  24.155  0.00  0.00    -0.153 OA
BRANCH   1  24
ATOM     24  C   UNL     1       2.628  -0.220  23.296  0.00  0.00    +0.105 A 
ATOM     26  C   UNL     1       3.323  -1.340  23.756  0.00  0.00    +0.029 A 
ATOM     27  C   UNL     1       3.329   0.907  22.869  0.00  0.00    +0.029 A 
ATOM     30  C   UNL     1       4.717  -1.332  23.788  0.00  0.00    +0.005 A 
ATOM     31  C   UNL     1       4.724   0.916  22.900  0.00  0.00    +0.005 A 
ATOM     32  C   UNL     1       5.417  -0.203  23.360  0.00  0.00    -0.050 A 
ATOM     34  C   UNL     1       6.909  -0.195  23.395  0.00  0.00    +0.044 C 
ENDBRANCH   1  24
ENDBRANCH   9   1
ENDBRANCH  17   9
ENDBRANCH  15  17
TORSDOF 8
ENDMDL
MODEL 8
REMARK VINA RESULT:       4.5      3.015      6.192
REMARK  Name = 25390364
REMARK  9 active torsions:
REMARK  status: ('A' for Active; 'I' for Inactive)
REMARK    1  A    between atoms: S_1  and  N_9
REMARK    2  A    between atoms: S_1  and  C_24
REMARK    3  A    between atoms: O_3  and  C_13
REMARK    4  A    between atoms: O_4  and  C_14
REMARK    5  A    between atoms: N_9  and  C_17
REMARK    6  A    between atoms: C_12  and  C_16
REMARK    7  A    between atoms: C_15  and  C_17
REMARK    8  A    between atoms: C_16  and  C_18
REMARK    9  A    between atoms: C_32  and  C_34
REMARK                            x       y       z     vdW  Elec       q    Type
REMARK                         _______ _______ _______ _____ _____    ______ ____
ROOT
ATOM      2  O   UNL     1      -4.478  -0.655  23.847  0.00  0.00    -0.366 OA
ATOM     12  C   UNL     1      -3.183  -1.048  23.360  0.00  0.00    +0.158 C 
ATOM     13  C   UNL     1      -2.311  -1.203  24.595  0.00  0.00    +0.175 C 
ATOM     14  C   UNL     1      -3.302  -1.750  25.601  0.00  0.00    +0.175 C 
ATOM     15  C   UNL     1      -4.567  -0.972  25.255  0.00  0.00    +0.165 C 
ENDROOT
BRANCH  13   3
ATOM      3  O   UNL     1      -1.215  -2.063  24.365  0.00  0.00    -0.387 OA
ATOM     35  H   UNL     1      -1.210  -2.282  23.417  0.00  0.00    +0.210 HD
ENDBRANCH  13   3
BRANCH  14   4
ATOM      4  O   UNL     1      -3.551  -3.132  25.349  0.00  0.00    -0.387 OA
ATOM     36  H   UNL     1      -2.691  -3.558  25.188  0.00  0.00    +0.210 HD
ENDBRANCH  14   4
BRANCH  12  16
ATOM     16  C   UNL     1      -2.665  -0.007  22.384  0.00  0.00    +0.130 C 
BRANCH  16  18
ATOM      5  O   UNL     1      -2.354   1.924  23.732  0.00  0.00    -0.276 OA
ATOM      8  N   UNL     1      -0.433   0.819  23.036  0.00  0.00    -0.298 N 
ATOM     10  N   UNL     1       2.432   0.410  23.115  0.00  0.00    -0.312 N 
ATOM     11  N   UNL     1       4.514   0.164  22.029  0.00  0.00    -0.240 NA
ATOM     18  C   UNL     1      -1.814   1.004  23.116  0.00  0.00    +0.218 C 
ATOM     19  C   UNL     1       0.459   1.757  23.712  0.00  0.00    +0.126 C 
ATOM     20  C   UNL     1       0.207  -0.282  22.312  0.00  0.00    +0.126 C 
ATOM     21  C   UNL     1       1.728   1.075  24.216  0.00  0.00    +0.125 C 
ATOM     22  C   UNL     1       1.656   0.022  21.934  0.00  0.00    +0.125 C 
ATOM     23  C   UNL     1       3.805   0.187  23.180  0.00  0.00    +0.121 A 
ATOM     25  C   UNL     1       4.358   0.001  24.437  0.00  0.00    +0.043 A 
ATOM     28  C   UNL     1       5.728  -0.223  24.518  0.00  0.00    +0.005 A 
ATOM     29  C   UNL     1       5.842  -0.056  22.147  0.00  0.00    +0.113 A 
ATOM     33  C   UNL     1       6.492  -0.253  23.356  0.00  0.00    +0.020 A 
ENDBRANCH  16  18
ENDBRANCH  12  16
BRANCH  15  17
ATOM     17  C   UNL     1      -4.687   0.339  26.021  0.00  0.00    +0.140 C 
BRANCH  17   9
ATOM      9  N   UNL     1      -5.300   1.354  25.217  0.00  0.00    -0.187 NA
ATOM     37  H   UNL     1      -5.199   1.255  24.199  0.00  0.00    +0.148 HD
BRANCH   9   1
ATOM      1  S   UNL     1      -5.575   2.940  25.833  0.00  0.00    +0.058 S 
ATOM      6  O   UNL     1      -5.745   2.854  27.270  0.00  0.00    -0.153 OA
ATOM      7  O   UNL     1      -6.561   3.628  25.022  0.00  0.00    -0.153 OA
BRANCH   1  24
ATOM     24  C   UNL     1      -4.016   3.708  25.513  0.00  0.00    +0.105 A 
ATOM     26  C   UNL     1      -3.857   4.526  24.394  0.00  0.00    +0.029 A 
ATOM     27  C   UNL     1      -2.942   3.495  26.378  0.00  0.00    +0.029 A 
ATOM     30  C   UNL     1      -2.626   5.130  24.139  0.00  0.00    +0.005 A 
ATOM     31  C   UNL     1      -1.711   4.100  26.124  0.00  0.00    +0.005 A 
ATOM     32  C   UNL     1      -1.553   4.916  25.005  0.00  0.00    -0.050 A 
ATOM     34  C   UNL     1      -0.236   5.563  24.733  0.00  0.00    +0.044 C 
ENDBRANCH   1  24
ENDBRANCH   9   1
ENDBRANCH  17   9
ENDBRANCH  15  17
TORSDOF 8
ENDMDL
MODEL 9
REMARK VINA RESULT:       4.7      2.957      6.555
REMARK  Name = 25390364
REMARK  9 active torsions:
REMARK  status: ('A' for Active; 'I' for Inactive)
REMARK    1  A    between atoms: S_1  and  N_9
REMARK    2  A    between atoms: S_1  and  C_24
REMARK    3  A    between atoms: O_3  and  C_13
REMARK    4  A    between atoms: O_4  and  C_14
REMARK    5  A    between atoms: N_9  and  C_17
REMARK    6  A    between atoms: C_12  and  C_16
REMARK    7  A    between atoms: C_15  and  C_17
REMARK    8  A    between atoms: C_16  and  C_18
REMARK    9  A    between atoms: C_32  and  C_34
REMARK                            x       y       z     vdW  Elec       q    Type
REMARK                         _______ _______ _______ _____ _____    ______ ____
ROOT
ATOM      2  O   UNL     1      -3.687  -0.330  22.709  0.00  0.00    -0.366 OA
ATOM     12  C   UNL     1      -4.023  -1.138  23.850  0.00  0.00    +0.158 C 
ATOM     13  C   UNL     1      -3.656  -0.302  25.066  0.00  0.00    +0.175 C 
ATOM     14  C   UNL     1      -3.997   1.094  24.589  0.00  0.00    +0.175 C 
ATOM     15  C   UNL     1      -3.557   1.048  23.130  0.00  0.00    +0.165 C 
ENDROOT
BRANCH  13   3
ATOM      3  O   UNL     1      -4.378  -0.693  26.214  0.00  0.00    -0.387 OA
ATOM     35  H   UNL     1      -4.105  -0.110  26.943  0.00  0.00    +0.210 HD
ENDBRANCH  13   3
BRANCH  14   4
ATOM      4  O   UNL     1      -5.410   1.296  24.618  0.00  0.00    -0.387 OA
ATOM     36  H   UNL     1      -5.796   0.572  25.141  0.00  0.00    +0.210 HD
ENDBRANCH  14   4
BRANCH  12  16
ATOM     16  C   UNL     1      -3.276  -2.458  23.780  0.00  0.00    +0.130 C 
BRANCH  16  18
ATOM      5  O   UNL     1      -2.516  -3.030  25.956  0.00  0.00    -0.276 OA
ATOM      8  N   UNL     1      -0.989  -1.965  24.566  0.00  0.00    -0.298 N 
ATOM     10  N   UNL     1       1.690  -1.046  23.968  0.00  0.00    -0.312 N 
ATOM     11  N   UNL     1       3.190   0.650  23.298  0.00  0.00    -0.240 NA
ATOM     18  C   UNL     1      -2.234  -2.517  24.872  0.00  0.00    +0.218 C 
ATOM     19  C   UNL     1       0.071  -1.980  25.571  0.00  0.00    +0.126 C 
ATOM     20  C   UNL     1      -0.653  -1.366  23.273  0.00  0.00    +0.126 C 
ATOM     21  C   UNL     1       1.454  -2.118  24.941  0.00  0.00    +0.125 C 
ATOM     22  C   UNL     1       0.526  -0.397  23.359  0.00  0.00    +0.125 C 
ATOM     23  C   UNL     1       2.985  -0.636  23.663  0.00  0.00    +0.121 A 
ATOM     25  C   UNL     1       3.989  -1.587  23.754  0.00  0.00    +0.043 A 
ATOM     28  C   UNL     1       5.288  -1.192  23.452  0.00  0.00    +0.005 A 
ATOM     29  C   UNL     1       4.465   0.996  23.012  0.00  0.00    +0.113 A 
ATOM     33  C   UNL     1       5.539   0.122  23.073  0.00  0.00    +0.020 A 
ENDBRANCH  16  18
ENDBRANCH  12  16
BRANCH  15  17
ATOM     17  C   UNL     1      -2.104   1.460  22.933  0.00  0.00    +0.140 C 
BRANCH  17   9
ATOM      9  N   UNL     1      -1.400   1.484  24.181  0.00  0.00    -0.187 NA
ATOM     37  H   UNL     1      -1.490   0.650  24.774  0.00  0.00    +0.148 HD
BRANCH   9   1
ATOM      1  S   UNL     1      -1.014   2.972  24.962  0.00  0.00    +0.058 S 
ATOM      6  O   UNL     1      -0.257   3.795  24.039  0.00  0.00    -0.153 OA
ATOM      7  O   UNL     1      -0.508   2.720  26.297  0.00  0.00    -0.153 OA
BRANCH   1  24
ATOM     24  C   UNL     1      -2.618   3.691  25.144  0.00  0.00    +0.105 A 
ATOM     26  C   UNL     1      -3.240   3.700  26.393  0.00  0.00    +0.029 A 
ATOM     27  C   UNL     1      -3.263   4.247  24.040  0.00  0.00    +0.029 A 
ATOM     30  C   UNL     1      -4.507   4.265  26.538  0.00  0.00    +0.005 A 
ATOM     31  C   UNL     1      -4.530   4.813  24.184  0.00  0.00    +0.005 A 
ATOM     32  C   UNL     1      -5.152   4.821  25.432  0.00  0.00    -0.050 A 
ATOM     34  C   UNL     1      -6.507   5.425  25.586  0.00  0.00    +0.044 C 
ENDBRANCH   1  24
ENDBRANCH   9   1
ENDBRANCH  17   9
ENDBRANCH  15  17
TORSDOF 8
ENDMDL
MODEL 10
REMARK VINA RESULT:       5.5      2.594      6.122
REMARK  Name = 25390364
REMARK  9 active torsions:
REMARK  status: ('A' for Active; 'I' for Inactive)
REMARK    1  A    between atoms: S_1  and  N_9
REMARK    2  A    between atoms: S_1  and  C_24
REMARK    3  A    between atoms: O_3  and  C_13
REMARK    4  A    between atoms: O_4  and  C_14
REMARK    5  A    between atoms: N_9  and  C_17
REMARK    6  A    between atoms: C_12  and  C_16
REMARK    7  A    between atoms: C_15  and  C_17
REMARK    8  A    between atoms: C_16  and  C_18
REMARK    9  A    between atoms: C_32  and  C_34
REMARK                            x       y       z     vdW  Elec       q    Type
REMARK                         _______ _______ _______ _____ _____    ______ ____
ROOT
ATOM      2  O   UNL     1      -2.123   3.932  24.982  0.00  0.00    -0.366 OA
ATOM     12  C   UNL     1      -3.221   3.620  24.106  0.00  0.00    +0.158 C 
ATOM     13  C   UNL     1      -3.931   2.438  24.744  0.00  0.00    +0.175 C 
ATOM     14  C   UNL     1      -3.775   2.749  26.218  0.00  0.00    +0.175 C 
ATOM     15  C   UNL     1      -2.366   3.329  26.274  0.00  0.00    +0.165 C 
ENDROOT
BRANCH  13   3
ATOM      3  O   UNL     1      -5.278   2.344  24.331  0.00  0.00    -0.387 OA
ATOM     35  H   UNL     1      -5.363   2.842  23.501  0.00  0.00    +0.210 HD
ENDBRANCH  13   3
BRANCH  14   4
ATOM      4  O   UNL     1      -4.690   3.774  26.607  0.00  0.00    -0.387 OA
ATOM     36  H   UNL     1      -5.588   3.441  26.439  0.00  0.00    +0.210 HD
ENDBRANCH  14   4
BRANCH  12  16
ATOM     16  C   UNL     1      -2.695   3.326  22.712  0.00  0.00    +0.130 C 
BRANCH  16  18
ATOM      5  O   UNL     1      -3.148   1.024  22.346  0.00  0.00    -0.276 OA
ATOM      8  N   UNL     1      -0.948   1.589  22.833  0.00  0.00    -0.298 N 
ATOM     10  N   UNL     1       1.857   0.910  23.064  0.00  0.00    -0.312 N 
ATOM     11  N   UNL     1       3.881   0.879  24.279  0.00  0.00    -0.240 NA
ATOM     18  C   UNL     1      -2.296   1.874  22.610  0.00  0.00    +0.218 C 
ATOM     19  C   UNL     1      -0.482   0.206  22.757  0.00  0.00    +0.126 C 
ATOM     20  C   UNL     1       0.066   2.602  23.135  0.00  0.00    +0.126 C 
ATOM     21  C   UNL     1       0.948   0.113  22.234  0.00  0.00    +0.125 C 
ATOM     22  C   UNL     1       1.292   2.019  23.837  0.00  0.00    +0.125 C 
ATOM     23  C   UNL     1       3.211   0.595  23.140  0.00  0.00    +0.121 A 
ATOM     25  C   UNL     1       3.788   0.005  22.027  0.00  0.00    +0.043 A 
ATOM     28  C   UNL     1       5.140  -0.315  22.087  0.00  0.00    +0.005 A 
ATOM     29  C   UNL     1       5.193   0.554  24.301  0.00  0.00    +0.113 A 
ATOM     33  C   UNL     1       5.863  -0.039  23.242  0.00  0.00    +0.020 A 
ENDBRANCH  16  18
ENDBRANCH  12  16
BRANCH  15  17
ATOM     17  C   UNL     1      -1.296   2.270  26.502  0.00  0.00    +0.140 C 
BRANCH  17   9
ATOM      9  N   UNL     1      -1.432   1.187  25.573  0.00  0.00    -0.187 NA
ATOM     37  H   UNL     1      -2.097   1.327  24.802  0.00  0.00    +0.148 HD
BRANCH   9   1
ATOM      1  S   UNL     1      -1.085  -0.437  26.033  0.00  0.00    +0.058 S 
ATOM      6  O   UNL     1      -1.341  -0.580  27.453  0.00  0.00    -0.153 OA
ATOM      7  O   UNL     1       0.186  -0.855  25.476  0.00  0.00    -0.153 OA
BRANCH   1  24
ATOM     24  C   UNL     1      -2.345  -1.318  25.162  0.00  0.00    +0.105 A 
ATOM     26  C   UNL     1      -2.079  -2.586  24.644  0.00  0.00    +0.029 A 
ATOM     27  C   UNL     1      -3.605  -0.745  24.987  0.00  0.00    +0.029 A 
ATOM     30  C   UNL     1      -3.072  -3.281  23.954  0.00  0.00    +0.005 A 
ATOM     31  C   UNL     1      -4.598  -1.439  24.298  0.00  0.00    +0.005 A 
ATOM     32  C   UNL     1      -4.332  -2.707  23.780  0.00  0.00    -0.050 A 
ATOM     34  C   UNL     1      -5.394  -3.450  23.042  0.00  0.00    +0.044 C 
ENDBRANCH   1  24
ENDBRANCH   9   1
ENDBRANCH  17   9
ENDBRANCH  15  17
TORSDOF 8
ENDMDL
