MODEL 1
REMARK VINA RESULT:      -0.3      0.000      0.000
REMARK  Name = 45361539
REMARK  10 active torsions:
REMARK  status: ('A' for Active; 'I' for Inactive)
REMARK    1  A    between atoms: O_2  and  C_12
REMARK    2  A    between atoms: N_5  and  C_16
REMARK    3  A    between atoms: N_6  and  C_26
REMARK    4  A    between atoms: C_9  and  C_19
REMARK    5  A    between atoms: C_11  and  C_21
REMARK    6  A    between atoms: C_15  and  C_20
REMARK    7  A    between atoms: C_20  and  C_22
REMARK    8  A    between atoms: C_20  and  C_23
REMARK    9  A    between atoms: C_24  and  C_25
REMARK   10  A    between atoms: C_26  and  C_28
REMARK                            x       y       z     vdW  Elec       q    Type
REMARK                         _______ _______ _______ _____ _____    ______ ____
ROOT
ATOM      9  C   UNL     1      -3.009  -1.355  24.868  0.00  0.00    -0.027 C 
ATOM     10  C   UNL     1      -2.649  -0.031  24.116  0.00  0.00    +0.028 C 
ATOM     11  C   UNL     1      -1.107   0.258  24.200  0.00  0.00    +0.012 C 
ATOM     12  C   UNL     1      -3.572   1.139  24.561  0.00  0.00    +0.122 C 
ATOM     13  C   UNL     1      -4.511  -1.669  24.671  0.00  0.00    +0.007 C 
ATOM     14  C   UNL     1      -2.200  -2.521  24.253  0.00  0.00    +0.009 C 
ATOM     15  C   UNL     1      -5.074   0.782  24.460  0.00  0.00    +0.029 C 
ATOM     16  C   UNL     1      -0.302  -0.952  23.648  0.00  0.00    +0.076 C 
ATOM     17  C   UNL     1      -5.420  -0.541  25.141  0.00  0.00    +0.007 C 
ATOM     18  C   UNL     1      -0.696  -2.285  24.282  0.00  0.00    +0.023 C 
ATOM     19  C   UNL     1      -2.713  -1.275  26.388  0.00  0.00    +0.011 C 
ATOM     21  C   UNL     1      -0.678   1.534  23.456  0.00  0.00    +0.010 C 
ENDROOT
BRANCH  16   5
ATOM      4  O   UNL     1       1.592  -0.263  21.602  0.00  0.00    -0.268 OA
ATOM      5  N   UNL     1       1.125  -0.768  23.817  0.00  0.00    -0.307 N 
ATOM     24  C   UNL     1       1.957  -0.435  22.763  0.00  0.00    +0.264 C 
ATOM     36  H   UNL     1       1.530  -0.947  24.731  0.00  0.00    +0.149 HD
BRANCH  24  25
ATOM      7  N   UNL     1       3.983  -1.381  23.668  0.00  0.00    -0.247 NA
ATOM      8  N   UNL     1       5.409   0.973  23.126  0.00  0.00    -0.259 NA
ATOM     25  C   UNL     1       3.401  -0.309  23.094  0.00  0.00    +0.143 A 
ATOM     27  C   UNL     1       4.100   0.847  22.828  0.00  0.00    +0.143 A 
ATOM     29  C   UNL     1       5.292  -1.254  23.967  0.00  0.00    +0.131 A 
ATOM     32  C   UNL     1       5.991  -0.099  23.701  0.00  0.00    +0.130 A 
ENDBRANCH  24  25
ENDBRANCH  16   5
BRANCH  12   2
ATOM      2  O   UNL     1      -3.362   2.265  23.707  0.00  0.00    -0.391 OA
ATOM     37  H   UNL     1      -4.180   2.791  23.694  0.00  0.00    +0.210 HD
ENDBRANCH  12   2
BRANCH  15  20
ATOM     20  C   UNL     1      -5.963   1.898  25.024  0.00  0.00    +0.077 C 
ATOM     22  C   UNL     1      -7.176   2.108  24.126  0.00  0.00    +0.017 C 
BRANCH  20  23
ATOM      3  O   UNL     1      -5.204   4.098  24.357  0.00  0.00    -0.276 OA
ATOM      6  N   UNL     1      -4.367   3.184  26.318  0.00  0.00    -0.311 N 
ATOM     23  C   UNL     1      -5.152   3.182  25.174  0.00  0.00    +0.216 C 
ATOM     38  H   UNL     1      -4.420   2.410  26.971  0.00  0.00    +0.149 HD
BRANCH   6  26
ATOM     26  C   UNL     1      -3.509   4.291  26.674  0.00  0.00    +0.141 C 
BRANCH  26  28
ATOM      1 CL   UNL     1      -2.484   6.267  24.535  0.00  0.00    -0.083 Cl
ATOM     28  C   UNL     1      -2.111   4.108  26.157  0.00  0.00    -0.012 A 
ATOM     30  C   UNL     1      -1.571   4.956  25.191  0.00  0.00    +0.046 A 
ATOM     31  C   UNL     1      -1.350   3.058  26.668  0.00  0.00    +0.006 A 
ATOM     33  C   UNL     1      -0.269   4.755  24.736  0.00  0.00    +0.020 A 
ATOM     34  C   UNL     1      -0.046   2.855  26.213  0.00  0.00    +0.000 A 
ATOM     35  C   UNL     1       0.494   3.704  25.246  0.00  0.00    +0.001 A 
ENDBRANCH  26  28
ENDBRANCH   6  26
ENDBRANCH  20  23
ENDBRANCH  15  20
TORSDOF 7
ENDMDL
