MODEL 1
REMARK VINA RESULT:      -5.9      0.000      0.000
REMARK  Name = 7143702
REMARK  2 active torsions:
REMARK  status: ('A' for Active; 'I' for Inactive)
REMARK    1  A    between atoms: C_14  and  C_17
REMARK    2  A    between atoms: C_15  and  C_18
REMARK                            x       y       z     vdW  Elec       q    Type
REMARK                         _______ _______ _______ _____ _____    ______ ____
ROOT
ATOM      1  O   UNL     1      14.742  -8.102  26.114  0.00  0.00    -0.267 OA
ATOM      2  O   UNL     1      11.905  -7.039  30.222  0.00  0.00    -0.270 OA
ATOM      3  N   UNL     1      13.652  -8.411  30.953  0.00  0.00    -0.297 N 
ATOM      4  N   UNL     1      15.307  -8.743  28.284  0.00  0.00    -0.311 N 
ATOM      5  C   UNL     1      13.958 -10.477  29.604  0.00  0.00    +0.027 C 
ATOM      6  C   UNL     1      15.912  -9.393  30.641  0.00  0.00    +0.054 C 
ATOM      7  C   UNL     1      15.275 -10.746  30.324  0.00  0.00    +0.018 C 
ATOM      8  C   UNL     1      13.018  -9.647  30.497  0.00  0.00    +0.113 C 
ATOM      9  C   UNL     1      14.259  -9.774  28.273  0.00  0.00    +0.130 C 
ATOM     10  C   UNL     1      14.979  -8.587  31.569  0.00  0.00    +0.117 C 
ATOM     11  C   UNL     1      16.171  -8.602  29.373  0.00  0.00    +0.027 A 
ATOM     12  C   UNL     1      17.198  -7.739  29.313  0.00  0.00    +0.022 A 
ATOM     13  C   UNL     1      15.461  -7.983  27.108  0.00  0.00    +0.259 A 
ATOM     14  C   UNL     1      13.012  -7.189  30.736  0.00  0.00    +0.247 C 
ATOM     15  C   UNL     1      16.592  -6.990  27.089  0.00  0.00    +0.047 A 
ATOM     16  C   UNL     1      17.405  -6.919  28.154  0.00  0.00    +0.015 A 
ENDROOT
BRANCH  15  18
ATOM     18  C   UNL     1      16.803  -6.098  25.937  0.00  0.00    -0.012 A 
ATOM     21  C   UNL     1      16.655  -4.718  26.086  0.00  0.00    +0.017 A 
ATOM     22  C   UNL     1      17.151  -6.630  24.698  0.00  0.00    +0.009 A 
ATOM     23  C   UNL     1      16.854  -3.853  24.997  0.00  0.00    -0.017 A 
ATOM     24  C   UNL     1      17.352  -5.786  23.605  0.00  0.00    +0.009 A 
ATOM     25  C   UNL     1      17.207  -4.395  23.739  0.00  0.00    -0.018 A 
ATOM     29  C   UNL     1      16.708  -2.463  25.130  0.00  0.00    +0.008 A 
ATOM     30  C   UNL     1      17.405  -3.530  22.650  0.00  0.00    +0.008 A 
ATOM     31  C   UNL     1      16.909  -1.619  24.037  0.00  0.00    +0.001 A 
ATOM     32  C   UNL     1      17.257  -2.152  22.800  0.00  0.00    +0.001 A 
ENDBRANCH  15  18
BRANCH  14  17
ATOM     17  C   UNL     1      13.717  -5.962  31.126  0.00  0.00    +0.037 A 
ATOM     19  C   UNL     1      14.731  -5.459  30.315  0.00  0.00    +0.013 A 
ATOM     20  C   UNL     1      13.367  -5.307  32.304  0.00  0.00    +0.013 A 
ATOM     26  C   UNL     1      15.401  -4.293  30.685  0.00  0.00    +0.001 A 
ATOM     27  C   UNL     1      14.037  -4.141  32.674  0.00  0.00    +0.001 A 
ATOM     28  C   UNL     1      15.054  -3.634  31.865  0.00  0.00    +0.000 A 
ENDBRANCH  14  17
TORSDOF 2
ENDMDL
