MODEL 1
REMARK VINA RESULT:      20.4      0.000      0.000
REMARK  Name = 11883041
REMARK  12 active torsions:
REMARK  status: ('A' for Active; 'I' for Inactive)
REMARK    1  A    between atoms: O_4  and  C_17
REMARK    2  A    between atoms: O_5  and  C_22
REMARK    3  A    between atoms: O_8  and  C_38
REMARK    4  A    between atoms: O_8  and  C_42
REMARK    5  A    between atoms: N_10  and  C_28
REMARK    6  A    between atoms: C_12  and  C_20
REMARK    7  A    between atoms: C_14  and  C_22
REMARK    8  A    between atoms: C_14  and  C_23
REMARK    9  A    between atoms: C_15  and  C_25
REMARK   10  A    between atoms: C_25  and  C_26
REMARK   11  A    between atoms: C_28  and  C_30
REMARK   12  A    between atoms: C_29  and  C_31
REMARK                            x       y       z     vdW  Elec       q    Type
REMARK                         _______ _______ _______ _____ _____    ______ ____
ROOT
ATOM      1  S   UNL     1      -1.032  -0.924  24.224  0.00  0.00    -0.057 S 
ATOM      7  O   UNL     1       2.728   1.788  23.800  0.00  0.00    -0.270 OA
ATOM      9  N   UNL     1      -0.169   1.513  24.325  0.00  0.00    -0.229 NA
ATOM     11  N   UNL     1       1.456  -0.195  23.825  0.00  0.00    -0.261 N 
ATOM     12  C   UNL     1      -3.829   2.652  24.742  0.00  0.00    -0.019 C 
ATOM     13  C   UNL     1      -4.241   1.316  25.502  0.00  0.00    +0.011 C 
ATOM     14  C   UNL     1      -5.768   1.134  25.854  0.00  0.00    +0.021 C 
ATOM     15  C   UNL     1      -2.248   2.830  24.881  0.00  0.00    +0.054 C 
ATOM     16  C   UNL     1      -4.519   3.865  25.421  0.00  0.00    +0.010 C 
ATOM     17  C   UNL     1      -6.310   2.450  26.479  0.00  0.00    +0.123 C 
ATOM     18  C   UNL     1      -3.598   0.062  24.838  0.00  0.00    +0.049 C 
ATOM     19  C   UNL     1      -6.016   3.684  25.632  0.00  0.00    +0.032 C 
ATOM     20  C   UNL     1      -4.216   2.636  23.243  0.00  0.00    +0.012 C 
ATOM     21  C   UNL     1      -1.528   1.541  24.579  0.00  0.00    +0.058 A 
ATOM     23  C   UNL     1      -5.912   0.018  26.928  0.00  0.00    +0.016 C 
ATOM     24  C   UNL     1      -2.150   0.309  24.583  0.00  0.00    +0.015 A 
ATOM     27  C   UNL     1       0.201   0.268  24.116  0.00  0.00    +0.165 A 
ATOM     29  C   UNL     1       2.623   0.572  23.685  0.00  0.00    +0.255 C 
ATOM     46  H   UNL     1       1.514  -1.204  23.722  0.00  0.00    +0.157 HD
ENDROOT
BRANCH  29  31
ATOM      2  F   UNL     1       2.972  -2.110  24.491  0.00  0.00    -0.205 F 
ATOM      3  F   UNL     1       4.813   1.673  22.285  0.00  0.00    -0.205 F 
ATOM     31  C   UNL     1       3.862  -0.199  23.395  0.00  0.00    +0.107 A 
ATOM     34  C   UNL     1       3.974  -1.523  23.820  0.00  0.00    +0.138 A 
ATOM     35  C   UNL     1       4.910   0.401  22.699  0.00  0.00    +0.138 A 
ATOM     39  C   UNL     1       5.135  -2.246  23.549  0.00  0.00    +0.039 A 
ATOM     40  C   UNL     1       6.072  -0.323  22.427  0.00  0.00    +0.039 A 
ATOM     41  C   UNL     1       6.184  -1.646  22.852  0.00  0.00    +0.006 A 
ENDBRANCH  29  31
BRANCH  17   4
ATOM      4  O   UNL     1      -7.718   2.365  26.691  0.00  0.00    -0.391 OA
ATOM     43  H   UNL     1      -8.061   1.656  26.120  0.00  0.00    +0.210 HD
ENDBRANCH  17   4
BRANCH  14  22
ATOM     22  C   UNL     1      -6.651   0.684  24.668  0.00  0.00    +0.165 C 
BRANCH  22   5
ATOM      5  O   UNL     1      -7.460   1.776  24.292  0.00  0.00    -0.394 OA
ATOM     44  H   UNL     1      -7.017   2.224  23.552  0.00  0.00    +0.209 HD
ENDBRANCH  22   5
ENDBRANCH  14  22
BRANCH  15  25
ATOM     25  C   UNL     1      -1.664   4.001  24.078  0.00  0.00    +0.106 C 
BRANCH  25  26
ATOM      6  O   UNL     1       0.083   5.628  24.470  0.00  0.00    -0.276 OA
ATOM     10  N   UNL     1       0.234   3.526  25.449  0.00  0.00    -0.311 N 
ATOM     26  C   UNL     1      -0.366   4.503  24.669  0.00  0.00    +0.214 C 
ATOM     45  H   UNL     1      -0.225   2.624  25.555  0.00  0.00    +0.149 HD
BRANCH  10  28
ATOM     28  C   UNL     1       1.488   3.725  26.137  0.00  0.00    +0.139 C 
BRANCH  28  30
ATOM     30  C   UNL     1       1.450   3.199  27.543  0.00  0.00    -0.030 A 
ATOM     32  C   UNL     1       2.614   3.181  28.311  0.00  0.00    +0.009 A 
ATOM     33  C   UNL     1       0.251   2.730  28.080  0.00  0.00    +0.009 A 
ATOM     36  C   UNL     1       2.578   2.695  29.618  0.00  0.00    +0.046 A 
ATOM     37  C   UNL     1       0.216   2.243  29.387  0.00  0.00    +0.046 A 
ATOM     38  C   UNL     1       1.380   2.225  30.156  0.00  0.00    +0.120 A 
BRANCH  38   8
ATOM      8  O   UNL     1       1.346   1.749  31.431  0.00  0.00    -0.495 OA
ATOM     42  C   UNL     1       0.339   2.274  32.294  0.00  0.00    +0.277 C 
ENDBRANCH  38   8
ENDBRANCH  28  30
ENDBRANCH  10  28
ENDBRANCH  25  26
ENDBRANCH  15  25
TORSDOF 9
ENDMDL
MODEL 2
REMARK VINA RESULT:      21.0      2.875      4.057
REMARK  Name = 11883041
REMARK  12 active torsions:
REMARK  status: ('A' for Active; 'I' for Inactive)
REMARK    1  A    between atoms: O_4  and  C_17
REMARK    2  A    between atoms: O_5  and  C_22
REMARK    3  A    between atoms: O_8  and  C_38
REMARK    4  A    between atoms: O_8  and  C_42
REMARK    5  A    between atoms: N_10  and  C_28
REMARK    6  A    between atoms: C_12  and  C_20
REMARK    7  A    between atoms: C_14  and  C_22
REMARK    8  A    between atoms: C_14  and  C_23
REMARK    9  A    between atoms: C_15  and  C_25
REMARK   10  A    between atoms: C_25  and  C_26
REMARK   11  A    between atoms: C_28  and  C_30
REMARK   12  A    between atoms: C_29  and  C_31
REMARK                            x       y       z     vdW  Elec       q    Type
REMARK                         _______ _______ _______ _____ _____    ______ ____
ROOT
ATOM      1  S   UNL     1       0.379   2.022  25.995  0.00  0.00    -0.057 S 
ATOM      7  O   UNL     1       2.150   0.361  22.023  0.00  0.00    -0.270 OA
ATOM      9  N   UNL     1      -0.106   1.587  23.491  0.00  0.00    -0.229 NA
ATOM     11  N   UNL     1       2.073   0.953  24.303  0.00  0.00    -0.261 N 
ATOM     12  C   UNL     1      -3.741   2.699  24.137  0.00  0.00    -0.019 C 
ATOM     13  C   UNL     1      -3.311   3.708  25.290  0.00  0.00    +0.011 C 
ATOM     14  C   UNL     1      -4.471   4.431  26.078  0.00  0.00    +0.021 C 
ATOM     15  C   UNL     1      -2.466   2.435  23.212  0.00  0.00    +0.054 C 
ATOM     16  C   UNL     1      -4.848   3.351  23.267  0.00  0.00    +0.010 C 
ATOM     17  C   UNL     1      -5.512   4.984  25.063  0.00  0.00    +0.123 C 
ATOM     18  C   UNL     1      -2.221   3.086  26.213  0.00  0.00    +0.049 C 
ATOM     19  C   UNL     1      -6.002   3.932  24.073  0.00  0.00    +0.032 C 
ATOM     20  C   UNL     1      -4.269   1.350  24.684  0.00  0.00    +0.012 C 
ATOM     21  C   UNL     1      -1.242   2.149  24.045  0.00  0.00    +0.058 A 
ATOM     23  C   UNL     1      -3.881   5.650  26.843  0.00  0.00    +0.016 C 
ATOM     24  C   UNL     1      -1.148   2.466  25.384  0.00  0.00    +0.015 A 
ATOM     27  C   UNL     1       0.810   1.467  24.428  0.00  0.00    +0.165 A 
ATOM     29  C   UNL     1       2.659   0.439  23.135  0.00  0.00    +0.255 C 
ATOM     46  H   UNL     1       2.619   0.977  25.159  0.00  0.00    +0.157 HD
ENDROOT
BRANCH  29  31
ATOM      2  F   UNL     1       3.318  -2.147  24.052  0.00  0.00    -0.205 F 
ATOM      3  F   UNL     1       4.880   2.067  22.516  0.00  0.00    -0.205 F 
ATOM     31  C   UNL     1       4.064  -0.028  23.281  0.00  0.00    +0.107 A 
ATOM     34  C   UNL     1       4.325  -1.319  23.740  0.00  0.00    +0.138 A 
ATOM     35  C   UNL     1       5.120   0.824  22.958  0.00  0.00    +0.138 A 
ATOM     39  C   UNL     1       5.642  -1.758  23.876  0.00  0.00    +0.039 A 
ATOM     40  C   UNL     1       6.437   0.385  23.095  0.00  0.00    +0.039 A 
ATOM     41  C   UNL     1       6.698  -0.906  23.554  0.00  0.00    +0.006 A 
ENDBRANCH  29  31
BRANCH  17   4
ATOM      4  O   UNL     1      -6.638   5.531  25.746  0.00  0.00    -0.391 OA
ATOM     43  H   UNL     1      -7.205   4.791  26.022  0.00  0.00    +0.210 HD
ENDBRANCH  17   4
BRANCH  14  22
ATOM     22  C   UNL     1      -5.158   3.560  27.152  0.00  0.00    +0.165 C 
BRANCH  22   5
ATOM      5  O   UNL     1      -6.206   2.852  26.530  0.00  0.00    -0.394 OA
ATOM     44  H   UNL     1      -6.658   3.471  25.931  0.00  0.00    +0.209 HD
ENDBRANCH  22   5
ENDBRANCH  14  22
BRANCH  15  25
ATOM     25  C   UNL     1      -2.672   1.367  22.130  0.00  0.00    +0.106 C 
BRANCH  25  26
ATOM      6  O   UNL     1      -3.813  -0.635  22.869  0.00  0.00    -0.276 OA
ATOM     10  N   UNL     1      -1.500  -0.501  23.050  0.00  0.00    -0.311 N 
ATOM     26  C   UNL     1      -2.759  -0.024  22.715  0.00  0.00    +0.214 C 
ATOM     45  H   UNL     1      -0.686   0.083  22.876  0.00  0.00    +0.149 HD
BRANCH  10  28
ATOM     28  C   UNL     1      -1.279  -1.805  23.632  0.00  0.00    +0.139 C 
BRANCH  28  30
ATOM     30  C   UNL     1      -1.890  -1.922  24.999  0.00  0.00    -0.030 A 
ATOM     32  C   UNL     1      -1.511  -1.038  26.009  0.00  0.00    +0.009 A 
ATOM     33  C   UNL     1      -2.835  -2.915  25.258  0.00  0.00    +0.009 A 
ATOM     36  C   UNL     1      -2.079  -1.146  27.278  0.00  0.00    +0.046 A 
ATOM     37  C   UNL     1      -3.403  -3.022  26.527  0.00  0.00    +0.046 A 
ATOM     38  C   UNL     1      -3.024  -2.138  27.538  0.00  0.00    +0.120 A 
BRANCH  38   8
ATOM      8  O   UNL     1      -3.578  -2.244  28.777  0.00  0.00    -0.495 OA
ATOM     42  C   UNL     1      -2.797  -2.886  29.784  0.00  0.00    +0.277 C 
ENDBRANCH  38   8
ENDBRANCH  28  30
ENDBRANCH  10  28
ENDBRANCH  25  26
ENDBRANCH  15  25
TORSDOF 9
ENDMDL
MODEL 3
REMARK VINA RESULT:      21.0      2.878      4.248
REMARK  Name = 11883041
REMARK  12 active torsions:
REMARK  status: ('A' for Active; 'I' for Inactive)
REMARK    1  A    between atoms: O_4  and  C_17
REMARK    2  A    between atoms: O_5  and  C_22
REMARK    3  A    between atoms: O_8  and  C_38
REMARK    4  A    between atoms: O_8  and  C_42
REMARK    5  A    between atoms: N_10  and  C_28
REMARK    6  A    between atoms: C_12  and  C_20
REMARK    7  A    between atoms: C_14  and  C_22
REMARK    8  A    between atoms: C_14  and  C_23
REMARK    9  A    between atoms: C_15  and  C_25
REMARK   10  A    between atoms: C_25  and  C_26
REMARK   11  A    between atoms: C_28  and  C_30
REMARK   12  A    between atoms: C_29  and  C_31
REMARK                            x       y       z     vdW  Elec       q    Type
REMARK                         _______ _______ _______ _____ _____    ______ ____
ROOT
ATOM      1  S   UNL     1       0.385   2.014  25.998  0.00  0.00    -0.057 S 
ATOM      7  O   UNL     1       2.167   0.376  22.022  0.00  0.00    -0.270 OA
ATOM      9  N   UNL     1      -0.090   1.602  23.489  0.00  0.00    -0.229 NA
ATOM     11  N   UNL     1       2.082   0.950  24.306  0.00  0.00    -0.261 N 
ATOM     12  C   UNL     1      -3.723   2.725  24.126  0.00  0.00    -0.019 C 
ATOM     13  C   UNL     1      -3.294   3.723  25.290  0.00  0.00    +0.011 C 
ATOM     14  C   UNL     1      -4.454   4.445  26.077  0.00  0.00    +0.021 C 
ATOM     15  C   UNL     1      -2.444   2.462  23.205  0.00  0.00    +0.054 C 
ATOM     16  C   UNL     1      -4.823   3.390  23.256  0.00  0.00    +0.010 C 
ATOM     17  C   UNL     1      -5.487   5.011  25.062  0.00  0.00    +0.123 C 
ATOM     18  C   UNL     1      -2.211   3.088  26.212  0.00  0.00    +0.049 C 
ATOM     19  C   UNL     1      -5.978   3.970  24.061  0.00  0.00    +0.032 C 
ATOM     20  C   UNL     1      -4.260   1.374  24.659  0.00  0.00    +0.012 C 
ATOM     21  C   UNL     1      -1.226   2.164  24.041  0.00  0.00    +0.058 A 
ATOM     23  C   UNL     1      -3.862   5.655  26.855  0.00  0.00    +0.016 C 
ATOM     24  C   UNL     1      -1.137   2.470  25.384  0.00  0.00    +0.015 A 
ATOM     27  C   UNL     1       0.821   1.469  24.429  0.00  0.00    +0.165 A 
ATOM     29  C   UNL     1       2.672   0.443  23.137  0.00  0.00    +0.255 C 
ATOM     46  H   UNL     1       2.624   0.964  25.165  0.00  0.00    +0.157 HD
ENDROOT
BRANCH  29  31
ATOM      2  F   UNL     1       4.902   2.068  22.546  0.00  0.00    -0.205 F 
ATOM      3  F   UNL     1       3.314  -2.155  24.032  0.00  0.00    -0.205 F 
ATOM     31  C   UNL     1       4.073  -0.032  23.285  0.00  0.00    +0.107 A 
ATOM     34  C   UNL     1       5.134   0.819  22.977  0.00  0.00    +0.138 A 
ATOM     35  C   UNL     1       4.327  -1.329  23.732  0.00  0.00    +0.138 A 
ATOM     39  C   UNL     1       6.449   0.373  23.115  0.00  0.00    +0.039 A 
ATOM     40  C   UNL     1       5.641  -1.774  23.871  0.00  0.00    +0.039 A 
ATOM     41  C   UNL     1       6.703  -0.923  23.563  0.00  0.00    +0.006 A 
ENDBRANCH  29  31
BRANCH  17   4
ATOM      4  O   UNL     1      -6.615   5.558  25.744  0.00  0.00    -0.391 OA
ATOM     43  H   UNL     1      -6.408   5.572  26.694  0.00  0.00    +0.210 HD
ENDBRANCH  17   4
BRANCH  14  22
ATOM     22  C   UNL     1      -5.150   3.568  27.141  0.00  0.00    +0.165 C 
BRANCH  22   5
ATOM      5  O   UNL     1      -6.208   2.881  26.511  0.00  0.00    -0.394 OA
ATOM     44  H   UNL     1      -6.364   3.313  25.654  0.00  0.00    +0.209 HD
ENDBRANCH  22   5
ENDBRANCH  14  22
BRANCH  15  25
ATOM     25  C   UNL     1      -2.650   1.404  22.113  0.00  0.00    +0.106 C 
BRANCH  25  26
ATOM      6  O   UNL     1      -3.795  -0.605  22.827  0.00  0.00    -0.276 OA
ATOM     10  N   UNL     1      -1.483  -0.470  23.027  0.00  0.00    -0.311 N 
ATOM     26  C   UNL     1      -2.740   0.008  22.686  0.00  0.00    +0.214 C 
ATOM     45  H   UNL     1      -0.669   0.117  22.864  0.00  0.00    +0.149 HD
BRANCH  10  28
ATOM     28  C   UNL     1      -1.265  -1.778  23.600  0.00  0.00    +0.139 C 
BRANCH  28  30
ATOM     30  C   UNL     1      -1.876  -1.904  24.966  0.00  0.00    -0.030 A 
ATOM     32  C   UNL     1      -1.486  -1.035  25.986  0.00  0.00    +0.009 A 
ATOM     33  C   UNL     1      -2.832  -2.888  25.215  0.00  0.00    +0.009 A 
ATOM     36  C   UNL     1      -2.054  -1.150  27.254  0.00  0.00    +0.046 A 
ATOM     37  C   UNL     1      -3.400  -3.003  26.483  0.00  0.00    +0.046 A 
ATOM     38  C   UNL     1      -3.011  -2.134  27.503  0.00  0.00    +0.120 A 
BRANCH  38   8
ATOM      8  O   UNL     1      -3.564  -2.247  28.742  0.00  0.00    -0.495 OA
ATOM     42  C   UNL     1      -2.782  -2.892  29.746  0.00  0.00    +0.277 C 
ENDBRANCH  38   8
ENDBRANCH  28  30
ENDBRANCH  10  28
ENDBRANCH  25  26
ENDBRANCH  15  25
TORSDOF 9
ENDMDL
MODEL 4
REMARK VINA RESULT:      22.9      2.834      4.799
REMARK  Name = 11883041
REMARK  12 active torsions:
REMARK  status: ('A' for Active; 'I' for Inactive)
REMARK    1  A    between atoms: O_4  and  C_17
REMARK    2  A    between atoms: O_5  and  C_22
REMARK    3  A    between atoms: O_8  and  C_38
REMARK    4  A    between atoms: O_8  and  C_42
REMARK    5  A    between atoms: N_10  and  C_28
REMARK    6  A    between atoms: C_12  and  C_20
REMARK    7  A    between atoms: C_14  and  C_22
REMARK    8  A    between atoms: C_14  and  C_23
REMARK    9  A    between atoms: C_15  and  C_25
REMARK   10  A    between atoms: C_25  and  C_26
REMARK   11  A    between atoms: C_28  and  C_30
REMARK   12  A    between atoms: C_29  and  C_31
REMARK                            x       y       z     vdW  Elec       q    Type
REMARK                         _______ _______ _______ _____ _____    ______ ____
ROOT
ATOM      1  S   UNL     1       2.550  -1.673  23.020  0.00  0.00    -0.057 S 
ATOM      7  O   UNL     1       5.538   1.706  24.173  0.00  0.00    -0.270 OA
ATOM      9  N   UNL     1       2.766   0.680  24.075  0.00  0.00    -0.229 NA
ATOM     11  N   UNL     1       4.803  -0.363  23.317  0.00  0.00    -0.261 N 
ATOM     12  C   UNL     1      -1.084   0.825  24.218  0.00  0.00    -0.019 C 
ATOM     13  C   UNL     1      -1.216  -0.750  24.406  0.00  0.00    +0.011 C 
ATOM     14  C   UNL     1      -2.674  -1.351  24.411  0.00  0.00    +0.021 C 
ATOM     15  C   UNL     1       0.384   1.256  24.675  0.00  0.00    +0.054 C 
ATOM     16  C   UNL     1      -2.111   1.541  25.135  0.00  0.00    +0.010 C 
ATOM     17  C   UNL     1      -3.579  -0.492  25.338  0.00  0.00    +0.123 C 
ATOM     18  C   UNL     1      -0.225  -1.518  23.481  0.00  0.00    +0.049 C 
ATOM     19  C   UNL     1      -3.528   0.997  25.015  0.00  0.00    +0.032 C 
ATOM     20  C   UNL     1      -1.322   1.279  22.756  0.00  0.00    +0.012 C 
ATOM     21  C   UNL     1       1.426   0.338  24.088  0.00  0.00    +0.058 A 
ATOM     23  C   UNL     1      -2.629  -2.786  25.010  0.00  0.00    +0.016 C 
ATOM     24  C   UNL     1       1.133  -0.909  23.574  0.00  0.00    +0.015 A 
ATOM     27  C   UNL     1       3.451  -0.301  23.528  0.00  0.00    +0.165 A 
ATOM     29  C   UNL     1       5.750   0.621  23.643  0.00  0.00    +0.255 C 
ATOM     46  H   UNL     1       5.119  -1.231  22.896  0.00  0.00    +0.157 HD
ENDROOT
BRANCH  29  31
ATOM      2  F   UNL     1       7.917   2.297  24.321  0.00  0.00    -0.205 F 
ATOM      3  F   UNL     1       6.477  -1.763  22.319  0.00  0.00    -0.205 F 
ATOM     31  C   UNL     1       7.161   0.275  23.328  0.00  0.00    +0.107 A 
ATOM     34  C   UNL     1       8.190   1.146  23.689  0.00  0.00    +0.138 A 
ATOM     35  C   UNL     1       7.457  -0.919  22.671  0.00  0.00    +0.138 A 
ATOM     39  C   UNL     1       9.514   0.822  23.393  0.00  0.00    +0.039 A 
ATOM     40  C   UNL     1       8.782  -1.243  22.375  0.00  0.00    +0.039 A 
ATOM     41  C   UNL     1       9.810  -0.372  22.736  0.00  0.00    +0.006 A 
ENDBRANCH  29  31
BRANCH  17   4
ATOM      4  O   UNL     1      -4.935  -0.931  25.266  0.00  0.00    -0.391 OA
ATOM     43  H   UNL     1      -5.362  -0.451  24.535  0.00  0.00    +0.210 HD
ENDBRANCH  17   4
BRANCH  14  22
ATOM     22  C   UNL     1      -3.309  -1.507  23.011  0.00  0.00    +0.165 C 
BRANCH  22   5
ATOM      5  O   UNL     1      -4.347  -2.455  23.110  0.00  0.00    -0.394 OA
ATOM     44  H   UNL     1      -4.828  -2.274  23.936  0.00  0.00    +0.209 HD
ENDBRANCH  22   5
ENDBRANCH  14  22
BRANCH  15  25
ATOM     25  C   UNL     1       0.726   2.730  24.421  0.00  0.00    +0.106 C 
BRANCH  25  26
ATOM      6  O   UNL     1      -0.355   3.706  26.354  0.00  0.00    -0.276 OA
ATOM     10  N   UNL     1      -0.924   4.448  24.226  0.00  0.00    -0.311 N 
ATOM     26  C   UNL     1      -0.226   3.664  25.134  0.00  0.00    +0.214 C 
ATOM     45  H   UNL     1      -0.739   4.339  23.233  0.00  0.00    +0.149 HD
BRANCH  10  28
ATOM     28  C   UNL     1      -1.905   5.431  24.623  0.00  0.00    +0.139 C 
BRANCH  28  30
ATOM     30  C   UNL     1      -3.184   4.795  25.086  0.00  0.00    -0.030 A 
ATOM     32  C   UNL     1      -4.158   4.433  24.156  0.00  0.00    +0.009 A 
ATOM     33  C   UNL     1      -3.397   4.566  26.446  0.00  0.00    +0.009 A 
ATOM     36  C   UNL     1      -5.346   3.841  24.585  0.00  0.00    +0.046 A 
ATOM     37  C   UNL     1      -4.585   3.974  26.875  0.00  0.00    +0.046 A 
ATOM     38  C   UNL     1      -5.560   3.612  25.944  0.00  0.00    +0.120 A 
BRANCH  38   8
ATOM      8  O   UNL     1      -6.720   3.036  26.363  0.00  0.00    -0.495 OA
ATOM     42  C   UNL     1      -6.658   1.668  26.765  0.00  0.00    +0.277 C 
ENDBRANCH  38   8
ENDBRANCH  28  30
ENDBRANCH  10  28
ENDBRANCH  25  26
ENDBRANCH  15  25
TORSDOF 9
ENDMDL
MODEL 5
REMARK VINA RESULT:      23.0      2.829      5.073
REMARK  Name = 11883041
REMARK  12 active torsions:
REMARK  status: ('A' for Active; 'I' for Inactive)
REMARK    1  A    between atoms: O_4  and  C_17
REMARK    2  A    between atoms: O_5  and  C_22
REMARK    3  A    between atoms: O_8  and  C_38
REMARK    4  A    between atoms: O_8  and  C_42
REMARK    5  A    between atoms: N_10  and  C_28
REMARK    6  A    between atoms: C_12  and  C_20
REMARK    7  A    between atoms: C_14  and  C_22
REMARK    8  A    between atoms: C_14  and  C_23
REMARK    9  A    between atoms: C_15  and  C_25
REMARK   10  A    between atoms: C_25  and  C_26
REMARK   11  A    between atoms: C_28  and  C_30
REMARK   12  A    between atoms: C_29  and  C_31
REMARK                            x       y       z     vdW  Elec       q    Type
REMARK                         _______ _______ _______ _____ _____    ______ ____
ROOT
ATOM      1  S   UNL     1      -0.963  -0.573  24.795  0.00  0.00    -0.057 S 
ATOM      7  O   UNL     1       2.663   1.918  23.273  0.00  0.00    -0.270 OA
ATOM      9  N   UNL     1      -0.186   1.780  24.053  0.00  0.00    -0.229 NA
ATOM     11  N   UNL     1       1.469   0.028  24.017  0.00  0.00    -0.261 N 
ATOM     12  C   UNL     1      -3.855   2.934  24.330  0.00  0.00    -0.019 C 
ATOM     13  C   UNL     1      -4.172   1.907  25.504  0.00  0.00    +0.011 C 
ATOM     14  C   UNL     1      -5.668   1.823  25.998  0.00  0.00    +0.021 C 
ATOM     15  C   UNL     1      -2.276   3.173  24.298  0.00  0.00    +0.054 C 
ATOM     16  C   UNL     1      -4.547   4.290  24.631  0.00  0.00    +0.010 C 
ATOM     17  C   UNL     1      -6.220   3.262  26.205  0.00  0.00    +0.123 C 
ATOM     18  C   UNL     1      -3.523   0.517  25.233  0.00  0.00    +0.049 C 
ATOM     19  C   UNL     1      -6.022   4.162  24.990  0.00  0.00    +0.032 C 
ATOM     20  C   UNL     1      -4.328   2.431  22.945  0.00  0.00    +0.012 C 
ATOM     21  C   UNL     1      -1.528   1.867  24.376  0.00  0.00    +0.058 A 
ATOM     23  C   UNL     1      -5.707   1.110  27.379  0.00  0.00    +0.016 C 
ATOM     24  C   UNL     1      -2.103   0.691  24.816  0.00  0.00    +0.015 A 
ATOM     27  C   UNL     1       0.216   0.540  24.229  0.00  0.00    +0.165 A 
ATOM     29  C   UNL     1       2.596   0.729  23.561  0.00  0.00    +0.255 C 
ATOM     46  H   UNL     1       1.557  -0.959  24.238  0.00  0.00    +0.157 HD
ENDROOT
BRANCH  29  31
ATOM      2  F   UNL     1       2.694  -2.025  24.171  0.00  0.00    -0.205 F 
ATOM      3  F   UNL     1       5.054   1.834  22.722  0.00  0.00    -0.205 F 
ATOM     31  C   UNL     1       3.843  -0.075  23.449  0.00  0.00    +0.107 A 
ATOM     34  C   UNL     1       3.827  -1.433  23.766  0.00  0.00    +0.138 A 
ATOM     35  C   UNL     1       5.028   0.529  23.029  0.00  0.00    +0.138 A 
ATOM     39  C   UNL     1       4.996  -2.187  23.662  0.00  0.00    +0.039 A 
ATOM     40  C   UNL     1       6.197  -0.225  22.924  0.00  0.00    +0.039 A 
ATOM     41  C   UNL     1       6.181  -1.583  23.241  0.00  0.00    +0.006 A 
ENDBRANCH  29  31
BRANCH  17   4
ATOM      4  O   UNL     1      -7.609   3.227  26.527  0.00  0.00    -0.391 OA
ATOM     43  H   UNL     1      -8.104   3.487  25.731  0.00  0.00    +0.210 HD
ENDBRANCH  17   4
BRANCH  14  22
ATOM     22  C   UNL     1      -6.601   1.002  25.081  0.00  0.00    +0.165 C 
BRANCH  22   5
ATOM      5  O   UNL     1      -7.383   1.909  24.335  0.00  0.00    -0.394 OA
ATOM     44  H   UNL     1      -6.840   2.700  24.180  0.00  0.00    +0.209 HD
ENDBRANCH  22   5
ENDBRANCH  14  22
BRANCH  15  25
ATOM     25  C   UNL     1      -1.784   4.033  23.126  0.00  0.00    +0.106 C 
BRANCH  25  26
ATOM      6  O   UNL     1      -0.160   5.029  24.617  0.00  0.00    -0.276 OA
ATOM     10  N   UNL     1       0.154   5.173  22.319  0.00  0.00    -0.311 N 
ATOM     26  C   UNL     1      -0.521   4.790  23.468  0.00  0.00    +0.214 C 
ATOM     45  H   UNL     1      -0.228   4.919  21.411  0.00  0.00    +0.149 HD
BRANCH  10  28
ATOM     28  C   UNL     1       1.394   5.914  22.341  0.00  0.00    +0.139 C 
BRANCH  28  30
ATOM     30  C   UNL     1       2.156   5.777  21.055  0.00  0.00    -0.030 A 
ATOM     32  C   UNL     1       3.534   5.557  21.082  0.00  0.00    +0.009 A 
ATOM     33  C   UNL     1       1.488   5.869  19.834  0.00  0.00    +0.009 A 
ATOM     36  C   UNL     1       4.242   5.428  19.887  0.00  0.00    +0.046 A 
ATOM     37  C   UNL     1       2.196   5.740  18.640  0.00  0.00    +0.046 A 
ATOM     38  C   UNL     1       3.574   5.520  18.666  0.00  0.00    +0.120 A 
BRANCH  38   8
ATOM      8  O   UNL     1       4.266   5.396  17.501  0.00  0.00    -0.495 OA
ATOM     42  C   UNL     1       5.471   4.634  17.539  0.00  0.00    +0.277 C 
ENDBRANCH  38   8
ENDBRANCH  28  30
ENDBRANCH  10  28
ENDBRANCH  25  26
ENDBRANCH  15  25
TORSDOF 9
ENDMDL
