MODEL 1
REMARK VINA RESULT:      -1.3      0.000      0.000
REMARK  Name = 40777119
REMARK  6 active torsions:
REMARK  status: ('A' for Active; 'I' for Inactive)
REMARK    1  A    between atoms: N_4  and  C_14
REMARK    2  A    between atoms: C_8  and  C_15
REMARK    3  A    between atoms: C_9  and  C_14
REMARK    4  A    between atoms: C_17  and  C_20
REMARK    5  A    between atoms: C_18  and  C_21
REMARK    6  A    between atoms: C_19  and  C_22
REMARK                            x       y       z     vdW  Elec       q    Type
REMARK                         _______ _______ _______ _____ _____    ______ ____
ROOT
ATOM      3  N   UNL     1      -2.661  -2.252  23.554  0.00  0.00    -0.297 NA
ATOM      7  C   UNL     1      -2.843  -1.446  26.024  0.00  0.00    +0.002 C 
ATOM      8  C   UNL     1      -3.940  -0.775  25.151  0.00  0.00    +0.055 C 
ATOM      9  C   UNL     1      -1.330  -1.805  24.042  0.00  0.00    +0.074 C 
ATOM     10  C   UNL     1      -1.455  -1.133  25.426  0.00  0.00    +0.024 C 
ATOM     11  C   UNL     1      -3.053  -2.970  25.910  0.00  0.00    +0.019 C 
ATOM     12  C   UNL     1      -3.643  -1.146  23.669  0.00  0.00    +0.094 C 
ATOM     13  C   UNL     1      -3.114  -3.365  24.424  0.00  0.00    +0.085 C 
ENDROOT
BRANCH   8  15
ATOM      5  N   UNL     1      -5.438   1.073  25.716  0.00  0.00    -0.237 NA
ATOM      6  N   UNL     1      -4.712   3.371  25.678  0.00  0.00    -0.232 NA
ATOM     15  C   UNL     1      -4.195   0.713  25.335  0.00  0.00    +0.050 A 
ATOM     16  C   UNL     1      -3.172   1.612  25.109  0.00  0.00    +0.052 A 
ATOM     17  C   UNL     1      -3.492   2.940  25.298  0.00  0.00    +0.076 A 
ATOM     18  C   UNL     1      -5.625   2.398  25.868  0.00  0.00    +0.127 A 
ATOM     21  C   UNL     1      -6.987   2.835  26.288  0.00  0.00    +0.088 C 
BRANCH  17  20
ATOM      1 BR   UNL     1      -0.450   2.041  25.707  0.00  0.00    -0.050 Br
ATOM     20  C   UNL     1      -2.511   3.980  25.092  0.00  0.00    +0.014 A 
ATOM     23  C   UNL     1      -1.144   3.745  25.233  0.00  0.00    +0.027 A 
ATOM     24  C   UNL     1      -2.969   5.250  24.743  0.00  0.00    +0.011 A 
ATOM     27  C   UNL     1      -0.234   4.782  25.024  0.00  0.00    +0.016 A 
ATOM     28  C   UNL     1      -2.059   6.287  24.533  0.00  0.00    +0.001 A 
ATOM     31  C   UNL     1      -0.691   6.053  24.674  0.00  0.00    +0.001 A 
ENDBRANCH  17  20
ENDBRANCH   8  15
BRANCH   9  14
ATOM     14  C   UNL     1      -0.612  -0.905  23.033  0.00  0.00    +0.123 C 
BRANCH  14   4
ATOM      2  O   UNL     1       1.570  -0.336  21.255  0.00  0.00    -0.270 OA
ATOM      4  N   UNL     1       0.761  -0.728  23.394  0.00  0.00    -0.310 N 
ATOM     19  C   UNL     1       1.760  -0.453  22.463  0.00  0.00    +0.244 C 
ATOM     33  H   UNL     1       0.997  -0.875  24.370  0.00  0.00    +0.149 HD
BRANCH  19  22
ATOM     22  C   UNL     1       3.141  -0.324  22.996  0.00  0.00    +0.037 A 
ATOM     25  C   UNL     1       3.744  -1.406  23.640  0.00  0.00    +0.013 A 
ATOM     26  C   UNL     1       3.834   0.877  22.853  0.00  0.00    +0.013 A 
ATOM     29  C   UNL     1       5.041  -1.285  24.140  0.00  0.00    +0.001 A 
ATOM     30  C   UNL     1       5.131   0.998  23.352  0.00  0.00    +0.001 A 
ATOM     32  C   UNL     1       5.735  -0.083  23.995  0.00  0.00    +0.000 A 
ENDBRANCH  19  22
ENDBRANCH  14   4
ENDBRANCH   9  14
TORSDOF 5
ENDMDL
MODEL 2
REMARK VINA RESULT:       2.4      2.348      6.056
REMARK  Name = 40777119
REMARK  6 active torsions:
REMARK  status: ('A' for Active; 'I' for Inactive)
REMARK    1  A    between atoms: N_4  and  C_14
REMARK    2  A    between atoms: C_8  and  C_15
REMARK    3  A    between atoms: C_9  and  C_14
REMARK    4  A    between atoms: C_17  and  C_20
REMARK    5  A    between atoms: C_18  and  C_21
REMARK    6  A    between atoms: C_19  and  C_22
REMARK                            x       y       z     vdW  Elec       q    Type
REMARK                         _______ _______ _______ _____ _____    ______ ____
ROOT
ATOM      3  N   UNL     1      -5.260   3.456  24.292  0.00  0.00    -0.297 NA
ATOM      7  C   UNL     1      -3.882   4.087  26.410  0.00  0.00    +0.002 C 
ATOM      8  C   UNL     1      -2.949   3.956  25.173  0.00  0.00    +0.055 C 
ATOM      9  C   UNL     1      -5.604   2.542  25.414  0.00  0.00    +0.074 C 
ATOM     10  C   UNL     1      -4.653   2.765  26.609  0.00  0.00    +0.024 C 
ATOM     11  C   UNL     1      -4.923   5.173  26.069  0.00  0.00    +0.019 C 
ATOM     12  C   UNL     1      -3.806   3.386  24.006  0.00  0.00    +0.094 C 
ATOM     13  C   UNL     1      -5.582   4.839  24.719  0.00  0.00    +0.085 C 
ENDROOT
BRANCH   8  15
ATOM      5  N   UNL     1      -1.034   3.302  26.546  0.00  0.00    -0.237 NA
ATOM      6  N   UNL     1       0.733   1.899  25.699  0.00  0.00    -0.232 NA
ATOM     15  C   UNL     1      -1.633   3.212  25.341  0.00  0.00    +0.050 A 
ATOM     16  C   UNL     1      -1.118   2.494  24.280  0.00  0.00    +0.052 A 
ATOM     17  C   UNL     1       0.080   1.852  24.520  0.00  0.00    +0.076 A 
ATOM     18  C   UNL     1       0.128   2.632  26.655  0.00  0.00    +0.127 A 
ATOM     21  C   UNL     1       0.822   2.709  27.973  0.00  0.00    +0.088 C 
BRANCH  17  20
ATOM      1 BR   UNL     1      -1.881   0.629  22.309  0.00  0.00    -0.050 Br
ATOM     20  C   UNL     1       0.725   1.069  23.493  0.00  0.00    +0.014 A 
ATOM     23  C   UNL     1       0.006   0.470  22.458  0.00  0.00    +0.027 A 
ATOM     24  C   UNL     1       2.110   0.921  23.557  0.00  0.00    +0.011 A 
ATOM     27  C   UNL     1       0.674  -0.277  21.487  0.00  0.00    +0.016 A 
ATOM     28  C   UNL     1       2.778   0.174  22.586  0.00  0.00    +0.001 A 
ATOM     31  C   UNL     1       2.060  -0.425  21.551  0.00  0.00    +0.001 A 
ENDBRANCH  17  20
ENDBRANCH   8  15
BRANCH   9  14
ATOM     14  C   UNL     1      -5.640   1.075  24.979  0.00  0.00    +0.123 C 
BRANCH  14   4
ATOM      2  O   UNL     1      -4.813  -1.483  23.969  0.00  0.00    -0.270 OA
ATOM      4  N   UNL     1      -4.360   0.460  25.155  0.00  0.00    -0.310 N 
ATOM     19  C   UNL     1      -4.041  -0.791  24.628  0.00  0.00    +0.244 C 
ATOM     33  H   UNL     1      -3.696   0.952  25.743  0.00  0.00    +0.149 HD
BRANCH  19  22
ATOM     22  C   UNL     1      -2.677  -1.301  24.922  0.00  0.00    +0.037 A 
ATOM     25  C   UNL     1      -2.187  -2.414  24.238  0.00  0.00    +0.013 A 
ATOM     26  C   UNL     1      -1.887  -0.667  25.880  0.00  0.00    +0.013 A 
ATOM     29  C   UNL     1      -0.906  -2.893  24.513  0.00  0.00    +0.001 A 
ATOM     30  C   UNL     1      -0.606  -1.145  26.155  0.00  0.00    +0.001 A 
ATOM     32  C   UNL     1      -0.115  -2.258  25.471  0.00  0.00    +0.000 A 
ENDBRANCH  19  22
ENDBRANCH  14   4
ENDBRANCH   9  14
TORSDOF 5
ENDMDL
