MODEL 1
REMARK VINA RESULT:       4.1      0.000      0.000
REMARK  Name = 45783618
REMARK  13 active torsions:
REMARK  status: ('A' for Active; 'I' for Inactive)
REMARK    1  A    between atoms: O_2  and  C_23
REMARK    2  A    between atoms: O_2  and  C_29
REMARK    3  A    between atoms: O_3  and  C_24
REMARK    4  A    between atoms: O_3  and  C_30
REMARK    5  A    between atoms: O_4  and  C_25
REMARK    6  A    between atoms: O_4  and  C_31
REMARK    7  A    between atoms: O_6  and  C_34
REMARK    8  A    between atoms: O_6  and  C_35
REMARK    9  A    between atoms: N_7  and  C_17
REMARK   10  A    between atoms: C_13  and  C_18
REMARK   11  A    between atoms: C_17  and  C_19
REMARK   12  A    between atoms: C_22  and  C_26
REMARK   13  A    between atoms: C_33  and  C_34
REMARK                            x       y       z     vdW  Elec       q    Type
REMARK                         _______ _______ _______ _____ _____    ______ ____
ROOT
ATOM      7  N   UNL     1      -3.423  -2.104  23.932  0.00  0.00    -0.287 NA
ATOM     13  C   UNL     1      -2.546  -2.182  25.118  0.00  0.00    +0.146 C 
ATOM     14  C   UNL     1      -1.575  -3.336  24.812  0.00  0.00    +0.030 C 
ATOM     15  C   UNL     1      -2.022  -3.886  23.465  0.00  0.00    +0.017 C 
ATOM     16  C   UNL     1      -3.471  -3.453  23.366  0.00  0.00    +0.085 C 
ENDROOT
BRANCH  13  18
ATOM      1  O   UNL     1      -1.319  -0.723  26.648  0.00  0.00    -0.336 OA
ATOM      8  N   UNL     1      -1.630   0.147  24.608  0.00  0.00    -0.190 NA
ATOM      9  N   UNL     1      -0.717   0.542  26.668  0.00  0.00    -0.056 NA
ATOM     18  C   UNL     1      -1.831  -0.876  25.399  0.00  0.00    +0.245 A 
ATOM     22  C   UNL     1      -0.943   0.992  25.430  0.00  0.00    +0.207 A 
BRANCH  22  26
ATOM      5  O   UNL     1       3.191   2.306  22.634  0.00  0.00    -0.273 OA
ATOM     10  N   UNL     1       1.426   1.363  23.874  0.00  0.00    -0.268 N 
ATOM     11  N   UNL     1       1.069   3.686  23.812  0.00  0.00    -0.220 NA
ATOM     12  N   UNL     1      -0.843   4.659  24.909  0.00  0.00    -0.243 NA
ATOM     26  C   UNL     1      -0.494   2.279  24.983  0.00  0.00    +0.081 A 
ATOM     27  C   UNL     1       0.647   2.476  24.233  0.00  0.00    +0.139 A 
ATOM     28  C   UNL     1      -1.207   3.419  25.295  0.00  0.00    +0.127 A 
ATOM     32  C   UNL     1       0.288   4.719  24.180  0.00  0.00    +0.223 A 
ATOM     33  C   UNL     1       2.604   1.347  23.126  0.00  0.00    +0.244 C 
ATOM     36  H   UNL     1       1.098   0.458  24.201  0.00  0.00    +0.156 HD
BRANCH  33  34
ATOM     34  C   UNL     1       3.141  -0.056  22.948  0.00  0.00    +0.255 C 
BRANCH  34   6
ATOM      6  O   UNL     1       4.533   0.014  22.716  0.00  0.00    -0.374 OA
ATOM     35  C   UNL     1       5.282  -0.228  23.903  0.00  0.00    +0.194 C 
ENDBRANCH  34   6
ENDBRANCH  33  34
ENDBRANCH  22  26
ENDBRANCH  13  18
BRANCH   7  17
ATOM     17  C   UNL     1      -4.753  -1.589  24.234  0.00  0.00    +0.120 C 
BRANCH  17  19
ATOM     19  C   UNL     1      -4.750  -0.092  24.398  0.00  0.00    -0.026 A 
ATOM     20  C   UNL     1      -4.062   0.707  23.486  0.00  0.00    +0.054 A 
ATOM     21  C   UNL     1      -5.436   0.494  25.461  0.00  0.00    +0.054 A 
ATOM     23  C   UNL     1      -5.434   1.881  25.612  0.00  0.00    +0.165 A 
ATOM     24  C   UNL     1      -4.060   2.094  23.637  0.00  0.00    +0.165 A 
ATOM     25  C   UNL     1      -4.745   2.680  24.700  0.00  0.00    +0.204 A 
BRANCH  23   2
ATOM      2  O   UNL     1      -6.108   2.441  26.655  0.00  0.00    -0.491 OA
ATOM     29  C   UNL     1      -6.905   1.570  27.454  0.00  0.00    +0.277 C 
ENDBRANCH  23   2
BRANCH  24   3
ATOM      3  O   UNL     1      -3.382   2.863  22.740  0.00  0.00    -0.491 OA
ATOM     30  C   UNL     1      -2.482   2.192  21.860  0.00  0.00    +0.277 C 
ENDBRANCH  24   3
BRANCH  25   4
ATOM      4  O   UNL     1      -4.742   4.036  24.849  0.00  0.00    -0.488 OA
ATOM     31  C   UNL     1      -4.130   4.557  26.026  0.00  0.00    +0.277 C 
ENDBRANCH  25   4
ENDBRANCH  17  19
ENDBRANCH   7  17
TORSDOF 9
ENDMDL
MODEL 2
REMARK VINA RESULT:       4.1      0.044      2.216
REMARK  Name = 45783618
REMARK  13 active torsions:
REMARK  status: ('A' for Active; 'I' for Inactive)
REMARK    1  A    between atoms: O_2  and  C_23
REMARK    2  A    between atoms: O_2  and  C_29
REMARK    3  A    between atoms: O_3  and  C_24
REMARK    4  A    between atoms: O_3  and  C_30
REMARK    5  A    between atoms: O_4  and  C_25
REMARK    6  A    between atoms: O_4  and  C_31
REMARK    7  A    between atoms: O_6  and  C_34
REMARK    8  A    between atoms: O_6  and  C_35
REMARK    9  A    between atoms: N_7  and  C_17
REMARK   10  A    between atoms: C_13  and  C_18
REMARK   11  A    between atoms: C_17  and  C_19
REMARK   12  A    between atoms: C_22  and  C_26
REMARK   13  A    between atoms: C_33  and  C_34
REMARK                            x       y       z     vdW  Elec       q    Type
REMARK                         _______ _______ _______ _____ _____    ______ ____
ROOT
ATOM      7  N   UNL     1      -3.388  -2.089  23.938  0.00  0.00    -0.287 NA
ATOM     13  C   UNL     1      -2.517  -2.158  25.128  0.00  0.00    +0.146 C 
ATOM     14  C   UNL     1      -1.540  -3.311  24.831  0.00  0.00    +0.030 C 
ATOM     15  C   UNL     1      -1.980  -3.869  23.485  0.00  0.00    +0.017 C 
ATOM     16  C   UNL     1      -3.430  -3.440  23.377  0.00  0.00    +0.085 C 
ENDROOT
BRANCH  13  18
ATOM      1  O   UNL     1      -1.299  -0.689  26.655  0.00  0.00    -0.336 OA
ATOM      8  N   UNL     1      -1.607   0.172  24.610  0.00  0.00    -0.190 NA
ATOM      9  N   UNL     1      -0.701   0.578  26.671  0.00  0.00    -0.056 NA
ATOM     18  C   UNL     1      -1.807  -0.848  25.405  0.00  0.00    +0.245 A 
ATOM     22  C   UNL     1      -0.925   1.022  25.431  0.00  0.00    +0.207 A 
BRANCH  22  26
ATOM      5  O   UNL     1       3.199   2.336  22.620  0.00  0.00    -0.273 OA
ATOM     10  N   UNL     1       1.439   1.393  23.868  0.00  0.00    -0.268 N 
ATOM     11  N   UNL     1       1.078   3.716  23.802  0.00  0.00    -0.220 NA
ATOM     12  N   UNL     1      -0.832   4.688  24.902  0.00  0.00    -0.243 NA
ATOM     26  C   UNL     1      -0.479   2.309  24.980  0.00  0.00    +0.081 A 
ATOM     27  C   UNL     1       0.660   2.506  24.226  0.00  0.00    +0.139 A 
ATOM     28  C   UNL     1      -1.193   3.449  25.292  0.00  0.00    +0.127 A 
ATOM     32  C   UNL     1       0.297   4.749  24.170  0.00  0.00    +0.223 A 
ATOM     33  C   UNL     1       2.614   1.377  23.117  0.00  0.00    +0.244 C 
ATOM     36  H   UNL     1       1.113   0.488  24.197  0.00  0.00    +0.156 HD
BRANCH  33  34
ATOM     34  C   UNL     1       3.153  -0.025  22.939  0.00  0.00    +0.255 C 
BRANCH  34   6
ATOM      6  O   UNL     1       4.549   0.045  22.732  0.00  0.00    -0.374 OA
ATOM     35  C   UNL     1       5.278  -0.286  23.911  0.00  0.00    +0.194 C 
ENDBRANCH  34   6
ENDBRANCH  33  34
ENDBRANCH  22  26
ENDBRANCH  13  18
BRANCH   7  17
ATOM     17  C   UNL     1      -4.721  -1.577  24.231  0.00  0.00    +0.120 C 
BRANCH  17  19
ATOM     19  C   UNL     1      -4.722  -0.079  24.394  0.00  0.00    -0.026 A 
ATOM     20  C   UNL     1      -5.435   0.507  25.439  0.00  0.00    +0.054 A 
ATOM     21  C   UNL     1      -4.011   0.719  23.499  0.00  0.00    +0.054 A 
ATOM     23  C   UNL     1      -4.011   2.106  23.650  0.00  0.00    +0.165 A 
ATOM     24  C   UNL     1      -5.435   1.895  25.590  0.00  0.00    +0.165 A 
ATOM     25  C   UNL     1      -4.725   2.693  24.695  0.00  0.00    +0.204 A 
BRANCH  23   2
ATOM      2  O   UNL     1      -3.312   2.876  22.769  0.00  0.00    -0.491 OA
ATOM     29  C   UNL     1      -2.548   2.193  21.777  0.00  0.00    +0.277 C 
ENDBRANCH  23   2
BRANCH  24   3
ATOM      3  O   UNL     1      -6.137   2.455  26.614  0.00  0.00    -0.491 OA
ATOM     30  C   UNL     1      -6.854   1.568  27.470  0.00  0.00    +0.277 C 
ENDBRANCH  24   3
BRANCH  25   4
ATOM      4  O   UNL     1      -4.726   4.049  24.842  0.00  0.00    -0.488 OA
ATOM     31  C   UNL     1      -4.108   4.573  26.015  0.00  0.00    +0.277 C 
ENDBRANCH  25   4
ENDBRANCH  17  19
ENDBRANCH   7  17
TORSDOF 9
ENDMDL
MODEL 3
REMARK VINA RESULT:       4.2      1.907      3.275
REMARK  Name = 45783618
REMARK  13 active torsions:
REMARK  status: ('A' for Active; 'I' for Inactive)
REMARK    1  A    between atoms: O_2  and  C_23
REMARK    2  A    between atoms: O_2  and  C_29
REMARK    3  A    between atoms: O_3  and  C_24
REMARK    4  A    between atoms: O_3  and  C_30
REMARK    5  A    between atoms: O_4  and  C_25
REMARK    6  A    between atoms: O_4  and  C_31
REMARK    7  A    between atoms: O_6  and  C_34
REMARK    8  A    between atoms: O_6  and  C_35
REMARK    9  A    between atoms: N_7  and  C_17
REMARK   10  A    between atoms: C_13  and  C_18
REMARK   11  A    between atoms: C_17  and  C_19
REMARK   12  A    between atoms: C_22  and  C_26
REMARK   13  A    between atoms: C_33  and  C_34
REMARK                            x       y       z     vdW  Elec       q    Type
REMARK                         _______ _______ _______ _____ _____    ______ ____
ROOT
ATOM      7  N   UNL     1      -3.934  -1.384  24.428  0.00  0.00    -0.287 NA
ATOM     13  C   UNL     1      -2.986  -2.419  24.884  0.00  0.00    +0.146 C 
ATOM     14  C   UNL     1      -3.305  -3.651  24.017  0.00  0.00    +0.030 C 
ATOM     15  C   UNL     1      -4.485  -3.233  23.152  0.00  0.00    +0.017 C 
ATOM     16  C   UNL     1      -5.112  -2.094  23.929  0.00  0.00    +0.085 C 
ENDROOT
BRANCH  13  18
ATOM      1  O   UNL     1      -0.651  -2.590  25.588  0.00  0.00    -0.336 OA
ATOM      8  N   UNL     1      -1.010  -1.081  23.972  0.00  0.00    -0.190 NA
ATOM      9  N   UNL     1       0.597  -2.024  25.297  0.00  0.00    -0.056 NA
ATOM     18  C   UNL     1      -1.541  -1.979  24.763  0.00  0.00    +0.245 A 
ATOM     22  C   UNL     1       0.303  -1.144  24.336  0.00  0.00    +0.207 A 
BRANCH  22  26
ATOM      5  O   UNL     1       0.679   3.996  24.070  0.00  0.00    -0.273 OA
ATOM     10  N   UNL     1       0.201   1.711  24.381  0.00  0.00    -0.268 N 
ATOM     11  N   UNL     1       2.199   1.842  23.149  0.00  0.00    -0.220 NA
ATOM     12  N   UNL     1       3.342  -0.163  22.457  0.00  0.00    -0.243 NA
ATOM     26  C   UNL     1       1.297  -0.316  23.718  0.00  0.00    +0.081 A 
ATOM     27  C   UNL     1       1.262   1.064  23.729  0.00  0.00    +0.139 A 
ATOM     28  C   UNL     1       2.371  -0.880  23.060  0.00  0.00    +0.127 A 
ATOM     32  C   UNL     1       3.196   1.173  22.539  0.00  0.00    +0.223 A 
ATOM     33  C   UNL     1      -0.018   3.084  24.506  0.00  0.00    +0.244 C 
ATOM     36  H   UNL     1      -0.499   1.113  24.811  0.00  0.00    +0.156 HD
BRANCH  33  34
ATOM     34  C   UNL     1      -1.276   3.387  25.290  0.00  0.00    +0.255 C 
BRANCH  34   6
ATOM      6  O   UNL     1      -1.280   2.604  26.466  0.00  0.00    -0.374 OA
ATOM     35  C   UNL     1       0.018   2.510  27.046  0.00  0.00    +0.194 C 
ENDBRANCH  34   6
ENDBRANCH  33  34
ENDBRANCH  22  26
ENDBRANCH  13  18
BRANCH   7  17
ATOM     17  C   UNL     1      -4.275  -0.420  25.468  0.00  0.00    +0.120 C 
BRANCH  17  19
ATOM     19  C   UNL     1      -4.225   0.996  24.957  0.00  0.00    -0.026 A 
ATOM     20  C   UNL     1      -3.637   1.272  23.723  0.00  0.00    +0.054 A 
ATOM     21  C   UNL     1      -4.767   2.031  25.719  0.00  0.00    +0.054 A 
ATOM     23  C   UNL     1      -4.721   3.343  25.246  0.00  0.00    +0.165 A 
ATOM     24  C   UNL     1      -3.592   2.584  23.250  0.00  0.00    +0.165 A 
ATOM     25  C   UNL     1      -4.133   3.618  24.012  0.00  0.00    +0.204 A 
BRANCH  23   2
ATOM      2  O   UNL     1      -5.254   4.345  26.000  0.00  0.00    -0.491 OA
ATOM     29  C   UNL     1      -6.414   4.996  25.485  0.00  0.00    +0.277 C 
ENDBRANCH  23   2
BRANCH  24   3
ATOM      3  O   UNL     1      -3.014   2.840  22.044  0.00  0.00    -0.491 OA
ATOM     30  C   UNL     1      -2.230   1.797  21.467  0.00  0.00    +0.277 C 
ENDBRANCH  24   3
BRANCH  25   4
ATOM      4  O   UNL     1      -4.087   4.901  23.550  0.00  0.00    -0.488 OA
ATOM     31  C   UNL     1      -2.976   5.696  23.957  0.00  0.00    +0.277 C 
ENDBRANCH  25   4
ENDBRANCH  17  19
ENDBRANCH   7  17
TORSDOF 9
ENDMDL
MODEL 4
REMARK VINA RESULT:       4.4      1.983      3.837
REMARK  Name = 45783618
REMARK  13 active torsions:
REMARK  status: ('A' for Active; 'I' for Inactive)
REMARK    1  A    between atoms: O_2  and  C_23
REMARK    2  A    between atoms: O_2  and  C_29
REMARK    3  A    between atoms: O_3  and  C_24
REMARK    4  A    between atoms: O_3  and  C_30
REMARK    5  A    between atoms: O_4  and  C_25
REMARK    6  A    between atoms: O_4  and  C_31
REMARK    7  A    between atoms: O_6  and  C_34
REMARK    8  A    between atoms: O_6  and  C_35
REMARK    9  A    between atoms: N_7  and  C_17
REMARK   10  A    between atoms: C_13  and  C_18
REMARK   11  A    between atoms: C_17  and  C_19
REMARK   12  A    between atoms: C_22  and  C_26
REMARK   13  A    between atoms: C_33  and  C_34
REMARK                            x       y       z     vdW  Elec       q    Type
REMARK                         _______ _______ _______ _____ _____    ______ ____
ROOT
ATOM      7  N   UNL     1      -4.186  -1.530  24.328  0.00  0.00    -0.287 NA
ATOM     13  C   UNL     1      -3.217  -2.562  24.749  0.00  0.00    +0.146 C 
ATOM     14  C   UNL     1      -3.518  -3.773  23.846  0.00  0.00    +0.030 C 
ATOM     15  C   UNL     1      -4.709  -3.350  22.998  0.00  0.00    +0.017 C 
ATOM     16  C   UNL     1      -5.353  -2.245  23.811  0.00  0.00    +0.085 C 
ENDROOT
BRANCH  13  18
ATOM      1  O   UNL     1      -0.862  -2.779  25.365  0.00  0.00    -0.336 OA
ATOM      8  N   UNL     1      -1.282  -1.109  23.933  0.00  0.00    -0.190 NA
ATOM      9  N   UNL     1       0.372  -2.170  25.103  0.00  0.00    -0.056 NA
ATOM     18  C   UNL     1      -1.781  -2.093  24.636  0.00  0.00    +0.245 A 
ATOM     22  C   UNL     1       0.041  -1.194  24.251  0.00  0.00    +0.207 A 
BRANCH  22  26
ATOM      5  O   UNL     1       0.896   3.800  25.231  0.00  0.00    -0.273 OA
ATOM     10  N   UNL     1       0.240   1.548  25.033  0.00  0.00    -0.268 N 
ATOM     11  N   UNL     1       2.030   1.884  23.546  0.00  0.00    -0.220 NA
ATOM     12  N   UNL     1       2.844   0.071  22.184  0.00  0.00    -0.243 NA
ATOM     26  C   UNL     1       1.010  -0.291  23.699  0.00  0.00    +0.081 A 
ATOM     27  C   UNL     1       1.118   1.035  24.065  0.00  0.00    +0.139 A 
ATOM     28  C   UNL     1       1.908  -0.723  22.744  0.00  0.00    +0.127 A 
ATOM     32  C   UNL     1       2.849   1.343  22.624  0.00  0.00    +0.223 A 
ATOM     33  C   UNL     1       0.184   2.848  25.536  0.00  0.00    +0.244 C 
ATOM     36  H   UNL     1      -0.444   0.898  25.412  0.00  0.00    +0.156 HD
BRANCH  33  34
ATOM     34  C   UNL     1      -0.902   3.005  26.578  0.00  0.00    +0.255 C 
BRANCH  34   6
ATOM      6  O   UNL     1      -0.540   2.271  27.729  0.00  0.00    -0.374 OA
ATOM     35  C   UNL     1       0.783   2.576  28.159  0.00  0.00    +0.194 C 
ENDBRANCH  34   6
ENDBRANCH  33  34
ENDBRANCH  22  26
ENDBRANCH  13  18
BRANCH   7  17
ATOM     17  C   UNL     1      -4.539  -0.604  25.396  0.00  0.00    +0.120 C 
BRANCH  17  19
ATOM     19  C   UNL     1      -4.219   0.821  25.031  0.00  0.00    -0.026 A 
ATOM     20  C   UNL     1      -4.813   1.870  25.732  0.00  0.00    +0.054 A 
ATOM     21  C   UNL     1      -3.330   1.092  23.991  0.00  0.00    +0.054 A 
ATOM     23  C   UNL     1      -3.033   2.412  23.653  0.00  0.00    +0.165 A 
ATOM     24  C   UNL     1      -4.516   3.191  25.394  0.00  0.00    +0.165 A 
ATOM     25  C   UNL     1      -3.628   3.462  24.354  0.00  0.00    +0.204 A 
BRANCH  23   2
ATOM      2  O   UNL     1      -2.163   2.663  22.635  0.00  0.00    -0.491 OA
ATOM     29  C   UNL     1      -2.418   2.016  21.390  0.00  0.00    +0.277 C 
ENDBRANCH  23   2
BRANCH  24   3
ATOM      3  O   UNL     1      -5.104   4.206  26.086  0.00  0.00    -0.491 OA
ATOM     30  C   UNL     1      -6.243   4.824  25.489  0.00  0.00    +0.277 C 
ENDBRANCH  24   3
BRANCH  25   4
ATOM      4  O   UNL     1      -3.338   4.753  24.023  0.00  0.00    -0.488 OA
ATOM     31  C   UNL     1      -2.271   5.378  24.730  0.00  0.00    +0.277 C 
ENDBRANCH  25   4
ENDBRANCH  17  19
ENDBRANCH   7  17
TORSDOF 9
ENDMDL
MODEL 5
REMARK VINA RESULT:       5.5      2.381      5.432
REMARK  Name = 45783618
REMARK  13 active torsions:
REMARK  status: ('A' for Active; 'I' for Inactive)
REMARK    1  A    between atoms: O_2  and  C_23
REMARK    2  A    between atoms: O_2  and  C_29
REMARK    3  A    between atoms: O_3  and  C_24
REMARK    4  A    between atoms: O_3  and  C_30
REMARK    5  A    between atoms: O_4  and  C_25
REMARK    6  A    between atoms: O_4  and  C_31
REMARK    7  A    between atoms: O_6  and  C_34
REMARK    8  A    between atoms: O_6  and  C_35
REMARK    9  A    between atoms: N_7  and  C_17
REMARK   10  A    between atoms: C_13  and  C_18
REMARK   11  A    between atoms: C_17  and  C_19
REMARK   12  A    between atoms: C_22  and  C_26
REMARK   13  A    between atoms: C_33  and  C_34
REMARK                            x       y       z     vdW  Elec       q    Type
REMARK                         _______ _______ _______ _____ _____    ______ ____
ROOT
ATOM      7  N   UNL     1      -3.067  -2.310  25.118  0.00  0.00    -0.287 NA
ATOM     13  C   UNL     1      -3.085  -1.686  23.779  0.00  0.00    +0.146 C 
ATOM     14  C   UNL     1      -4.181  -2.445  23.009  0.00  0.00    +0.030 C 
ATOM     15  C   UNL     1      -4.677  -3.514  23.972  0.00  0.00    +0.017 C 
ATOM     16  C   UNL     1      -3.522  -3.689  24.937  0.00  0.00    +0.085 C 
ENDROOT
BRANCH  13  18
ATOM      1  O   UNL     1      -2.721   0.561  22.890  0.00  0.00    -0.336 OA
ATOM      8  N   UNL     1      -4.072   0.493  24.674  0.00  0.00    -0.190 NA
ATOM      9  N   UNL     1      -3.099   1.886  23.144  0.00  0.00    -0.056 NA
ATOM     18  C   UNL     1      -3.338  -0.193  23.836  0.00  0.00    +0.245 A 
ATOM     22  C   UNL     1      -3.894   1.763  24.210  0.00  0.00    +0.207 A 
BRANCH  22  26
ATOM      5  O   UNL     1      -1.959   6.338  25.609  0.00  0.00    -0.273 OA
ATOM     10  N   UNL     1      -2.504   4.176  24.854  0.00  0.00    -0.268 N 
ATOM     11  N   UNL     1      -4.468   5.119  25.737  0.00  0.00    -0.220 NA
ATOM     12  N   UNL     1      -6.529   3.872  25.741  0.00  0.00    -0.243 NA
ATOM     26  C   UNL     1      -4.527   2.889  24.833  0.00  0.00    +0.081 A 
ATOM     27  C   UNL     1      -3.871   4.060  25.152  0.00  0.00    +0.139 A 
ATOM     28  C   UNL     1      -5.870   2.851  25.155  0.00  0.00    +0.127 A 
ATOM     32  C   UNL     1      -5.779   4.959  26.000  0.00  0.00    +0.223 A 
ATOM     33  C   UNL     1      -1.664   5.265  25.092  0.00  0.00    +0.244 C 
ATOM     36  H   UNL     1      -2.066   3.369  24.416  0.00  0.00    +0.156 HD
BRANCH  33  34
ATOM     34  C   UNL     1      -0.251   5.003  24.618  0.00  0.00    +0.255 C 
BRANCH  34   6
ATOM      6  O   UNL     1      -0.297   4.515  23.293  0.00  0.00    -0.374 OA
ATOM     35  C   UNL     1       0.594   5.223  22.436  0.00  0.00    +0.194 C 
ENDBRANCH  34   6
ENDBRANCH  33  34
ENDBRANCH  22  26
ENDBRANCH  13  18
BRANCH   7  17
ATOM     17  C   UNL     1      -1.763  -2.243  25.765  0.00  0.00    +0.120 C 
BRANCH  17  19
ATOM     19  C   UNL     1      -0.919  -1.124  25.211  0.00  0.00    -0.026 A 
ATOM     20  C   UNL     1      -0.963   0.138  25.801  0.00  0.00    +0.054 A 
ATOM     21  C   UNL     1      -0.096  -1.353  24.109  0.00  0.00    +0.054 A 
ATOM     23  C   UNL     1       0.686  -0.317  23.596  0.00  0.00    +0.165 A 
ATOM     24  C   UNL     1      -0.181   1.174  25.288  0.00  0.00    +0.165 A 
ATOM     25  C   UNL     1       0.642   0.947  24.186  0.00  0.00    +0.204 A 
BRANCH  23   2
ATOM      2  O   UNL     1       1.486  -0.552  22.520  0.00  0.00    -0.491 OA
ATOM     29  C   UNL     1       0.848  -0.652  21.248  0.00  0.00    +0.277 C 
ENDBRANCH  23   2
BRANCH  24   3
ATOM      3  O   UNL     1      -0.234   2.403  25.873  0.00  0.00    -0.491 OA
ATOM     30  C   UNL     1       0.497   2.577  27.086  0.00  0.00    +0.277 C 
ENDBRANCH  24   3
BRANCH  25   4
ATOM      4  O   UNL     1       1.406   1.959  23.685  0.00  0.00    -0.488 OA
ATOM     31  C   UNL     1       2.701   1.614  23.201  0.00  0.00    +0.277 C 
ENDBRANCH  25   4
ENDBRANCH  17  19
ENDBRANCH   7  17
TORSDOF 9
ENDMDL
MODEL 6
REMARK VINA RESULT:       5.5      2.384      5.122
REMARK  Name = 45783618
REMARK  13 active torsions:
REMARK  status: ('A' for Active; 'I' for Inactive)
REMARK    1  A    between atoms: O_2  and  C_23
REMARK    2  A    between atoms: O_2  and  C_29
REMARK    3  A    between atoms: O_3  and  C_24
REMARK    4  A    between atoms: O_3  and  C_30
REMARK    5  A    between atoms: O_4  and  C_25
REMARK    6  A    between atoms: O_4  and  C_31
REMARK    7  A    between atoms: O_6  and  C_34
REMARK    8  A    between atoms: O_6  and  C_35
REMARK    9  A    between atoms: N_7  and  C_17
REMARK   10  A    between atoms: C_13  and  C_18
REMARK   11  A    between atoms: C_17  and  C_19
REMARK   12  A    between atoms: C_22  and  C_26
REMARK   13  A    between atoms: C_33  and  C_34
REMARK                            x       y       z     vdW  Elec       q    Type
REMARK                         _______ _______ _______ _____ _____    ______ ____
ROOT
ATOM      7  N   UNL     1      -3.081  -2.315  25.154  0.00  0.00    -0.287 NA
ATOM     13  C   UNL     1      -3.107  -1.699  23.812  0.00  0.00    +0.146 C 
ATOM     14  C   UNL     1      -4.212  -2.459  23.055  0.00  0.00    +0.030 C 
ATOM     15  C   UNL     1      -4.703  -3.520  24.028  0.00  0.00    +0.017 C 
ATOM     16  C   UNL     1      -3.541  -3.693  24.985  0.00  0.00    +0.085 C 
ENDROOT
BRANCH  13  18
ATOM      1  O   UNL     1      -2.733   0.542  22.913  0.00  0.00    -0.336 OA
ATOM      8  N   UNL     1      -4.088   0.487  24.695  0.00  0.00    -0.190 NA
ATOM      9  N   UNL     1      -3.106   1.870  23.160  0.00  0.00    -0.056 NA
ATOM     18  C   UNL     1      -3.354  -0.205  23.861  0.00  0.00    +0.245 A 
ATOM     22  C   UNL     1      -3.904   1.755  24.226  0.00  0.00    +0.207 A 
BRANCH  22  26
ATOM      5  O   UNL     1      -1.955   6.329  25.607  0.00  0.00    -0.273 OA
ATOM     10  N   UNL     1      -2.506   4.165  24.861  0.00  0.00    -0.268 N 
ATOM     11  N   UNL     1      -4.468   5.120  25.736  0.00  0.00    -0.220 NA
ATOM     12  N   UNL     1      -6.534   3.880  25.742  0.00  0.00    -0.243 NA
ATOM     26  C   UNL     1      -4.535   2.886  24.842  0.00  0.00    +0.081 A 
ATOM     27  C   UNL     1      -3.874   4.056  25.157  0.00  0.00    +0.139 A 
ATOM     28  C   UNL     1      -5.878   2.854  25.162  0.00  0.00    +0.127 A 
ATOM     32  C   UNL     1      -5.780   4.966  25.997  0.00  0.00    +0.223 A 
ATOM     33  C   UNL     1      -1.663   5.252  25.095  0.00  0.00    +0.244 C 
ATOM     36  H   UNL     1      -2.071   3.355  24.428  0.00  0.00    +0.156 HD
BRANCH  33  34
ATOM     34  C   UNL     1      -0.250   4.983  24.626  0.00  0.00    +0.255 C 
BRANCH  34   6
ATOM      6  O   UNL     1      -0.291   4.555  23.280  0.00  0.00    -0.374 OA
ATOM     35  C   UNL     1       0.597   5.306  22.457  0.00  0.00    +0.194 C 
ENDBRANCH  34   6
ENDBRANCH  33  34
ENDBRANCH  22  26
ENDBRANCH  13  18
BRANCH   7  17
ATOM     17  C   UNL     1      -1.771  -2.248  25.790  0.00  0.00    +0.120 C 
BRANCH  17  19
ATOM     19  C   UNL     1      -0.931  -1.133  25.227  0.00  0.00    -0.026 A 
ATOM     20  C   UNL     1      -0.121  -1.363  24.116  0.00  0.00    +0.054 A 
ATOM     21  C   UNL     1      -0.962   0.130  25.819  0.00  0.00    +0.054 A 
ATOM     23  C   UNL     1      -0.184   1.164  25.297  0.00  0.00    +0.165 A 
ATOM     24  C   UNL     1       0.657  -0.329  23.594  0.00  0.00    +0.165 A 
ATOM     25  C   UNL     1       0.627   0.934  24.185  0.00  0.00    +0.204 A 
BRANCH  23   2
ATOM      2  O   UNL     1      -0.223   2.393  25.884  0.00  0.00    -0.491 OA
ATOM     29  C   UNL     1       0.504   2.554  27.100  0.00  0.00    +0.277 C 
ENDBRANCH  23   2
BRANCH  24   3
ATOM      3  O   UNL     1       1.445  -0.567  22.508  0.00  0.00    -0.491 OA
ATOM     30  C   UNL     1       0.799  -0.622  21.238  0.00  0.00    +0.277 C 
ENDBRANCH  24   3
BRANCH  25   4
ATOM      4  O   UNL     1       1.388   1.944  23.676  0.00  0.00    -0.488 OA
ATOM     31  C   UNL     1       2.698   1.604  23.229  0.00  0.00    +0.277 C 
ENDBRANCH  25   4
ENDBRANCH  17  19
ENDBRANCH   7  17
TORSDOF 9
ENDMDL
MODEL 7
REMARK VINA RESULT:       5.7      1.999      5.923
REMARK  Name = 45783618
REMARK  13 active torsions:
REMARK  status: ('A' for Active; 'I' for Inactive)
REMARK    1  A    between atoms: O_2  and  C_23
REMARK    2  A    between atoms: O_2  and  C_29
REMARK    3  A    between atoms: O_3  and  C_24
REMARK    4  A    between atoms: O_3  and  C_30
REMARK    5  A    between atoms: O_4  and  C_25
REMARK    6  A    between atoms: O_4  and  C_31
REMARK    7  A    between atoms: O_6  and  C_34
REMARK    8  A    between atoms: O_6  and  C_35
REMARK    9  A    between atoms: N_7  and  C_17
REMARK   10  A    between atoms: C_13  and  C_18
REMARK   11  A    between atoms: C_17  and  C_19
REMARK   12  A    between atoms: C_22  and  C_26
REMARK   13  A    between atoms: C_33  and  C_34
REMARK                            x       y       z     vdW  Elec       q    Type
REMARK                         _______ _______ _______ _____ _____    ______ ____
ROOT
ATOM      7  N   UNL     1      -2.686  -1.784  24.941  0.00  0.00    -0.287 NA
ATOM     13  C   UNL     1      -2.857  -1.321  23.549  0.00  0.00    +0.146 C 
ATOM     14  C   UNL     1      -4.277  -1.769  23.159  0.00  0.00    +0.030 C 
ATOM     15  C   UNL     1      -4.801  -2.529  24.368  0.00  0.00    +0.017 C 
ATOM     16  C   UNL     1      -3.541  -2.962  25.091  0.00  0.00    +0.085 C 
ENDROOT
BRANCH  13  18
ATOM      1  O   UNL     1      -2.525   0.648  22.139  0.00  0.00    -0.336 OA
ATOM      8  N   UNL     1      -2.586   1.095  24.333  0.00  0.00    -0.190 NA
ATOM      9  N   UNL     1      -2.351   2.033  22.260  0.00  0.00    -0.056 NA
ATOM     18  C   UNL     1      -2.656   0.175  23.406  0.00  0.00    +0.245 A 
ATOM     22  C   UNL     1      -2.399   2.219  23.582  0.00  0.00    +0.207 A 
BRANCH  22  26
ATOM      5  O   UNL     1      -5.796   5.028  26.266  0.00  0.00    -0.273 OA
ATOM     10  N   UNL     1      -4.513   3.498  25.017  0.00  0.00    -0.268 N 
ATOM     11  N   UNL     1      -3.148   5.364  25.446  0.00  0.00    -0.220 NA
ATOM     12  N   UNL     1      -0.881   5.432  24.633  0.00  0.00    -0.243 NA
ATOM     26  C   UNL     1      -2.264   3.514  24.184  0.00  0.00    +0.081 A 
ATOM     27  C   UNL     1      -3.275   4.146  24.879  0.00  0.00    +0.139 A 
ATOM     28  C   UNL     1      -1.077   4.212  24.092  0.00  0.00    +0.127 A 
ATOM     32  C   UNL     1      -1.942   5.941  25.287  0.00  0.00    +0.223 A 
ATOM     33  C   UNL     1      -5.653   3.961  25.676  0.00  0.00    +0.244 C 
ATOM     36  H   UNL     1      -4.596   2.583  24.583  0.00  0.00    +0.156 HD
BRANCH  33  34
ATOM     34  C   UNL     1      -6.789   2.963  25.609  0.00  0.00    +0.255 C 
BRANCH  34   6
ATOM      6  O   UNL     1      -6.372   1.848  24.847  0.00  0.00    -0.374 OA
ATOM     35  C   UNL     1      -5.642   0.911  25.633  0.00  0.00    +0.194 C 
ENDBRANCH  34   6
ENDBRANCH  33  34
ENDBRANCH  22  26
ENDBRANCH  13  18
BRANCH   7  17
ATOM     17  C   UNL     1      -1.299  -2.067  25.286  0.00  0.00    +0.120 C 
BRANCH  17  19
ATOM     19  C   UNL     1      -0.366  -1.000  24.776  0.00  0.00    -0.026 A 
ATOM     20  C   UNL     1       0.353  -1.205  23.600  0.00  0.00    +0.054 A 
ATOM     21  C   UNL     1      -0.221   0.194  25.483  0.00  0.00    +0.054 A 
ATOM     23  C   UNL     1       0.642   1.184  25.011  0.00  0.00    +0.165 A 
ATOM     24  C   UNL     1       1.216  -0.216  23.128  0.00  0.00    +0.165 A 
ATOM     25  C   UNL     1       1.361   0.977  23.834  0.00  0.00    +0.204 A 
BRANCH  23   2
ATOM      2  O   UNL     1       0.774   2.345  25.711  0.00  0.00    -0.491 OA
ATOM     29  C   UNL     1       0.005   2.474  26.905  0.00  0.00    +0.277 C 
ENDBRANCH  23   2
BRANCH  24   3
ATOM      3  O   UNL     1       1.913  -0.430  21.978  0.00  0.00    -0.491 OA
ATOM     30  C   UNL     1       1.156  -0.725  20.805  0.00  0.00    +0.277 C 
ENDBRANCH  24   3
BRANCH  25   4
ATOM      4  O   UNL     1       2.206   1.944  23.374  0.00  0.00    -0.488 OA
ATOM     31  C   UNL     1       3.485   1.518  22.911  0.00  0.00    +0.277 C 
ENDBRANCH  25   4
ENDBRANCH  17  19
ENDBRANCH   7  17
TORSDOF 9
ENDMDL
MODEL 8
REMARK VINA RESULT:       5.7      1.993      6.208
REMARK  Name = 45783618
REMARK  13 active torsions:
REMARK  status: ('A' for Active; 'I' for Inactive)
REMARK    1  A    between atoms: O_2  and  C_23
REMARK    2  A    between atoms: O_2  and  C_29
REMARK    3  A    between atoms: O_3  and  C_24
REMARK    4  A    between atoms: O_3  and  C_30
REMARK    5  A    between atoms: O_4  and  C_25
REMARK    6  A    between atoms: O_4  and  C_31
REMARK    7  A    between atoms: O_6  and  C_34
REMARK    8  A    between atoms: O_6  and  C_35
REMARK    9  A    between atoms: N_7  and  C_17
REMARK   10  A    between atoms: C_13  and  C_18
REMARK   11  A    between atoms: C_17  and  C_19
REMARK   12  A    between atoms: C_22  and  C_26
REMARK   13  A    between atoms: C_33  and  C_34
REMARK                            x       y       z     vdW  Elec       q    Type
REMARK                         _______ _______ _______ _____ _____    ______ ____
ROOT
ATOM      7  N   UNL     1      -2.686  -1.794  24.943  0.00  0.00    -0.287 NA
ATOM     13  C   UNL     1      -2.847  -1.339  23.548  0.00  0.00    +0.146 C 
ATOM     14  C   UNL     1      -4.261  -1.798  23.148  0.00  0.00    +0.030 C 
ATOM     15  C   UNL     1      -4.791  -2.555  24.357  0.00  0.00    +0.017 C 
ATOM     16  C   UNL     1      -3.535  -2.977  25.093  0.00  0.00    +0.085 C 
ENDROOT
BRANCH  13  18
ATOM      1  O   UNL     1      -2.565   0.629  22.128  0.00  0.00    -0.336 OA
ATOM      8  N   UNL     1      -2.556   1.077  24.322  0.00  0.00    -0.190 NA
ATOM      9  N   UNL     1      -2.391   2.015  22.243  0.00  0.00    -0.056 NA
ATOM     18  C   UNL     1      -2.654   0.156  23.398  0.00  0.00    +0.245 A 
ATOM     22  C   UNL     1      -2.395   2.201  23.566  0.00  0.00    +0.207 A 
BRANCH  22  26
ATOM      5  O   UNL     1      -5.736   5.037  26.292  0.00  0.00    -0.273 OA
ATOM     10  N   UNL     1      -4.481   3.497  25.029  0.00  0.00    -0.268 N 
ATOM     11  N   UNL     1      -3.098   5.354  25.433  0.00  0.00    -0.220 NA
ATOM     12  N   UNL     1      -0.843   5.406  24.587  0.00  0.00    -0.243 NA
ATOM     26  C   UNL     1      -2.244   3.496  24.163  0.00  0.00    +0.081 A 
ATOM     27  C   UNL     1      -3.241   4.136  24.871  0.00  0.00    +0.139 A 
ATOM     28  C   UNL     1      -1.054   4.187  24.052  0.00  0.00    +0.127 A 
ATOM     32  C   UNL     1      -1.891   5.924  25.255  0.00  0.00    +0.223 A 
ATOM     33  C   UNL     1      -5.608   3.968  25.703  0.00  0.00    +0.244 C 
ATOM     36  H   UNL     1      -4.576   2.581  24.597  0.00  0.00    +0.156 HD
BRANCH  33  34
ATOM     34  C   UNL     1      -6.751   2.977  25.655  0.00  0.00    +0.255 C 
BRANCH  34   6
ATOM      6  O   UNL     1      -6.385   1.899  24.817  0.00  0.00    -0.374 OA
ATOM     35  C   UNL     1      -5.680   0.888  25.531  0.00  0.00    +0.194 C 
ENDBRANCH  34   6
ENDBRANCH  33  34
ENDBRANCH  22  26
ENDBRANCH  13  18
BRANCH   7  17
ATOM     17  C   UNL     1      -1.300  -2.067  25.302  0.00  0.00    +0.120 C 
BRANCH  17  19
ATOM     19  C   UNL     1      -0.369  -0.998  24.792  0.00  0.00    -0.026 A 
ATOM     20  C   UNL     1      -0.231   0.199  25.494  0.00  0.00    +0.054 A 
ATOM     21  C   UNL     1       0.354  -1.206  23.618  0.00  0.00    +0.054 A 
ATOM     23  C   UNL     1       1.217  -0.216  23.146  0.00  0.00    +0.165 A 
ATOM     24  C   UNL     1       0.632   1.188  25.022  0.00  0.00    +0.165 A 
ATOM     25  C   UNL     1       1.355   0.981  23.848  0.00  0.00    +0.204 A 
BRANCH  23   2
ATOM      2  O   UNL     1       1.918  -0.432  21.998  0.00  0.00    -0.491 OA
ATOM     29  C   UNL     1       1.164  -0.732  20.825  0.00  0.00    +0.277 C 
ENDBRANCH  23   2
BRANCH  24   3
ATOM      3  O   UNL     1       0.757   2.353  25.717  0.00  0.00    -0.491 OA
ATOM     30  C   UNL     1       0.005   2.472  26.923  0.00  0.00    +0.277 C 
ENDBRANCH  24   3
BRANCH  25   4
ATOM      4  O   UNL     1       2.197   1.949  23.386  0.00  0.00    -0.488 OA
ATOM     31  C   UNL     1       3.469   1.522  22.902  0.00  0.00    +0.277 C 
ENDBRANCH  25   4
ENDBRANCH  17  19
ENDBRANCH   7  17
TORSDOF 9
ENDMDL
MODEL 9
REMARK VINA RESULT:       7.1      2.118      6.174
REMARK  Name = 45783618
REMARK  13 active torsions:
REMARK  status: ('A' for Active; 'I' for Inactive)
REMARK    1  A    between atoms: O_2  and  C_23
REMARK    2  A    between atoms: O_2  and  C_29
REMARK    3  A    between atoms: O_3  and  C_24
REMARK    4  A    between atoms: O_3  and  C_30
REMARK    5  A    between atoms: O_4  and  C_25
REMARK    6  A    between atoms: O_4  and  C_31
REMARK    7  A    between atoms: O_6  and  C_34
REMARK    8  A    between atoms: O_6  and  C_35
REMARK    9  A    between atoms: N_7  and  C_17
REMARK   10  A    between atoms: C_13  and  C_18
REMARK   11  A    between atoms: C_17  and  C_19
REMARK   12  A    between atoms: C_22  and  C_26
REMARK   13  A    between atoms: C_33  and  C_34
REMARK                            x       y       z     vdW  Elec       q    Type
REMARK                         _______ _______ _______ _____ _____    ______ ____
ROOT
ATOM      7  N   UNL     1       2.319   1.299  23.414  0.00  0.00    -0.287 NA
ATOM     13  C   UNL     1       1.825   0.094  22.718  0.00  0.00    +0.146 C 
ATOM     14  C   UNL     1       3.062  -0.812  22.578  0.00  0.00    +0.030 C 
ATOM     15  C   UNL     1       4.213  -0.007  23.164  0.00  0.00    +0.017 C 
ATOM     16  C   UNL     1       3.734   1.427  23.064  0.00  0.00    +0.085 C 
ENDROOT
BRANCH  13  18
ATOM      1  O   UNL     1       0.937  -0.945  24.745  0.00  0.00    -0.336 OA
ATOM      8  N   UNL     1      -0.517  -0.874  23.042  0.00  0.00    -0.190 NA
ATOM      9  N   UNL     1      -0.242  -1.540  25.213  0.00  0.00    -0.056 NA
ATOM     18  C   UNL     1       0.689  -0.581  23.460  0.00  0.00    +0.245 A 
ATOM     22  C   UNL     1      -1.050  -1.461  24.152  0.00  0.00    +0.207 A 
BRANCH  22  26
ATOM      5  O   UNL     1      -5.547   1.072  24.174  0.00  0.00    -0.273 OA
ATOM     10  N   UNL     1      -3.341   0.248  24.159  0.00  0.00    -0.268 N 
ATOM     11  N   UNL     1      -4.779  -1.613  24.189  0.00  0.00    -0.220 NA
ATOM     12  N   UNL     1      -3.883  -3.849  24.200  0.00  0.00    -0.243 NA
ATOM     26  C   UNL     1      -2.396  -1.956  24.169  0.00  0.00    +0.081 A 
ATOM     27  C   UNL     1      -3.513  -1.146  24.174  0.00  0.00    +0.139 A 
ATOM     28  C   UNL     1      -2.644  -3.314  24.183  0.00  0.00    +0.127 A 
ATOM     32  C   UNL     1      -4.889  -2.955  24.201  0.00  0.00    +0.223 A 
ATOM     33  C   UNL     1      -4.330   1.233  24.160  0.00  0.00    +0.244 C 
ATOM     36  H   UNL     1      -2.382   0.586  24.151  0.00  0.00    +0.156 HD
BRANCH  33  34
ATOM     34  C   UNL     1      -3.740   2.626  24.133  0.00  0.00    +0.255 C 
BRANCH  34   6
ATOM      6  O   UNL     1      -3.688   3.073  22.794  0.00  0.00    -0.374 OA
ATOM     35  C   UNL     1      -2.745   2.334  22.024  0.00  0.00    +0.194 C 
ENDBRANCH  34   6
ENDBRANCH  33  34
ENDBRANCH  22  26
ENDBRANCH  13  18
BRANCH   7  17
ATOM     17  C   UNL     1       1.562   2.501  23.088  0.00  0.00    +0.120 C 
BRANCH  17  19
ATOM     19  C   UNL     1       0.589   2.864  24.179  0.00  0.00    -0.026 A 
ATOM     20  C   UNL     1      -0.353   3.869  23.966  0.00  0.00    +0.054 A 
ATOM     21  C   UNL     1       0.632   2.194  25.401  0.00  0.00    +0.054 A 
ATOM     23  C   UNL     1      -0.270   2.530  26.412  0.00  0.00    +0.165 A 
ATOM     24  C   UNL     1      -1.255   4.205  24.976  0.00  0.00    +0.165 A 
ATOM     25  C   UNL     1      -1.212   3.536  26.199  0.00  0.00    +0.204 A 
BRANCH  23   2
ATOM      2  O   UNL     1      -0.218   1.869  27.602  0.00  0.00    -0.491 OA
ATOM     29  C   UNL     1       0.788   2.276  28.526  0.00  0.00    +0.277 C 
ENDBRANCH  23   2
BRANCH  24   3
ATOM      3  O   UNL     1      -2.169   5.190  24.756  0.00  0.00    -0.491 OA
ATOM     30  C   UNL     1      -1.708   6.536  24.852  0.00  0.00    +0.277 C 
ENDBRANCH  24   3
BRANCH  25   4
ATOM      4  O   UNL     1      -2.093   3.865  27.187  0.00  0.00    -0.488 OA
ATOM     31  C   UNL     1      -3.476   3.878  26.842  0.00  0.00    +0.277 C 
ENDBRANCH  25   4
ENDBRANCH  17  19
ENDBRANCH   7  17
TORSDOF 9
ENDMDL
MODEL 10
REMARK VINA RESULT:       7.1      2.114      6.288
REMARK  Name = 45783618
REMARK  13 active torsions:
REMARK  status: ('A' for Active; 'I' for Inactive)
REMARK    1  A    between atoms: O_2  and  C_23
REMARK    2  A    between atoms: O_2  and  C_29
REMARK    3  A    between atoms: O_3  and  C_24
REMARK    4  A    between atoms: O_3  and  C_30
REMARK    5  A    between atoms: O_4  and  C_25
REMARK    6  A    between atoms: O_4  and  C_31
REMARK    7  A    between atoms: O_6  and  C_34
REMARK    8  A    between atoms: O_6  and  C_35
REMARK    9  A    between atoms: N_7  and  C_17
REMARK   10  A    between atoms: C_13  and  C_18
REMARK   11  A    between atoms: C_17  and  C_19
REMARK   12  A    between atoms: C_22  and  C_26
REMARK   13  A    between atoms: C_33  and  C_34
REMARK                            x       y       z     vdW  Elec       q    Type
REMARK                         _______ _______ _______ _____ _____    ______ ____
ROOT
ATOM      7  N   UNL     1       2.334   1.284  23.419  0.00  0.00    -0.287 NA
ATOM     13  C   UNL     1       1.827   0.084  22.723  0.00  0.00    +0.146 C 
ATOM     14  C   UNL     1       3.055  -0.834  22.581  0.00  0.00    +0.030 C 
ATOM     15  C   UNL     1       4.214  -0.042  23.168  0.00  0.00    +0.017 C 
ATOM     16  C   UNL     1       3.750   1.398  23.068  0.00  0.00    +0.085 C 
ENDROOT
BRANCH  13  18
ATOM      1  O   UNL     1       0.914  -0.905  24.762  0.00  0.00    -0.336 OA
ATOM      8  N   UNL     1      -0.512  -0.894  23.035  0.00  0.00    -0.190 NA
ATOM      9  N   UNL     1      -0.268  -1.497  25.227  0.00  0.00    -0.056 NA
ATOM     18  C   UNL     1       0.684  -0.579  23.464  0.00  0.00    +0.245 A 
ATOM     22  C   UNL     1      -1.059  -1.454  24.152  0.00  0.00    +0.207 A 
BRANCH  22  26
ATOM      5  O   UNL     1      -5.576   1.043  24.193  0.00  0.00    -0.273 OA
ATOM     10  N   UNL     1      -3.364   0.236  24.173  0.00  0.00    -0.268 N 
ATOM     11  N   UNL     1      -4.786  -1.636  24.180  0.00  0.00    -0.220 NA
ATOM     12  N   UNL     1      -3.873  -3.865  24.167  0.00  0.00    -0.243 NA
ATOM     26  C   UNL     1      -2.401  -1.960  24.161  0.00  0.00    +0.081 A 
ATOM     27  C   UNL     1      -3.524  -1.159  24.172  0.00  0.00    +0.139 A 
ATOM     28  C   UNL     1      -2.639  -3.320  24.159  0.00  0.00    +0.127 A 
ATOM     32  C   UNL     1      -4.886  -2.979  24.177  0.00  0.00    +0.223 A 
ATOM     33  C   UNL     1      -4.360   1.213  24.183  0.00  0.00    +0.244 C 
ATOM     36  H   UNL     1      -2.408   0.582  24.171  0.00  0.00    +0.156 HD
BRANCH  33  34
ATOM     34  C   UNL     1      -3.781   2.611  24.173  0.00  0.00    +0.255 C 
BRANCH  34   6
ATOM      6  O   UNL     1      -3.711   3.066  22.837  0.00  0.00    -0.374 OA
ATOM     35  C   UNL     1      -2.775   2.315  22.069  0.00  0.00    +0.194 C 
ENDBRANCH  34   6
ENDBRANCH  33  34
ENDBRANCH  22  26
ENDBRANCH  13  18
BRANCH   7  17
ATOM     17  C   UNL     1       1.589   2.494  23.093  0.00  0.00    +0.120 C 
BRANCH  17  19
ATOM     19  C   UNL     1       0.613   2.861  24.180  0.00  0.00    -0.026 A 
ATOM     20  C   UNL     1       0.664   2.210  25.412  0.00  0.00    +0.054 A 
ATOM     21  C   UNL     1      -0.343   3.851  23.952  0.00  0.00    +0.054 A 
ATOM     23  C   UNL     1      -1.247   4.191  24.959  0.00  0.00    +0.165 A 
ATOM     24  C   UNL     1      -0.240   2.551  26.418  0.00  0.00    +0.165 A 
ATOM     25  C   UNL     1      -1.196   3.540  26.191  0.00  0.00    +0.204 A 
BRANCH  23   2
ATOM      2  O   UNL     1      -2.176   5.160  24.724  0.00  0.00    -0.491 OA
ATOM     29  C   UNL     1      -1.770   6.511  24.935  0.00  0.00    +0.277 C 
ENDBRANCH  23   2
BRANCH  24   3
ATOM      3  O   UNL     1      -0.180   1.907  27.617  0.00  0.00    -0.491 OA
ATOM     30  C   UNL     1       0.814   2.347  28.540  0.00  0.00    +0.277 C 
ENDBRANCH  24   3
BRANCH  25   4
ATOM      4  O   UNL     1      -2.081   3.872  27.175  0.00  0.00    -0.488 OA
ATOM     31  C   UNL     1      -3.465   3.849  26.835  0.00  0.00    +0.277 C 
ENDBRANCH  25   4
ENDBRANCH  17  19
ENDBRANCH   7  17
TORSDOF 9
ENDMDL
