MODEL 1
REMARK VINA RESULT:      -2.7      0.000      0.000
REMARK  Name = 40779129
REMARK  9 active torsions:
REMARK  status: ('A' for Active; 'I' for Inactive)
REMARK    1  A    between atoms: O_1  and  C_16
REMARK    2  A    between atoms: O_1  and  C_20
REMARK    3  A    between atoms: N_5  and  C_19
REMARK    4  A    between atoms: N_7  and  C_23
REMARK    5  A    between atoms: C_9  and  C_15
REMARK    6  A    between atoms: C_10  and  C_16
REMARK    7  A    between atoms: C_18  and  C_21
REMARK    8  A    between atoms: C_23  and  C_26
REMARK    9  A    between atoms: C_23  and  C_27
REMARK                            x       y       z     vdW  Elec       q    Type
REMARK                         _______ _______ _______ _____ _____    ______ ____
ROOT
ATOM      4  N   UNL     1      -3.790  -0.287  25.620  0.00  0.00    -0.296 NA
ATOM      8  C   UNL     1      -2.612  -1.837  23.890  0.00  0.00    +0.002 C 
ATOM      9  C   UNL     1      -1.569  -1.201  24.848  0.00  0.00    +0.055 C 
ATOM     10  C   UNL     1      -4.249   0.044  24.245  0.00  0.00    +0.095 C 
ATOM     11  C   UNL     1      -3.414  -0.717  23.194  0.00  0.00    +0.026 C 
ATOM     12  C   UNL     1      -3.605  -2.625  24.772  0.00  0.00    +0.019 C 
ATOM     13  C   UNL     1      -2.315  -0.143  25.711  0.00  0.00    +0.094 C 
ATOM     14  C   UNL     1      -4.134  -1.704  25.885  0.00  0.00    +0.085 C 
ENDROOT
BRANCH   9  15
ATOM      5  N   UNL     1      -0.246   0.458  23.454  0.00  0.00    -0.270 N 
ATOM      6  N   UNL     1       0.987   0.778  23.024  0.00  0.00    -0.168 NA
ATOM     15  C   UNL     1      -0.282  -0.652  24.248  0.00  0.00    +0.044 A 
ATOM     17  C   UNL     1       1.017  -1.088  24.342  0.00  0.00    +0.056 A 
ATOM     18  C   UNL     1       1.754  -0.170  23.569  0.00  0.00    +0.128 A 
ATOM     19  C   UNL     1      -1.367   1.279  23.057  0.00  0.00    +0.172 C 
BRANCH  18  21
ATOM      2  O   UNL     1       4.021  -1.219  23.763  0.00  0.00    -0.461 OA
ATOM     21  C   UNL     1       3.211  -0.206  23.355  0.00  0.00    +0.155 A 
ATOM     22  C   UNL     1       3.942   0.770  22.718  0.00  0.00    +0.051 A 
ATOM     24  C   UNL     1       5.286   0.330  22.737  0.00  0.00    +0.042 A 
ATOM     25  C   UNL     1       5.282  -0.885  23.383  0.00  0.00    +0.196 A 
ENDBRANCH  18  21
ENDBRANCH   9  15
BRANCH  10  16
ATOM     16  C   UNL     1      -4.260   1.551  23.982  0.00  0.00    +0.252 C 
BRANCH  16   1
ATOM      1  O   UNL     1      -4.867   2.193  25.086  0.00  0.00    -0.449 OA
BRANCH   1  20
ATOM      3  O   UNL     1      -4.570   3.971  26.511  0.00  0.00    -0.226 OA
ATOM      7  N   UNL     1      -2.776   2.984  25.419  0.00  0.00    -0.279 N 
ATOM     20  C   UNL     1      -4.108   3.131  25.745  0.00  0.00    +0.401 C 
ATOM     28  H   UNL     1      -2.521   2.216  24.806  0.00  0.00    +0.152 HD
BRANCH   7  23
ATOM     23  C   UNL     1      -1.724   3.821  25.949  0.00  0.00    +0.070 C 
ATOM     26  C   UNL     1      -1.500   5.026  25.046  0.00  0.00    +0.027 C 
ATOM     27  C   UNL     1      -0.441   3.017  26.126  0.00  0.00    +0.027 C 
ENDBRANCH   7  23
ENDBRANCH   1  20
ENDBRANCH  16   1
ENDBRANCH  10  16
TORSDOF 6
ENDMDL
MODEL 2
REMARK VINA RESULT:      -2.6      2.276      3.474
REMARK  Name = 40779129
REMARK  9 active torsions:
REMARK  status: ('A' for Active; 'I' for Inactive)
REMARK    1  A    between atoms: O_1  and  C_16
REMARK    2  A    between atoms: O_1  and  C_20
REMARK    3  A    between atoms: N_5  and  C_19
REMARK    4  A    between atoms: N_7  and  C_23
REMARK    5  A    between atoms: C_9  and  C_15
REMARK    6  A    between atoms: C_10  and  C_16
REMARK    7  A    between atoms: C_18  and  C_21
REMARK    8  A    between atoms: C_23  and  C_26
REMARK    9  A    between atoms: C_23  and  C_27
REMARK                            x       y       z     vdW  Elec       q    Type
REMARK                         _______ _______ _______ _____ _____    ______ ____
ROOT
ATOM      4  N   UNL     1      -3.602   2.364  25.301  0.00  0.00    -0.296 NA
ATOM      8  C   UNL     1      -2.475   2.267  22.955  0.00  0.00    +0.002 C 
ATOM      9  C   UNL     1      -2.264   0.929  23.715  0.00  0.00    +0.055 C 
ATOM     10  C   UNL     1      -2.753   3.566  25.095  0.00  0.00    +0.095 C 
ATOM     11  C   UNL     1      -1.918   3.429  23.805  0.00  0.00    +0.026 C 
ATOM     12  C   UNL     1      -4.000   2.480  22.842  0.00  0.00    +0.019 C 
ATOM     13  C   UNL     1      -2.782   1.133  25.168  0.00  0.00    +0.094 C 
ATOM     14  C   UNL     1      -4.634   2.350  24.237  0.00  0.00    +0.085 C 
ENDROOT
BRANCH   9  15
ATOM      5  N   UNL     1      -0.661  -1.024  23.965  0.00  0.00    -0.270 N 
ATOM      6  N   UNL     1       0.630  -1.389  23.878  0.00  0.00    -0.168 NA
ATOM     15  C   UNL     1      -0.882   0.293  23.680  0.00  0.00    +0.044 A 
ATOM     17  C   UNL     1       0.350   0.825  23.388  0.00  0.00    +0.056 A 
ATOM     18  C   UNL     1       1.243  -0.255  23.526  0.00  0.00    +0.128 A 
ATOM     19  C   UNL     1      -1.650  -2.011  24.333  0.00  0.00    +0.172 C 
BRANCH  18  21
ATOM      2  O   UNL     1       3.566  -1.182  23.669  0.00  0.00    -0.461 OA
ATOM     21  C   UNL     1       2.700  -0.196  23.315  0.00  0.00    +0.155 A 
ATOM     22  C   UNL     1       3.374   0.854  22.737  0.00  0.00    +0.051 A 
ATOM     24  C   UNL     1       4.741   0.491  22.736  0.00  0.00    +0.042 A 
ATOM     25  C   UNL     1       4.806  -0.756  23.313  0.00  0.00    +0.196 A 
ENDBRANCH  18  21
ENDBRANCH   9  15
BRANCH  10  16
ATOM     16  C   UNL     1      -1.877   3.875  26.311  0.00  0.00    +0.252 C 
BRANCH  16   1
ATOM      1  O   UNL     1      -0.545   3.509  26.007  0.00  0.00    -0.449 OA
BRANCH   1  20
ATOM      3  O   UNL     1      -0.246   1.357  26.752  0.00  0.00    -0.226 OA
ATOM      7  N   UNL     1       0.939   3.129  27.670  0.00  0.00    -0.279 N 
ATOM     20  C   UNL     1       0.028   2.551  26.810  0.00  0.00    +0.401 C 
ATOM     28  H   UNL     1       1.105   4.127  27.581  0.00  0.00    +0.152 HD
BRANCH   7  23
ATOM     23  C   UNL     1       1.707   2.385  28.641  0.00  0.00    +0.070 C 
ATOM     26  C   UNL     1       1.020   2.419  29.999  0.00  0.00    +0.027 C 
ATOM     27  C   UNL     1       3.128   2.930  28.727  0.00  0.00    +0.027 C 
ENDBRANCH   7  23
ENDBRANCH   1  20
ENDBRANCH  16   1
ENDBRANCH  10  16
TORSDOF 6
ENDMDL
MODEL 3
REMARK VINA RESULT:      -2.5      1.956      3.388
REMARK  Name = 40779129
REMARK  9 active torsions:
REMARK  status: ('A' for Active; 'I' for Inactive)
REMARK    1  A    between atoms: O_1  and  C_16
REMARK    2  A    between atoms: O_1  and  C_20
REMARK    3  A    between atoms: N_5  and  C_19
REMARK    4  A    between atoms: N_7  and  C_23
REMARK    5  A    between atoms: C_9  and  C_15
REMARK    6  A    between atoms: C_10  and  C_16
REMARK    7  A    between atoms: C_18  and  C_21
REMARK    8  A    between atoms: C_23  and  C_26
REMARK    9  A    between atoms: C_23  and  C_27
REMARK                            x       y       z     vdW  Elec       q    Type
REMARK                         _______ _______ _______ _____ _____    ______ ____
ROOT
ATOM      4  N   UNL     1      -4.791   2.567  26.167  0.00  0.00    -0.296 NA
ATOM      8  C   UNL     1      -4.511   1.914  23.661  0.00  0.00    +0.002 C 
ATOM      9  C   UNL     1      -3.849   0.849  24.578  0.00  0.00    +0.055 C 
ATOM     10  C   UNL     1      -4.262   3.722  25.396  0.00  0.00    +0.095 C 
ATOM     11  C   UNL     1      -3.895   3.297  23.959  0.00  0.00    +0.026 C 
ATOM     12  C   UNL     1      -6.000   1.984  24.064  0.00  0.00    +0.019 C 
ATOM     13  C   UNL     1      -3.878   1.404  26.031  0.00  0.00    +0.094 C 
ATOM     14  C   UNL     1      -6.103   2.195  25.585  0.00  0.00    +0.085 C 
ENDROOT
BRANCH   9  15
ATOM      5  N   UNL     1      -2.104  -0.981  24.354  0.00  0.00    -0.270 N 
ATOM      6  N   UNL     1      -0.849  -1.244  23.950  0.00  0.00    -0.168 NA
ATOM     15  C   UNL     1      -2.474   0.322  24.189  0.00  0.00    +0.044 A 
ATOM     17  C   UNL     1      -1.387   0.955  23.639  0.00  0.00    +0.056 A 
ATOM     18  C   UNL     1      -0.416  -0.058  23.514  0.00  0.00    +0.128 A 
ATOM     19  C   UNL     1      -2.907  -2.051  24.900  0.00  0.00    +0.172 C 
BRANCH  18  21
ATOM      2  O   UNL     1       1.391  -0.470  21.829  0.00  0.00    -0.461 OA
ATOM     21  C   UNL     1       0.942   0.119  22.968  0.00  0.00    +0.155 A 
ATOM     22  C   UNL     1       1.926   0.896  23.532  0.00  0.00    +0.051 A 
ATOM     24  C   UNL     1       3.054   0.777  22.686  0.00  0.00    +0.042 A 
ATOM     25  C   UNL     1       2.678  -0.064  21.664  0.00  0.00    +0.196 A 
ENDBRANCH  18  21
ENDBRANCH   9  15
BRANCH  10  16
ATOM     16  C   UNL     1      -3.092   4.408  26.105  0.00  0.00    +0.252 C 
BRANCH  16   1
ATOM      1  O   UNL     1      -2.124   4.756  25.134  0.00  0.00    -0.449 OA
BRANCH   1  20
ATOM      3  O   UNL     1      -0.156   4.027  24.201  0.00  0.00    -0.226 OA
ATOM      7  N   UNL     1      -0.888   3.230  26.254  0.00  0.00    -0.279 N 
ATOM     20  C   UNL     1      -0.975   4.001  25.114  0.00  0.00    +0.401 C 
ATOM     28  H   UNL     1      -1.615   3.340  26.955  0.00  0.00    +0.152 HD
BRANCH   7  23
ATOM     23  C   UNL     1       0.206   2.327  26.529  0.00  0.00    +0.070 C 
ATOM     26  C   UNL     1      -0.321   0.923  26.790  0.00  0.00    +0.027 C 
ATOM     27  C   UNL     1       1.034   2.835  27.703  0.00  0.00    +0.027 C 
ENDBRANCH   7  23
ENDBRANCH   1  20
ENDBRANCH  16   1
ENDBRANCH  10  16
TORSDOF 6
ENDMDL
MODEL 4
REMARK VINA RESULT:      -2.4      2.134      6.570
REMARK  Name = 40779129
REMARK  9 active torsions:
REMARK  status: ('A' for Active; 'I' for Inactive)
REMARK    1  A    between atoms: O_1  and  C_16
REMARK    2  A    between atoms: O_1  and  C_20
REMARK    3  A    between atoms: N_5  and  C_19
REMARK    4  A    between atoms: N_7  and  C_23
REMARK    5  A    between atoms: C_9  and  C_15
REMARK    6  A    between atoms: C_10  and  C_16
REMARK    7  A    between atoms: C_18  and  C_21
REMARK    8  A    between atoms: C_23  and  C_26
REMARK    9  A    between atoms: C_23  and  C_27
REMARK                            x       y       z     vdW  Elec       q    Type
REMARK                         _______ _______ _______ _____ _____    ______ ____
ROOT
ATOM      4  N   UNL     1      -1.095   4.598  25.531  0.00  0.00    -0.296 NA
ATOM      8  C   UNL     1      -2.969   4.191  23.768  0.00  0.00    +0.002 C 
ATOM      9  C   UNL     1      -3.309   3.467  25.100  0.00  0.00    +0.055 C 
ATOM     10  C   UNL     1      -0.497   4.148  24.247  0.00  0.00    +0.095 C 
ATOM     11  C   UNL     1      -1.596   3.704  23.259  0.00  0.00    +0.026 C 
ATOM     12  C   UNL     1      -2.822   5.692  24.102  0.00  0.00    +0.019 C 
ATOM     13  C   UNL     1      -2.063   3.585  26.024  0.00  0.00    +0.094 C 
ATOM     14  C   UNL     1      -1.835   5.856  25.271  0.00  0.00    +0.085 C 
ENDROOT
BRANCH   9  15
ATOM      5  N   UNL     1      -5.124   1.710  25.346  0.00  0.00    -0.270 N 
ATOM      6  N   UNL     1      -5.394   0.399  25.217  0.00  0.00    -0.168 NA
ATOM     15  C   UNL     1      -3.840   2.042  25.027  0.00  0.00    +0.044 A 
ATOM     17  C   UNL     1      -3.227   0.868  24.666  0.00  0.00    +0.056 A 
ATOM     18  C   UNL     1      -4.231  -0.110  24.801  0.00  0.00    +0.128 A 
ATOM     19  C   UNL     1      -6.169   2.605  25.788  0.00  0.00    +0.172 C 
BRANCH  18  21
ATOM      2  O   UNL     1      -4.732  -2.221  23.548  0.00  0.00    -0.461 OA
ATOM     21  C   UNL     1      -4.070  -1.549  24.527  0.00  0.00    +0.155 A 
ATOM     22  C   UNL     1      -3.236  -2.398  25.216  0.00  0.00    +0.051 A 
ATOM     24  C   UNL     1      -3.396  -3.673  24.625  0.00  0.00    +0.042 A 
ATOM     25  C   UNL     1      -4.316  -3.513  23.614  0.00  0.00    +0.196 A 
ENDBRANCH  18  21
ENDBRANCH   9  15
BRANCH  10  16
ATOM     16  C   UNL     1       0.562   3.061  24.447  0.00  0.00    +0.252 C 
BRANCH  16   1
ATOM      1  O   UNL     1      -0.094   1.811  24.543  0.00  0.00    -0.449 OA
BRANCH   1  20
ATOM      3  O   UNL     1       0.086  -0.399  23.947  0.00  0.00    -0.226 OA
ATOM      7  N   UNL     1       1.785   1.116  23.496  0.00  0.00    -0.279 N 
ATOM     20  C   UNL     1       0.555   0.733  23.988  0.00  0.00    +0.401 C 
ATOM     28  H   UNL     1       2.033   2.099  23.555  0.00  0.00    +0.152 HD
BRANCH   7  23
ATOM     23  C   UNL     1       2.707   0.209  22.852  0.00  0.00    +0.070 C 
ATOM     26  C   UNL     1       4.066   0.873  22.675  0.00  0.00    +0.027 C 
ATOM     27  C   UNL     1       2.145  -0.264  21.517  0.00  0.00    +0.027 C 
ENDBRANCH   7  23
ENDBRANCH   1  20
ENDBRANCH  16   1
ENDBRANCH  10  16
TORSDOF 6
ENDMDL
MODEL 5
REMARK VINA RESULT:      -2.4      1.573      3.997
REMARK  Name = 40779129
REMARK  9 active torsions:
REMARK  status: ('A' for Active; 'I' for Inactive)
REMARK    1  A    between atoms: O_1  and  C_16
REMARK    2  A    between atoms: O_1  and  C_20
REMARK    3  A    between atoms: N_5  and  C_19
REMARK    4  A    between atoms: N_7  and  C_23
REMARK    5  A    between atoms: C_9  and  C_15
REMARK    6  A    between atoms: C_10  and  C_16
REMARK    7  A    between atoms: C_18  and  C_21
REMARK    8  A    between atoms: C_23  and  C_26
REMARK    9  A    between atoms: C_23  and  C_27
REMARK                            x       y       z     vdW  Elec       q    Type
REMARK                         _______ _______ _______ _____ _____    ______ ____
ROOT
ATOM      4  N   UNL     1      -3.808   3.348  24.050  0.00  0.00    -0.296 NA
ATOM      8  C   UNL     1      -1.753   3.156  25.638  0.00  0.00    +0.002 C 
ATOM      9  C   UNL     1      -1.301   3.093  24.154  0.00  0.00    +0.055 C 
ATOM     10  C   UNL     1      -4.061   2.312  25.086  0.00  0.00    +0.095 C 
ATOM     11  C   UNL     1      -2.783   2.038  25.906  0.00  0.00    +0.026 C 
ATOM     12  C   UNL     1      -2.487   4.502  25.823  0.00  0.00    +0.019 C 
ATOM     13  C   UNL     1      -2.585   3.008  23.280  0.00  0.00    +0.094 C 
ATOM     14  C   UNL     1      -3.576   4.637  24.743  0.00  0.00    +0.085 C 
ENDROOT
BRANCH   9  15
ATOM      5  N   UNL     1      -0.585   0.900  23.093  0.00  0.00    -0.270 N 
ATOM      6  N   UNL     1       0.471   0.107  22.842  0.00  0.00    -0.168 NA
ATOM     15  C   UNL     1      -0.267   2.046  23.762  0.00  0.00    +0.044 A 
ATOM     17  C   UNL     1       1.091   1.998  23.964  0.00  0.00    +0.056 A 
ATOM     18  C   UNL     1       1.492   0.783  23.377  0.00  0.00    +0.128 A 
ATOM     19  C   UNL     1      -1.897   0.488  22.650  0.00  0.00    +0.172 C 
BRANCH  18  21
ATOM      2  O   UNL     1       3.224  -1.007  23.645  0.00  0.00    -0.461 OA
ATOM     21  C   UNL     1       2.871   0.267  23.329  0.00  0.00    +0.155 A 
ATOM     22  C   UNL     1       3.977   0.998  22.963  0.00  0.00    +0.051 A 
ATOM     24  C   UNL     1       5.080   0.117  23.060  0.00  0.00    +0.042 A 
ATOM     25  C   UNL     1       4.570  -1.090  23.478  0.00  0.00    +0.196 A 
ENDBRANCH  18  21
ENDBRANCH   9  15
BRANCH  10  16
ATOM     16  C   UNL     1      -4.646   1.027  24.495  0.00  0.00    +0.252 C 
BRANCH  16   1
ATOM      1  O   UNL     1      -4.478  -0.014  25.437  0.00  0.00    -0.449 OA
BRANCH   1  20
ATOM      3  O   UNL     1      -4.354  -1.949  24.206  0.00  0.00    -0.226 OA
ATOM      7  N   UNL     1      -2.591  -1.254  25.545  0.00  0.00    -0.279 N 
ATOM     20  C   UNL     1      -3.849  -1.152  24.989  0.00  0.00    +0.401 C 
ATOM     28  H   UNL     1      -2.277  -0.498  26.145  0.00  0.00    +0.152 HD
BRANCH   7  23
ATOM     23  C   UNL     1      -1.680  -2.342  25.271  0.00  0.00    +0.070 C 
ATOM     26  C   UNL     1      -0.239  -1.881  25.440  0.00  0.00    +0.027 C 
ATOM     27  C   UNL     1      -1.922  -2.902  23.875  0.00  0.00    +0.027 C 
ENDBRANCH   7  23
ENDBRANCH   1  20
ENDBRANCH  16   1
ENDBRANCH  10  16
TORSDOF 6
ENDMDL
MODEL 6
REMARK VINA RESULT:      -2.2      2.759      5.155
REMARK  Name = 40779129
REMARK  9 active torsions:
REMARK  status: ('A' for Active; 'I' for Inactive)
REMARK    1  A    between atoms: O_1  and  C_16
REMARK    2  A    between atoms: O_1  and  C_20
REMARK    3  A    between atoms: N_5  and  C_19
REMARK    4  A    between atoms: N_7  and  C_23
REMARK    5  A    between atoms: C_9  and  C_15
REMARK    6  A    between atoms: C_10  and  C_16
REMARK    7  A    between atoms: C_18  and  C_21
REMARK    8  A    between atoms: C_23  and  C_26
REMARK    9  A    between atoms: C_23  and  C_27
REMARK                            x       y       z     vdW  Elec       q    Type
REMARK                         _______ _______ _______ _____ _____    ______ ____
ROOT
ATOM      4  N   UNL     1      -4.208   2.162  23.308  0.00  0.00    -0.296 NA
ATOM      8  C   UNL     1      -3.249   4.097  24.764  0.00  0.00    +0.002 C 
ATOM      9  C   UNL     1      -2.097   3.231  24.185  0.00  0.00    +0.055 C 
ATOM     10  C   UNL     1      -4.896   2.197  24.625  0.00  0.00    +0.095 C 
ATOM     11  C   UNL     1      -4.205   3.198  25.575  0.00  0.00    +0.026 C 
ATOM     12  C   UNL     1      -4.049   4.638  23.559  0.00  0.00    +0.019 C 
ATOM     13  C   UNL     1      -2.745   1.991  23.504  0.00  0.00    +0.094 C 
ATOM     14  C   UNL     1      -4.436   3.465  22.641  0.00  0.00    +0.085 C 
ENDROOT
BRANCH   9  15
ATOM      5  N   UNL     1       0.077   2.038  24.726  0.00  0.00    -0.270 N 
ATOM      6  N   UNL     1       0.987   1.819  25.691  0.00  0.00    -0.168 NA
ATOM     15  C   UNL     1      -0.952   2.847  25.111  0.00  0.00    +0.044 A 
ATOM     17  C   UNL     1      -0.698   3.179  26.419  0.00  0.00    +0.056 A 
ATOM     18  C   UNL     1       0.508   2.519  26.723  0.00  0.00    +0.128 A 
ATOM     19  C   UNL     1       0.264   1.426  23.430  0.00  0.00    +0.172 C 
BRANCH  18  21
ATOM      2  O   UNL     1       2.521   2.871  28.172  0.00  0.00    -0.461 OA
ATOM     21  C   UNL     1       1.206   2.563  28.020  0.00  0.00    +0.155 A 
ATOM     22  C   UNL     1       0.627   2.302  29.240  0.00  0.00    +0.051 A 
ATOM     24  C   UNL     1       1.652   2.459  30.203  0.00  0.00    +0.042 A 
ATOM     25  C   UNL     1       2.784   2.806  29.503  0.00  0.00    +0.196 A 
ENDBRANCH  18  21
ENDBRANCH   9  15
BRANCH  10  16
ATOM     16  C   UNL     1      -5.023   0.808  25.254  0.00  0.00    +0.252 C 
BRANCH  16   1
ATOM      1  O   UNL     1      -5.047  -0.152  24.215  0.00  0.00    -0.449 OA
BRANCH   1  20
ATOM      3  O   UNL     1      -4.329  -2.299  23.826  0.00  0.00    -0.226 OA
ATOM      7  N   UNL     1      -3.039  -0.792  25.031  0.00  0.00    -0.279 N 
ATOM     20  C   UNL     1      -4.149  -1.188  24.314  0.00  0.00    +0.401 C 
ATOM     28  H   UNL     1      -2.996   0.174  25.341  0.00  0.00    +0.152 HD
BRANCH   7  23
ATOM     23  C   UNL     1      -1.914  -1.656  25.309  0.00  0.00    +0.070 C 
ATOM     26  C   UNL     1      -0.977  -0.998  26.312  0.00  0.00    +0.027 C 
ATOM     27  C   UNL     1      -1.183  -2.011  24.020  0.00  0.00    +0.027 C 
ENDBRANCH   7  23
ENDBRANCH   1  20
ENDBRANCH  16   1
ENDBRANCH  10  16
TORSDOF 6
ENDMDL
MODEL 7
REMARK VINA RESULT:      -2.1      1.871      4.434
REMARK  Name = 40779129
REMARK  9 active torsions:
REMARK  status: ('A' for Active; 'I' for Inactive)
REMARK    1  A    between atoms: O_1  and  C_16
REMARK    2  A    between atoms: O_1  and  C_20
REMARK    3  A    between atoms: N_5  and  C_19
REMARK    4  A    between atoms: N_7  and  C_23
REMARK    5  A    between atoms: C_9  and  C_15
REMARK    6  A    between atoms: C_10  and  C_16
REMARK    7  A    between atoms: C_18  and  C_21
REMARK    8  A    between atoms: C_23  and  C_26
REMARK    9  A    between atoms: C_23  and  C_27
REMARK                            x       y       z     vdW  Elec       q    Type
REMARK                         _______ _______ _______ _____ _____    ______ ____
ROOT
ATOM      4  N   UNL     1      -4.977   3.502  24.279  0.00  0.00    -0.296 NA
ATOM      8  C   UNL     1      -3.263   3.736  26.226  0.00  0.00    +0.002 C 
ATOM      9  C   UNL     1      -2.537   3.784  24.854  0.00  0.00    +0.055 C 
ATOM     10  C   UNL     1      -5.196   2.426  25.281  0.00  0.00    +0.095 C 
ATOM     11  C   UNL     1      -4.066   2.422  26.332  0.00  0.00    +0.026 C 
ATOM     12  C   UNL     1      -4.285   4.893  26.230  0.00  0.00    +0.019 C 
ATOM     13  C   UNL     1      -3.587   3.438  23.760  0.00  0.00    +0.094 C 
ATOM     14  C   UNL     1      -5.155   4.804  24.964  0.00  0.00    +0.085 C 
ENDROOT
BRANCH   9  15
ATOM      5  N   UNL     1      -0.428   2.682  25.739  0.00  0.00    -0.270 N 
ATOM      6  N   UNL     1       0.656   1.969  25.387  0.00  0.00    -0.168 NA
ATOM     15  C   UNL     1      -1.251   2.985  24.693  0.00  0.00    +0.044 A 
ATOM     17  C   UNL     1      -0.664   2.433  23.581  0.00  0.00    +0.056 A 
ATOM     18  C   UNL     1       0.506   1.820  24.067  0.00  0.00    +0.128 A 
ATOM     19  C   UNL     1      -0.615   3.043  27.125  0.00  0.00    +0.172 C 
BRANCH  18  21
ATOM      2  O   UNL     1       2.822   1.355  23.233  0.00  0.00    -0.461 OA
ATOM     21  C   UNL     1       1.490   1.084  23.254  0.00  0.00    +0.155 A 
ATOM     22  C   UNL     1       1.197   0.033  22.417  0.00  0.00    +0.051 A 
ATOM     24  C   UNL     1       2.427  -0.367  21.843  0.00  0.00    +0.042 A 
ATOM     25  C   UNL     1       3.385   0.467  22.371  0.00  0.00    +0.196 A 
ENDBRANCH  18  21
ENDBRANCH   9  15
BRANCH  10  16
ATOM     16  C   UNL     1      -5.376   1.053  24.631  0.00  0.00    +0.252 C 
BRANCH  16   1
ATOM      1  O   UNL     1      -4.631   0.107  25.373  0.00  0.00    -0.449 OA
BRANCH   1  20
ATOM      3  O   UNL     1      -4.316  -1.510  23.773  0.00  0.00    -0.226 OA
ATOM      7  N   UNL     1      -2.550  -0.715  25.051  0.00  0.00    -0.279 N 
ATOM     20  C   UNL     1      -3.867  -0.779  24.649  0.00  0.00    +0.401 C 
ATOM     28  H   UNL     1      -2.304  -0.029  25.758  0.00  0.00    +0.152 HD
BRANCH   7  23
ATOM     23  C   UNL     1      -1.498  -1.525  24.480  0.00  0.00    +0.070 C 
ATOM     26  C   UNL     1      -1.990  -2.947  24.250  0.00  0.00    +0.027 C 
ATOM     27  C   UNL     1      -0.264  -1.504  25.375  0.00  0.00    +0.027 C 
ENDBRANCH   7  23
ENDBRANCH   1  20
ENDBRANCH  16   1
ENDBRANCH  10  16
TORSDOF 6
ENDMDL
MODEL 8
REMARK VINA RESULT:      -1.2      2.534      6.512
REMARK  Name = 40779129
REMARK  9 active torsions:
REMARK  status: ('A' for Active; 'I' for Inactive)
REMARK    1  A    between atoms: O_1  and  C_16
REMARK    2  A    between atoms: O_1  and  C_20
REMARK    3  A    between atoms: N_5  and  C_19
REMARK    4  A    between atoms: N_7  and  C_23
REMARK    5  A    between atoms: C_9  and  C_15
REMARK    6  A    between atoms: C_10  and  C_16
REMARK    7  A    between atoms: C_18  and  C_21
REMARK    8  A    between atoms: C_23  and  C_26
REMARK    9  A    between atoms: C_23  and  C_27
REMARK                            x       y       z     vdW  Elec       q    Type
REMARK                         _______ _______ _______ _____ _____    ______ ____
ROOT
ATOM      4  N   UNL     1      -1.316   4.660  25.717  0.00  0.00    -0.296 NA
ATOM      8  C   UNL     1      -2.905   4.101  23.730  0.00  0.00    +0.002 C 
ATOM      9  C   UNL     1      -3.444   3.481  25.049  0.00  0.00    +0.055 C 
ATOM     10  C   UNL     1      -0.534   4.115  24.577  0.00  0.00    +0.095 C 
ATOM     11  C   UNL     1      -1.474   3.587  23.473  0.00  0.00    +0.026 C 
ATOM     12  C   UNL     1      -2.805   5.624  23.964  0.00  0.00    +0.019 C 
ATOM     13  C   UNL     1      -2.351   3.681  26.137  0.00  0.00    +0.094 C 
ATOM     14  C   UNL     1      -2.004   5.887  25.251  0.00  0.00    +0.085 C 
ENDROOT
BRANCH   9  15
ATOM      5  N   UNL     1      -5.240   1.713  25.356  0.00  0.00    -0.270 N 
ATOM      6  N   UNL     1      -5.500   0.398  25.254  0.00  0.00    -0.168 NA
ATOM     15  C   UNL     1      -3.964   2.050  25.009  0.00  0.00    +0.044 A 
ATOM     17  C   UNL     1      -3.347   0.875  24.657  0.00  0.00    +0.056 A 
ATOM     18  C   UNL     1      -4.340  -0.109  24.826  0.00  0.00    +0.128 A 
ATOM     19  C   UNL     1      -6.285   2.606  25.801  0.00  0.00    +0.172 C 
BRANCH  18  21
ATOM      2  O   UNL     1      -3.622  -2.424  25.458  0.00  0.00    -0.461 OA
ATOM     21  C   UNL     1      -4.171  -1.551  24.573  0.00  0.00    +0.155 A 
ATOM     22  C   UNL     1      -4.541  -2.201  23.419  0.00  0.00    +0.051 A 
ATOM     24  C   UNL     1      -4.198  -3.561  23.606  0.00  0.00    +0.042 A 
ATOM     25  C   UNL     1      -3.643  -3.645  24.862  0.00  0.00    +0.196 A 
ENDBRANCH  18  21
ENDBRANCH   9  15
BRANCH  10  16
ATOM     16  C   UNL     1       0.479   3.056  25.019  0.00  0.00    +0.252 C 
BRANCH  16   1
ATOM      1  O   UNL     1       1.046   2.471  23.863  0.00  0.00    -0.449 OA
BRANCH   1  20
ATOM      3  O   UNL     1       1.815   0.446  23.100  0.00  0.00    -0.226 OA
ATOM      7  N   UNL     1       0.113   0.577  24.672  0.00  0.00    -0.279 N 
ATOM     20  C   UNL     1       1.059   1.097  23.814  0.00  0.00    +0.401 C 
ATOM     28  H   UNL     1      -0.417   1.230  25.242  0.00  0.00    +0.152 HD
BRANCH   7  23
ATOM     23  C   UNL     1      -0.119  -0.838  24.847  0.00  0.00    +0.070 C 
ATOM     26  C   UNL     1      -0.860  -1.406  23.644  0.00  0.00    +0.027 C 
ATOM     27  C   UNL     1      -0.884  -1.097  26.140  0.00  0.00    +0.027 C 
ENDBRANCH   7  23
ENDBRANCH   1  20
ENDBRANCH  16   1
ENDBRANCH  10  16
TORSDOF 6
ENDMDL
MODEL 9
REMARK VINA RESULT:      -0.0      2.863      3.597
REMARK  Name = 40779129
REMARK  9 active torsions:
REMARK  status: ('A' for Active; 'I' for Inactive)
REMARK    1  A    between atoms: O_1  and  C_16
REMARK    2  A    between atoms: O_1  and  C_20
REMARK    3  A    between atoms: N_5  and  C_19
REMARK    4  A    between atoms: N_7  and  C_23
REMARK    5  A    between atoms: C_9  and  C_15
REMARK    6  A    between atoms: C_10  and  C_16
REMARK    7  A    between atoms: C_18  and  C_21
REMARK    8  A    between atoms: C_23  and  C_26
REMARK    9  A    between atoms: C_23  and  C_27
REMARK                            x       y       z     vdW  Elec       q    Type
REMARK                         _______ _______ _______ _____ _____    ______ ____
ROOT
ATOM      4  N   UNL     1      -4.481  -0.854  25.110  0.00  0.00    -0.296 NA
ATOM      8  C   UNL     1      -2.770   0.273  23.501  0.00  0.00    +0.002 C 
ATOM      9  C   UNL     1      -2.064  -0.201  24.802  0.00  0.00    +0.055 C 
ATOM     10  C   UNL     1      -5.002   0.461  24.651  0.00  0.00    +0.095 C 
ATOM     11  C   UNL     1      -3.921   1.233  23.867  0.00  0.00    +0.026 C 
ATOM     12  C   UNL     1      -3.409  -0.978  22.861  0.00  0.00    +0.019 C 
ATOM     13  C   UNL     1      -3.172  -0.673  25.786  0.00  0.00    +0.094 C 
ATOM     14  C   UNL     1      -4.270  -1.701  23.912  0.00  0.00    +0.085 C 
ENDROOT
BRANCH   9  15
ATOM      5  N   UNL     1      -0.435   1.746  24.790  0.00  0.00    -0.270 N 
ATOM      6  N   UNL     1       0.406   2.465  25.553  0.00  0.00    -0.168 NA
ATOM     15  C   UNL     1      -1.068   0.742  25.463  0.00  0.00    +0.044 A 
ATOM     17  C   UNL     1      -0.609   0.809  26.756  0.00  0.00    +0.056 A 
ATOM     18  C   UNL     1       0.295   1.888  26.753  0.00  0.00    +0.128 A 
ATOM     19  C   UNL     1      -0.585   2.086  23.393  0.00  0.00    +0.172 C 
BRANCH  18  21
ATOM      2  O   UNL     1       2.229   3.057  27.835  0.00  0.00    -0.461 OA
ATOM     21  C   UNL     1       1.060   2.368  27.918  0.00  0.00    +0.155 A 
ATOM     22  C   UNL     1       0.698   2.188  29.232  0.00  0.00    +0.051 A 
ATOM     24  C   UNL     1       1.708   2.804  30.007  0.00  0.00    +0.042 A 
ATOM     25  C   UNL     1       2.617   3.318  29.111  0.00  0.00    +0.196 A 
ENDBRANCH  18  21
ENDBRANCH   9  15
BRANCH  10  16
ATOM     16  C   UNL     1      -5.577   1.292  25.800  0.00  0.00    +0.252 C 
BRANCH  16   1
ATOM      1  O   UNL     1      -6.120   2.482  25.262  0.00  0.00    -0.449 OA
BRANCH   1  20
ATOM      3  O   UNL     1      -6.070   4.722  25.768  0.00  0.00    -0.226 OA
ATOM      7  N   UNL     1      -4.131   3.449  25.727  0.00  0.00    -0.279 N 
ATOM     20  C   UNL     1      -5.488   3.655  25.603  0.00  0.00    +0.401 C 
ATOM     28  H   UNL     1      -3.783   2.502  25.608  0.00  0.00    +0.152 HD
BRANCH   7  23
ATOM     23  C   UNL     1      -3.191   4.489  26.076  0.00  0.00    +0.070 C 
ATOM     26  C   UNL     1      -2.257   4.773  24.908  0.00  0.00    +0.027 C 
ATOM     27  C   UNL     1      -2.410   4.104  27.327  0.00  0.00    +0.027 C 
ENDBRANCH   7  23
ENDBRANCH   1  20
ENDBRANCH  16   1
ENDBRANCH  10  16
TORSDOF 6
ENDMDL
MODEL 10
REMARK VINA RESULT:       0.5      2.280      3.930
REMARK  Name = 40779129
REMARK  9 active torsions:
REMARK  status: ('A' for Active; 'I' for Inactive)
REMARK    1  A    between atoms: O_1  and  C_16
REMARK    2  A    between atoms: O_1  and  C_20
REMARK    3  A    between atoms: N_5  and  C_19
REMARK    4  A    between atoms: N_7  and  C_23
REMARK    5  A    between atoms: C_9  and  C_15
REMARK    6  A    between atoms: C_10  and  C_16
REMARK    7  A    between atoms: C_18  and  C_21
REMARK    8  A    between atoms: C_23  and  C_26
REMARK    9  A    between atoms: C_23  and  C_27
REMARK                            x       y       z     vdW  Elec       q    Type
REMARK                         _______ _______ _______ _____ _____    ______ ____
ROOT
ATOM      4  N   UNL     1      -3.690  -2.051  25.677  0.00  0.00    -0.296 NA
ATOM      8  C   UNL     1      -2.010  -1.909  23.692  0.00  0.00    +0.002 C 
ATOM      9  C   UNL     1      -1.505  -1.063  24.893  0.00  0.00    +0.055 C 
ATOM     10  C   UNL     1      -4.412  -1.714  24.422  0.00  0.00    +0.095 C 
ATOM     11  C   UNL     1      -3.415  -1.422  23.281  0.00  0.00    +0.026 C 
ATOM     12  C   UNL     1      -2.162  -3.358  24.201  0.00  0.00    +0.019 C 
ATOM     13  C   UNL     1      -2.645  -1.033  25.951  0.00  0.00    +0.094 C 
ATOM     14  C   UNL     1      -3.020  -3.359  25.478  0.00  0.00    +0.085 C 
ENDROOT
BRANCH   9  15
ATOM      5  N   UNL     1       0.258   0.528  23.996  0.00  0.00    -0.270 N 
ATOM      6  N   UNL     1       0.573   1.826  23.840  0.00  0.00    -0.168 NA
ATOM     15  C   UNL     1      -0.944   0.324  24.610  0.00  0.00    +0.044 A 
ATOM     17  C   UNL     1      -1.448   1.573  24.875  0.00  0.00    +0.056 A 
ATOM     18  C   UNL     1      -0.473   2.459  24.378  0.00  0.00    +0.128 A 
ATOM     19  C   UNL     1       1.174  -0.482  23.521  0.00  0.00    +0.172 C 
BRANCH  18  21
ATOM      2  O   UNL     1       0.085   4.756  23.548  0.00  0.00    -0.461 OA
ATOM     21  C   UNL     1      -0.549   3.930  24.423  0.00  0.00    +0.155 A 
ATOM     22  C   UNL     1      -1.265   4.659  25.344  0.00  0.00    +0.051 A 
ATOM     24  C   UNL     1      -1.057   6.019  25.016  0.00  0.00    +0.042 A 
ATOM     25  C   UNL     1      -0.230   6.026  23.917  0.00  0.00    +0.196 A 
ENDBRANCH  18  21
ENDBRANCH   9  15
BRANCH  10  16
ATOM     16  C   UNL     1      -5.410  -0.570  24.614  0.00  0.00    +0.252 C 
BRANCH  16   1
ATOM      1  O   UNL     1      -4.753   0.649  24.326  0.00  0.00    -0.449 OA
BRANCH   1  20
ATOM      3  O   UNL     1      -5.931   1.689  26.001  0.00  0.00    -0.226 OA
ATOM      7  N   UNL     1      -4.372   2.841  24.726  0.00  0.00    -0.279 N 
ATOM     20  C   UNL     1      -5.096   1.730  25.104  0.00  0.00    +0.401 C 
ATOM     28  H   UNL     1      -3.676   2.725  23.994  0.00  0.00    +0.152 HD
BRANCH   7  23
ATOM     23  C   UNL     1      -4.505   4.136  25.352  0.00  0.00    +0.070 C 
ATOM     26  C   UNL     1      -3.778   4.154  26.689  0.00  0.00    +0.027 C 
ATOM     27  C   UNL     1      -5.976   4.499  25.518  0.00  0.00    +0.027 C 
ENDBRANCH   7  23
ENDBRANCH   1  20
ENDBRANCH  16   1
ENDBRANCH  10  16
TORSDOF 6
ENDMDL
