MODEL 1
REMARK VINA RESULT:      10.3      0.000      0.000
REMARK  Name = 11867047
REMARK  14 active torsions:
REMARK  status: ('A' for Active; 'I' for Inactive)
REMARK    1  A    between atoms: O_2  and  C_14
REMARK    2  A    between atoms: O_3  and  C_19
REMARK    3  A    between atoms: N_7  and  C_25
REMARK    4  A    between atoms: C_9  and  C_17
REMARK    5  A    between atoms: C_11  and  C_19
REMARK    6  A    between atoms: C_11  and  C_20
REMARK    7  A    between atoms: C_12  and  C_22
REMARK    8  A    between atoms: C_22  and  C_23
REMARK    9  A    between atoms: C_25  and  C_28
REMARK   10  A    between atoms: C_26  and  C_27
REMARK   11  A    between atoms: C_27  and  C_29
REMARK   12  A    between atoms: C_29  and  C_32
REMARK   13  A    between atoms: C_29  and  C_33
REMARK   14  A    between atoms: C_29  and  C_34
REMARK                            x       y       z     vdW  Elec       q    Type
REMARK                         _______ _______ _______ _____ _____    ______ ____
ROOT
ATOM      1  S   UNL     1      -0.602  -0.892  23.452  0.00  0.00    -0.057 S 
ATOM      5  O   UNL     1       3.115   1.902  23.132  0.00  0.00    -0.275 OA
ATOM      6  N   UNL     1       0.255   1.523  23.815  0.00  0.00    -0.229 NA
ATOM      8  N   UNL     1       1.849  -0.083  22.984  0.00  0.00    -0.265 N 
ATOM      9  C   UNL     1      -3.373   2.548  24.626  0.00  0.00    -0.019 C 
ATOM     10  C   UNL     1      -3.725   1.117  25.229  0.00  0.00    +0.011 C 
ATOM     11  C   UNL     1      -5.224   0.871  25.658  0.00  0.00    +0.021 C 
ATOM     12  C   UNL     1      -1.785   2.727  24.680  0.00  0.00    +0.054 C 
ATOM     13  C   UNL     1      -4.018   3.651  25.505  0.00  0.00    +0.010 C 
ATOM     14  C   UNL     1      -5.725   2.086  26.487  0.00  0.00    +0.123 C 
ATOM     15  C   UNL     1      -3.124  -0.029  24.364  0.00  0.00    +0.049 C 
ATOM     16  C   UNL     1      -5.496   3.423  25.792  0.00  0.00    +0.032 C 
ATOM     17  C   UNL     1      -3.861   2.723  23.168  0.00  0.00    +0.012 C 
ATOM     18  C   UNL     1      -1.084   1.498  24.162  0.00  0.00    +0.058 A 
ATOM     20  C   UNL     1      -5.287  -0.378  26.583  0.00  0.00    +0.016 C 
ATOM     21  C   UNL     1      -1.698   0.268  24.046  0.00  0.00    +0.015 A 
ATOM     24  C   UNL     1       0.615   0.321  23.419  0.00  0.00    +0.165 A 
ATOM     26  C   UNL     1       3.003   0.708  22.866  0.00  0.00    +0.219 C 
ATOM     41  H   UNL     1       1.909  -1.063  22.721  0.00  0.00    +0.157 HD
ENDROOT
BRANCH  14   2
ATOM      2  O   UNL     1      -7.116   1.954  26.781  0.00  0.00    -0.391 OA
ATOM     38  H   UNL     1      -7.265   1.049  27.104  0.00  0.00    +0.210 HD
ENDBRANCH  14   2
BRANCH  11  19
ATOM     19  C   UNL     1      -6.184   0.569  24.486  0.00  0.00    +0.165 C 
BRANCH  19   3
ATOM      3  O   UNL     1      -7.079   1.652  24.372  0.00  0.00    -0.394 OA
ATOM     39  H   UNL     1      -6.559   2.469  24.455  0.00  0.00    +0.209 HD
ENDBRANCH  19   3
ENDBRANCH  11  19
BRANCH  12  22
ATOM     22  C   UNL     1      -1.264   4.001  24.000  0.00  0.00    +0.106 C 
BRANCH  22  23
ATOM      4  O   UNL     1       0.014   5.898  24.791  0.00  0.00    -0.276 OA
ATOM      7  N   UNL     1       0.482   3.775  25.614  0.00  0.00    -0.311 N 
ATOM     23  C   UNL     1      -0.203   4.689  24.826  0.00  0.00    +0.214 C 
ATOM     40  H   UNL     1       0.238   2.790  25.555  0.00  0.00    +0.149 HD
BRANCH   7  25
ATOM     25  C   UNL     1       1.555   4.149  26.506  0.00  0.00    +0.139 C 
BRANCH  25  28
ATOM     28  C   UNL     1       1.551   3.331  27.765  0.00  0.00    -0.030 A 
ATOM     30  C   UNL     1       2.716   3.213  28.523  0.00  0.00    +0.005 A 
ATOM     31  C   UNL     1       0.382   2.691  28.177  0.00  0.00    +0.005 A 
ATOM     35  C   UNL     1       2.712   2.454  29.694  0.00  0.00    +0.000 A 
ATOM     36  C   UNL     1       0.378   1.932  29.347  0.00  0.00    +0.000 A 
ATOM     37  C   UNL     1       1.543   1.814  30.105  0.00  0.00    +0.000 A 
ENDBRANCH  25  28
ENDBRANCH   7  25
ENDBRANCH  22  23
ENDBRANCH  12  22
BRANCH  26  27
ATOM     27  C   UNL     1       4.201  -0.073  22.340  0.00  0.00    +0.102 C 
BRANCH  27  29
ATOM     29  C   UNL     1       5.272  -0.412  23.404  0.00  0.00    -0.029 C 
ATOM     32  C   UNL     1       6.670  -0.541  22.778  0.00  0.00    +0.011 C 
ATOM     33  C   UNL     1       4.898  -1.763  24.044  0.00  0.00    +0.011 C 
ATOM     34  C   UNL     1       5.310   0.656  24.511  0.00  0.00    +0.011 C 
ENDBRANCH  27  29
ENDBRANCH  26  27
TORSDOF 9
ENDMDL
MODEL 2
REMARK VINA RESULT:      13.4      1.872      3.398
REMARK  Name = 11867047
REMARK  14 active torsions:
REMARK  status: ('A' for Active; 'I' for Inactive)
REMARK    1  A    between atoms: O_2  and  C_14
REMARK    2  A    between atoms: O_3  and  C_19
REMARK    3  A    between atoms: N_7  and  C_25
REMARK    4  A    between atoms: C_9  and  C_17
REMARK    5  A    between atoms: C_11  and  C_19
REMARK    6  A    between atoms: C_11  and  C_20
REMARK    7  A    between atoms: C_12  and  C_22
REMARK    8  A    between atoms: C_22  and  C_23
REMARK    9  A    between atoms: C_25  and  C_28
REMARK   10  A    between atoms: C_26  and  C_27
REMARK   11  A    between atoms: C_27  and  C_29
REMARK   12  A    between atoms: C_29  and  C_32
REMARK   13  A    between atoms: C_29  and  C_33
REMARK   14  A    between atoms: C_29  and  C_34
REMARK                            x       y       z     vdW  Elec       q    Type
REMARK                         _______ _______ _______ _____ _____    ______ ____
ROOT
ATOM      1  S   UNL     1       0.448   2.745  23.914  0.00  0.00    -0.057 S 
ATOM      5  O   UNL     1       2.834  -1.040  22.613  0.00  0.00    -0.275 OA
ATOM      6  N   UNL     1       0.272   0.211  23.424  0.00  0.00    -0.229 NA
ATOM      8  N   UNL     1       2.447   1.219  23.169  0.00  0.00    -0.265 N 
ATOM      9  C   UNL     1      -3.378   0.358  24.658  0.00  0.00    -0.019 C 
ATOM     10  C   UNL     1      -3.566   1.862  24.168  0.00  0.00    +0.011 C 
ATOM     11  C   UNL     1      -4.931   2.567  24.527  0.00  0.00    +0.021 C 
ATOM     12  C   UNL     1      -2.168  -0.281  23.833  0.00  0.00    +0.054 C 
ATOM     13  C   UNL     1      -4.664  -0.450  24.344  0.00  0.00    +0.010 C 
ATOM     14  C   UNL     1      -6.106   1.605  24.194  0.00  0.00    +0.123 C 
ATOM     15  C   UNL     1      -2.311   2.725  24.488  0.00  0.00    +0.049 C 
ATOM     16  C   UNL     1      -5.945   0.222  24.815  0.00  0.00    +0.032 C 
ATOM     17  C   UNL     1      -3.081   0.252  26.173  0.00  0.00    +0.012 C 
ATOM     18  C   UNL     1      -0.985   0.652  23.796  0.00  0.00    +0.058 A 
ATOM     20  C   UNL     1      -5.099   3.829  23.634  0.00  0.00    +0.016 C 
ATOM     21  C   UNL     1      -1.074   2.000  24.076  0.00  0.00    +0.015 A 
ATOM     24  C   UNL     1       1.108   1.226  23.458  0.00  0.00    +0.165 A 
ATOM     26  C   UNL     1       3.219   0.115  22.773  0.00  0.00    +0.219 C 
ATOM     41  H   UNL     1       2.907   2.120  23.262  0.00  0.00    +0.157 HD
ENDROOT
BRANCH  14   2
ATOM      2  O   UNL     1      -7.347   2.161  24.627  0.00  0.00    -0.391 OA
ATOM     38  H   UNL     1      -7.544   1.797  25.507  0.00  0.00    +0.210 HD
ENDBRANCH  14   2
BRANCH  11  19
ATOM     19  C   UNL     1      -5.027   3.072  25.983  0.00  0.00    +0.165 C 
BRANCH  19   3
ATOM      3  O   UNL     1      -6.030   4.061  26.032  0.00  0.00    -0.394 OA
ATOM     39  H   UNL     1      -5.954   4.592  25.221  0.00  0.00    +0.209 HD
ENDBRANCH  19   3
ENDBRANCH  11  19
BRANCH  12  22
ATOM     22  C   UNL     1      -1.760  -1.690  24.288  0.00  0.00    +0.106 C 
BRANCH  22  23
ATOM      4  O   UNL     1       0.289  -2.276  25.435  0.00  0.00    -0.276 OA
ATOM      7  N   UNL     1      -1.218  -0.824  26.447  0.00  0.00    -0.311 N 
ATOM     23  C   UNL     1      -0.769  -1.651  25.427  0.00  0.00    +0.214 C 
ATOM     40  H   UNL     1      -2.119  -0.365  26.352  0.00  0.00    +0.149 HD
BRANCH   7  25
ATOM     25  C   UNL     1      -0.474  -0.598  27.665  0.00  0.00    +0.139 C 
BRANCH  25  28
ATOM     28  C   UNL     1       0.088   0.792  27.731  0.00  0.00    -0.030 A 
ATOM     30  C   UNL     1      -0.181   1.702  26.708  0.00  0.00    +0.005 A 
ATOM     31  C   UNL     1       0.880   1.174  28.815  0.00  0.00    +0.005 A 
ATOM     35  C   UNL     1       0.341   2.995  26.770  0.00  0.00    +0.000 A 
ATOM     36  C   UNL     1       1.402   2.466  28.875  0.00  0.00    +0.000 A 
ATOM     37  C   UNL     1       1.133   3.376  27.853  0.00  0.00    +0.000 A 
ENDBRANCH  25  28
ENDBRANCH   7  25
ENDBRANCH  22  23
ENDBRANCH  12  22
BRANCH  26  27
ATOM     27  C   UNL     1       4.682   0.473  22.541  0.00  0.00    +0.102 C 
BRANCH  27  29
ATOM     29  C   UNL     1       5.670  -0.148  23.557  0.00  0.00    -0.029 C 
ATOM     32  C   UNL     1       5.161  -1.498  24.087  0.00  0.00    +0.011 C 
ATOM     33  C   UNL     1       5.804   0.823  24.747  0.00  0.00    +0.011 C 
ATOM     34  C   UNL     1       7.061  -0.342  22.929  0.00  0.00    +0.011 C 
ENDBRANCH  27  29
ENDBRANCH  26  27
TORSDOF 9
ENDMDL
MODEL 3
REMARK VINA RESULT:      13.8      2.704      4.178
REMARK  Name = 11867047
REMARK  14 active torsions:
REMARK  status: ('A' for Active; 'I' for Inactive)
REMARK    1  A    between atoms: O_2  and  C_14
REMARK    2  A    between atoms: O_3  and  C_19
REMARK    3  A    between atoms: N_7  and  C_25
REMARK    4  A    between atoms: C_9  and  C_17
REMARK    5  A    between atoms: C_11  and  C_19
REMARK    6  A    between atoms: C_11  and  C_20
REMARK    7  A    between atoms: C_12  and  C_22
REMARK    8  A    between atoms: C_22  and  C_23
REMARK    9  A    between atoms: C_25  and  C_28
REMARK   10  A    between atoms: C_26  and  C_27
REMARK   11  A    between atoms: C_27  and  C_29
REMARK   12  A    between atoms: C_29  and  C_32
REMARK   13  A    between atoms: C_29  and  C_33
REMARK   14  A    between atoms: C_29  and  C_34
REMARK                            x       y       z     vdW  Elec       q    Type
REMARK                         _______ _______ _______ _____ _____    ______ ____
ROOT
ATOM      1  S   UNL     1       1.045   2.335  25.425  0.00  0.00    -0.057 S 
ATOM      5  O   UNL     1       2.540   0.585  21.374  0.00  0.00    -0.275 OA
ATOM      6  N   UNL     1       0.331   1.660  23.032  0.00  0.00    -0.229 NA
ATOM      8  N   UNL     1       2.650   1.338  23.607  0.00  0.00    -0.265 N 
ATOM      9  C   UNL     1      -3.314   2.401  24.050  0.00  0.00    -0.019 C 
ATOM     10  C   UNL     1      -2.878   3.536  25.078  0.00  0.00    +0.011 C 
ATOM     11  C   UNL     1      -4.019   4.184  25.956  0.00  0.00    +0.021 C 
ATOM     12  C   UNL     1      -2.129   2.213  22.993  0.00  0.00    +0.054 C 
ATOM     13  C   UNL     1      -4.583   2.857  23.286  0.00  0.00    +0.010 C 
ATOM     14  C   UNL     1      -5.228   4.536  25.045  0.00  0.00    +0.123 C 
ATOM     15  C   UNL     1      -1.623   3.114  25.895  0.00  0.00    +0.049 C 
ATOM     16  C   UNL     1      -5.698   3.365  24.190  0.00  0.00    +0.032 C 
ATOM     17  C   UNL     1      -3.607   1.046  24.740  0.00  0.00    +0.012 C 
ATOM     18  C   UNL     1      -0.794   2.131  23.685  0.00  0.00    +0.058 A 
ATOM     20  C   UNL     1      -3.495   5.515  26.566  0.00  0.00    +0.016 C 
ATOM     21  C   UNL     1      -0.584   2.556  24.981  0.00  0.00    +0.015 A 
ATOM     24  C   UNL     1       1.356   1.715  23.854  0.00  0.00    +0.165 A 
ATOM     26  C   UNL     1       3.160   0.806  22.411  0.00  0.00    +0.219 C 
ATOM     41  H   UNL     1       3.287   1.463  24.388  0.00  0.00    +0.157 HD
ENDROOT
BRANCH  14   2
ATOM      2  O   UNL     1      -6.326   5.004  25.827  0.00  0.00    -0.391 OA
ATOM     38  H   UNL     1      -6.901   5.530  25.244  0.00  0.00    +0.210 HD
ENDBRANCH  14   2
BRANCH  11  19
ATOM     19  C   UNL     1      -4.467   3.323  27.158  0.00  0.00    +0.165 C 
BRANCH  19   3
ATOM      3  O   UNL     1      -5.696   2.719  26.822  0.00  0.00    -0.394 OA
ATOM     39  H   UNL     1      -6.096   3.250  26.113  0.00  0.00    +0.209 HD
ENDBRANCH  19   3
ENDBRANCH  11  19
BRANCH  12  22
ATOM     22  C   UNL     1      -2.329   1.049  22.013  0.00  0.00    +0.106 C 
BRANCH  22  23
ATOM      4  O   UNL     1      -3.535  -0.821  22.965  0.00  0.00    -0.276 OA
ATOM      7  N   UNL     1      -1.213  -0.778  23.071  0.00  0.00    -0.311 N 
ATOM     23  C   UNL     1      -2.460  -0.276  22.727  0.00  0.00    +0.214 C 
ATOM     40  H   UNL     1      -0.382  -0.239  22.846  0.00  0.00    +0.149 HD
BRANCH   7  25
ATOM     25  C   UNL     1      -1.032  -2.031  23.768  0.00  0.00    +0.139 C 
BRANCH  25  28
ATOM     28  C   UNL     1      -1.713  -2.035  25.106  0.00  0.00    -0.030 A 
ATOM     30  C   UNL     1      -1.275  -1.175  26.113  0.00  0.00    +0.005 A 
ATOM     31  C   UNL     1      -2.784  -2.897  25.340  0.00  0.00    +0.005 A 
ATOM     35  C   UNL     1      -1.908  -1.178  27.356  0.00  0.00    +0.000 A 
ATOM     36  C   UNL     1      -3.417  -2.900  26.583  0.00  0.00    +0.000 A 
ATOM     37  C   UNL     1      -2.979  -2.041  27.591  0.00  0.00    +0.000 A 
ENDBRANCH  25  28
ENDBRANCH   7  25
ENDBRANCH  22  23
ENDBRANCH  12  22
BRANCH  26  27
ATOM     27  C   UNL     1       4.649   0.492  22.495  0.00  0.00    +0.102 C 
BRANCH  27  29
ATOM     29  C   UNL     1       5.053  -0.420  23.678  0.00  0.00    -0.029 C 
ATOM     32  C   UNL     1       5.189   0.378  24.985  0.00  0.00    +0.011 C 
ATOM     33  C   UNL     1       6.421  -1.050  23.347  0.00  0.00    +0.011 C 
ATOM     34  C   UNL     1       4.032  -1.552  23.878  0.00  0.00    +0.011 C 
ENDBRANCH  27  29
ENDBRANCH  26  27
TORSDOF 9
ENDMDL
