MODEL 1
REMARK VINA RESULT:      -6.2      0.000      0.000
REMARK  Name = 75536658
REMARK  8 active torsions:
REMARK  status: ('A' for Active; 'I' for Inactive)
REMARK    1  A    between atoms: S_1  and  N_7
REMARK    2  A    between atoms: S_1  and  C_16
REMARK    3  A    between atoms: O_3  and  C_10
REMARK    4  A    between atoms: N_6  and  C_9
REMARK    5  A    between atoms: N_6  and  C_14
REMARK    6  A    between atoms: N_7  and  C_13
REMARK    7  A    between atoms: C_11  and  C_13
REMARK    8  A    between atoms: C_14  and  C_15
REMARK                            x       y       z     vdW  Elec       q    Type
REMARK                         _______ _______ _______ _____ _____    ______ ____
ROOT
ATOM      2  O   UNL     1      -0.377   3.627  26.095  0.00  0.00    -0.371 OA
ATOM      9  C   UNL     1      -0.187   1.704  24.715  0.00  0.00    +0.111 C 
ATOM     10  C   UNL     1      -1.587   2.276  24.577  0.00  0.00    +0.164 C 
ATOM     11  C   UNL     1      -1.368   3.704  25.057  0.00  0.00    +0.164 C 
ATOM     12  C   UNL     1       0.275   2.348  26.012  0.00  0.00    +0.181 C 
ENDROOT
BRANCH  10   3
ATOM      3  O   UNL     1      -2.065   2.233  23.247  0.00  0.00    -0.388 OA
ATOM     22  H   UNL     1      -1.305   2.311  22.646  0.00  0.00    +0.210 HD
ENDBRANCH  10   3
BRANCH   9   6
ATOM      6  N   UNL     1      -0.153   0.252  24.760  0.00  0.00    -0.303 NA
ATOM     21  H   UNL     1       0.784  -0.053  25.022  0.00  0.00    +0.123 HD
BRANCH   6  14
ATOM     14  C   UNL     1      -1.106  -0.265  25.736  0.00  0.00    +0.137 C 
BRANCH  14  15
ATOM      8  N   UNL     1      -3.321  -0.237  24.727  0.00  0.00    -0.259 NA
ATOM     15  C   UNL     1      -2.250  -0.986  25.074  0.00  0.00    +0.055 A 
ATOM     17  C   UNL     1      -2.156  -2.351  24.854  0.00  0.00    +0.024 A 
ATOM     18  C   UNL     1      -3.228  -2.987  24.240  0.00  0.00    +0.003 A 
ATOM     19  C   UNL     1      -4.343  -0.889  24.132  0.00  0.00    +0.111 A 
ATOM     20  C   UNL     1      -4.347  -2.250  23.869  0.00  0.00    +0.020 A 
ENDBRANCH  14  15
ENDBRANCH   6  14
ENDBRANCH   9   6
BRANCH  11  13
ATOM     13  C   UNL     1      -2.629   4.355  25.596  0.00  0.00    +0.139 C 
BRANCH  13   7
ATOM      7  N   UNL     1      -3.577   3.313  26.036  0.00  0.00    -0.192 NA
ATOM     23  H   UNL     1      -3.561   3.151  27.052  0.00  0.00    +0.148 HD
BRANCH   7   1
ATOM      1  S   UNL     1      -5.100   3.200  25.275  0.00  0.00    +0.027 S 
ATOM      4  O   UNL     1      -4.934   2.754  23.905  0.00  0.00    -0.158 OA
ATOM      5  O   UNL     1      -5.854   4.402  25.578  0.00  0.00    -0.158 OA
ATOM     16  C   UNL     1      -5.828   1.869  26.200  0.00  0.00    +0.214 C 
ENDBRANCH   7   1
ENDBRANCH  13   7
ENDBRANCH  11  13
TORSDOF 7
ENDMDL
MODEL 2
REMARK VINA RESULT:      -5.7      2.827      4.764
REMARK  Name = 75536658
REMARK  8 active torsions:
REMARK  status: ('A' for Active; 'I' for Inactive)
REMARK    1  A    between atoms: S_1  and  N_7
REMARK    2  A    between atoms: S_1  and  C_16
REMARK    3  A    between atoms: O_3  and  C_10
REMARK    4  A    between atoms: N_6  and  C_9
REMARK    5  A    between atoms: N_6  and  C_14
REMARK    6  A    between atoms: N_7  and  C_13
REMARK    7  A    between atoms: C_11  and  C_13
REMARK    8  A    between atoms: C_14  and  C_15
REMARK                            x       y       z     vdW  Elec       q    Type
REMARK                         _______ _______ _______ _____ _____    ______ ____
ROOT
ATOM      2  O   UNL     1       0.468   0.668  23.398  0.00  0.00    -0.371 OA
ATOM      9  C   UNL     1       0.103   1.814  25.446  0.00  0.00    +0.111 C 
ATOM     10  C   UNL     1      -0.815   0.606  25.384  0.00  0.00    +0.164 C 
ATOM     11  C   UNL     1      -0.102  -0.250  24.346  0.00  0.00    +0.164 C 
ATOM     12  C   UNL     1       0.478   1.982  23.983  0.00  0.00    +0.181 C 
ENDROOT
BRANCH  10   3
ATOM      3  O   UNL     1      -0.927  -0.058  26.628  0.00  0.00    -0.388 OA
ATOM     22  H   UNL     1      -0.469  -0.913  26.561  0.00  0.00    +0.210 HD
ENDBRANCH  10   3
BRANCH   9   6
ATOM      6  N   UNL     1      -0.528   2.996  26.009  0.00  0.00    -0.303 NA
ATOM     21  H   UNL     1       0.190   3.599  26.412  0.00  0.00    +0.123 HD
BRANCH   6  14
ATOM     14  C   UNL     1      -1.249   3.743  24.984  0.00  0.00    +0.137 C 
BRANCH  14  15
ATOM      8  N   UNL     1      -3.418   3.900  26.076  0.00  0.00    -0.259 NA
ATOM     15  C   UNL     1      -2.725   3.445  25.008  0.00  0.00    +0.055 A 
ATOM     17  C   UNL     1      -3.292   2.738  23.961  0.00  0.00    +0.024 A 
ATOM     18  C   UNL     1      -4.657   2.480  24.012  0.00  0.00    +0.003 A 
ATOM     19  C   UNL     1      -4.742   3.631  26.092  0.00  0.00    +0.111 A 
ATOM     20  C   UNL     1      -5.403   2.932  25.095  0.00  0.00    +0.020 A 
ENDBRANCH  14  15
ENDBRANCH   6  14
ENDBRANCH   9   6
BRANCH  11  13
ATOM     13  C   UNL     1      -1.027  -1.219  23.630  0.00  0.00    +0.139 C 
BRANCH  13   7
ATOM      7  N   UNL     1      -1.611  -2.160  24.606  0.00  0.00    -0.192 NA
ATOM     23  H   UNL     1      -0.998  -2.341  25.413  0.00  0.00    +0.148 HD
BRANCH   7   1
ATOM      1  S   UNL     1      -3.285  -2.092  24.929  0.00  0.00    +0.027 S 
ATOM      4  O   UNL     1      -3.512  -1.480  26.224  0.00  0.00    -0.158 OA
ATOM      5  O   UNL     1      -3.867  -3.380  24.604  0.00  0.00    -0.158 OA
ATOM     16  C   UNL     1      -3.811  -0.941  23.680  0.00  0.00    +0.214 C 
ENDBRANCH   7   1
ENDBRANCH  13   7
ENDBRANCH  11  13
TORSDOF 7
ENDMDL
MODEL 3
REMARK VINA RESULT:      -5.1      1.961      3.857
REMARK  Name = 75536658
REMARK  8 active torsions:
REMARK  status: ('A' for Active; 'I' for Inactive)
REMARK    1  A    between atoms: S_1  and  N_7
REMARK    2  A    between atoms: S_1  and  C_16
REMARK    3  A    between atoms: O_3  and  C_10
REMARK    4  A    between atoms: N_6  and  C_9
REMARK    5  A    between atoms: N_6  and  C_14
REMARK    6  A    between atoms: N_7  and  C_13
REMARK    7  A    between atoms: C_11  and  C_13
REMARK    8  A    between atoms: C_14  and  C_15
REMARK                            x       y       z     vdW  Elec       q    Type
REMARK                         _______ _______ _______ _____ _____    ______ ____
ROOT
ATOM      2  O   UNL     1      -2.575   3.271  23.588  0.00  0.00    -0.371 OA
ATOM      9  C   UNL     1      -4.661   2.304  24.184  0.00  0.00    +0.111 C 
ATOM     10  C   UNL     1      -4.105   3.060  25.379  0.00  0.00    +0.164 C 
ATOM     11  C   UNL     1      -3.123   4.002  24.698  0.00  0.00    +0.164 C 
ATOM     12  C   UNL     1      -3.415   2.131  23.332  0.00  0.00    +0.181 C 
ENDROOT
BRANCH  10   3
ATOM      3  O   UNL     1      -5.104   3.763  26.092  0.00  0.00    -0.388 OA
ATOM     22  H   UNL     1      -5.492   3.160  26.749  0.00  0.00    +0.210 HD
ENDBRANCH  10   3
BRANCH   9   6
ATOM      6  N   UNL     1      -5.287   1.040  24.535  0.00  0.00    -0.303 NA
ATOM     21  H   UNL     1      -5.281   0.426  23.721  0.00  0.00    +0.123 HD
BRANCH   6  14
ATOM     14  C   UNL     1      -4.572   0.385  25.625  0.00  0.00    +0.137 C 
BRANCH  14  15
ATOM      8  N   UNL     1      -2.469  -0.840  25.580  0.00  0.00    -0.259 NA
ATOM     15  C   UNL     1      -3.744  -0.774  25.135  0.00  0.00    +0.055 A 
ATOM     17  C   UNL     1      -4.313  -1.697  24.273  0.00  0.00    +0.024 A 
ATOM     18  C   UNL     1      -3.523  -2.756  23.840  0.00  0.00    +0.003 A 
ATOM     19  C   UNL     1      -1.732  -1.882  25.138  0.00  0.00    +0.111 A 
ATOM     20  C   UNL     1      -2.207  -2.858  24.276  0.00  0.00    +0.020 A 
ENDBRANCH  14  15
ENDBRANCH   6  14
ENDBRANCH   9   6
BRANCH  11  13
ATOM     13  C   UNL     1      -2.002   4.463  25.613  0.00  0.00    +0.139 C 
BRANCH  13   7
ATOM      7  N   UNL     1      -0.711   3.949  25.115  0.00  0.00    -0.192 NA
ATOM     23  H   UNL     1      -0.014   4.688  24.952  0.00  0.00    +0.148 HD
BRANCH   7   1
ATOM      1  S   UNL     1      -0.116   2.469  25.720  0.00  0.00    +0.027 S 
ATOM      4  O   UNL     1      -1.224   1.608  26.090  0.00  0.00    -0.158 OA
ATOM      5  O   UNL     1       0.949   2.754  26.662  0.00  0.00    -0.158 OA
ATOM     16  C   UNL     1       0.634   1.796  24.255  0.00  0.00    +0.214 C 
ENDBRANCH   7   1
ENDBRANCH  13   7
ENDBRANCH  11  13
TORSDOF 7
ENDMDL
MODEL 4
REMARK VINA RESULT:      -4.9      2.288      4.204
REMARK  Name = 75536658
REMARK  8 active torsions:
REMARK  status: ('A' for Active; 'I' for Inactive)
REMARK    1  A    between atoms: S_1  and  N_7
REMARK    2  A    between atoms: S_1  and  C_16
REMARK    3  A    between atoms: O_3  and  C_10
REMARK    4  A    between atoms: N_6  and  C_9
REMARK    5  A    between atoms: N_6  and  C_14
REMARK    6  A    between atoms: N_7  and  C_13
REMARK    7  A    between atoms: C_11  and  C_13
REMARK    8  A    between atoms: C_14  and  C_15
REMARK                            x       y       z     vdW  Elec       q    Type
REMARK                         _______ _______ _______ _____ _____    ______ ____
ROOT
ATOM      2  O   UNL     1      -1.851   2.754  23.068  0.00  0.00    -0.371 OA
ATOM      9  C   UNL     1      -3.433   2.989  24.824  0.00  0.00    +0.111 C 
ATOM     10  C   UNL     1      -2.066   2.708  25.423  0.00  0.00    +0.164 C 
ATOM     11  C   UNL     1      -1.154   3.112  24.273  0.00  0.00    +0.164 C 
ATOM     12  C   UNL     1      -3.234   2.525  23.390  0.00  0.00    +0.181 C 
ENDROOT
BRANCH  10   3
ATOM      3  O   UNL     1      -1.814   3.468  26.588  0.00  0.00    -0.388 OA
ATOM     22  H   UNL     1      -2.368   3.119  27.306  0.00  0.00    +0.210 HD
ENDBRANCH  10   3
BRANCH   9   6
ATOM      6  N   UNL     1      -4.517   2.296  25.498  0.00  0.00    -0.303 NA
ATOM     21  H   UNL     1      -5.230   2.973  25.770  0.00  0.00    +0.123 HD
BRANCH   6  14
ATOM     14  C   UNL     1      -5.125   1.298  24.624  0.00  0.00    +0.137 C 
BRANCH  14  15
ATOM      8  N   UNL     1      -4.661  -0.942  23.795  0.00  0.00    -0.259 NA
ATOM     15  C   UNL     1      -4.504  -0.061  24.809  0.00  0.00    +0.055 A 
ATOM     17  C   UNL     1      -3.816  -0.340  25.979  0.00  0.00    +0.024 A 
ATOM     18  C   UNL     1      -3.253  -1.604  26.117  0.00  0.00    +0.003 A 
ATOM     19  C   UNL     1      -4.100  -2.159  23.965  0.00  0.00    +0.111 A 
ATOM     20  C   UNL     1      -3.393  -2.537  25.096  0.00  0.00    +0.020 A 
ENDBRANCH  14  15
ENDBRANCH   6  14
ENDBRANCH   9   6
BRANCH  11  13
ATOM     13  C   UNL     1       0.199   2.422  24.309  0.00  0.00    +0.139 C 
BRANCH  13   7
ATOM      7  N   UNL     1       0.086   1.147  25.043  0.00  0.00    -0.192 NA
ATOM     23  H   UNL     1      -0.418   1.235  25.936  0.00  0.00    +0.148 HD
BRANCH   7   1
ATOM      1  S   UNL     1      -0.169  -0.296  24.170  0.00  0.00    +0.027 S 
ATOM      4  O   UNL     1      -1.403  -0.201  23.412  0.00  0.00    -0.158 OA
ATOM      5  O   UNL     1       0.072  -1.418  25.057  0.00  0.00    -0.158 OA
ATOM     16  C   UNL     1       1.185  -0.226  23.021  0.00  0.00    +0.214 C 
ENDBRANCH   7   1
ENDBRANCH  13   7
ENDBRANCH  11  13
TORSDOF 7
ENDMDL
MODEL 5
REMARK VINA RESULT:      -4.9      2.431      5.352
REMARK  Name = 75536658
REMARK  8 active torsions:
REMARK  status: ('A' for Active; 'I' for Inactive)
REMARK    1  A    between atoms: S_1  and  N_7
REMARK    2  A    between atoms: S_1  and  C_16
REMARK    3  A    between atoms: O_3  and  C_10
REMARK    4  A    between atoms: N_6  and  C_9
REMARK    5  A    between atoms: N_6  and  C_14
REMARK    6  A    between atoms: N_7  and  C_13
REMARK    7  A    between atoms: C_11  and  C_13
REMARK    8  A    between atoms: C_14  and  C_15
REMARK                            x       y       z     vdW  Elec       q    Type
REMARK                         _______ _______ _______ _____ _____    ______ ____
ROOT
ATOM      2  O   UNL     1      -5.426   1.031  25.795  0.00  0.00    -0.371 OA
ATOM      9  C   UNL     1      -4.636   2.642  24.239  0.00  0.00    +0.111 C 
ATOM     10  C   UNL     1      -3.678   1.464  24.261  0.00  0.00    +0.164 C 
ATOM     11  C   UNL     1      -4.567   0.376  24.848  0.00  0.00    +0.164 C 
ATOM     12  C   UNL     1      -5.383   2.448  25.548  0.00  0.00    +0.181 C 
ENDROOT
BRANCH  10   3
ATOM      3  O   UNL     1      -3.204   1.122  22.974  0.00  0.00    -0.388 OA
ATOM     22  H   UNL     1      -3.865   0.551  22.546  0.00  0.00    +0.210 HD
ENDBRANCH  10   3
BRANCH   9   6
ATOM      6  N   UNL     1      -3.971   3.931  24.152  0.00  0.00    -0.303 NA
ATOM     21  H   UNL     1      -4.674   4.666  24.072  0.00  0.00    +0.123 HD
BRANCH   6  14
ATOM     14  C   UNL     1      -3.159   4.183  25.337  0.00  0.00    +0.137 C 
BRANCH  14  15
ATOM      8  N   UNL     1      -1.267   3.369  24.041  0.00  0.00    -0.259 NA
ATOM     15  C   UNL     1      -1.829   3.480  25.265  0.00  0.00    +0.055 A 
ATOM     17  C   UNL     1      -1.255   2.993  26.428  0.00  0.00    +0.024 A 
ATOM     18  C   UNL     1      -0.026   2.350  26.328  0.00  0.00    +0.003 A 
ATOM     19  C   UNL     1      -0.074   2.739  23.982  0.00  0.00    +0.111 A 
ATOM     20  C   UNL     1       0.582   2.217  25.085  0.00  0.00    +0.020 A 
ENDBRANCH  14  15
ENDBRANCH   6  14
ENDBRANCH   9   6
BRANCH  11  13
ATOM     13  C   UNL     1      -3.787  -0.728  25.539  0.00  0.00    +0.139 C 
BRANCH  13   7
ATOM      7  N   UNL     1      -2.363  -0.350  25.625  0.00  0.00    -0.192 NA
ATOM     23  H   UNL     1      -2.090   0.002  26.553  0.00  0.00    +0.148 HD
BRANCH   7   1
ATOM      1  S   UNL     1      -1.201  -1.292  24.804  0.00  0.00    +0.027 S 
ATOM      4  O   UNL     1      -0.205  -1.773  25.742  0.00  0.00    -0.158 OA
ATOM      5  O   UNL     1      -0.806  -0.586  23.600  0.00  0.00    -0.158 OA
ATOM     16  C   UNL     1      -2.197  -2.678  24.306  0.00  0.00    +0.214 C 
ENDBRANCH   7   1
ENDBRANCH  13   7
ENDBRANCH  11  13
TORSDOF 7
ENDMDL
MODEL 6
REMARK VINA RESULT:      -4.2     14.395     16.259
REMARK  Name = 75536658
REMARK  8 active torsions:
REMARK  status: ('A' for Active; 'I' for Inactive)
REMARK    1  A    between atoms: S_1  and  N_7
REMARK    2  A    between atoms: S_1  and  C_16
REMARK    3  A    between atoms: O_3  and  C_10
REMARK    4  A    between atoms: N_6  and  C_9
REMARK    5  A    between atoms: N_6  and  C_14
REMARK    6  A    between atoms: N_7  and  C_13
REMARK    7  A    between atoms: C_11  and  C_13
REMARK    8  A    between atoms: C_14  and  C_15
REMARK                            x       y       z     vdW  Elec       q    Type
REMARK                         _______ _______ _______ _____ _____    ______ ____
ROOT
ATOM      2  O   UNL     1      -4.774 -10.466  17.224  0.00  0.00    -0.371 OA
ATOM      9  C   UNL     1      -5.213 -10.070  14.924  0.00  0.00    +0.111 C 
ATOM     10  C   UNL     1      -6.529 -10.287  15.649  0.00  0.00    +0.164 C 
ATOM     11  C   UNL     1      -6.123  -9.992  17.086  0.00  0.00    +0.164 C 
ATOM     12  C   UNL     1      -4.223 -10.668  15.910  0.00  0.00    +0.181 C 
ENDROOT
BRANCH  10   3
ATOM      3  O   UNL     1      -7.550  -9.419  15.199  0.00  0.00    -0.388 OA
ATOM     22  H   UNL     1      -8.407  -9.852  15.349  0.00  0.00    +0.210 HD
ENDBRANCH  10   3
BRANCH   9   6
ATOM      6  N   UNL     1      -5.158 -10.700  13.615  0.00  0.00    -0.303 NA
ATOM     21  H   UNL     1      -5.469 -11.667  13.696  0.00  0.00    +0.123 HD
BRANCH   6  14
ATOM     14  C   UNL     1      -6.019 -10.006  12.663  0.00  0.00    +0.137 C 
BRANCH  14  15
ATOM      8  N   UNL     1      -6.025  -9.196  10.368  0.00  0.00    -0.259 NA
ATOM     15  C   UNL     1      -5.278  -9.629  11.408  0.00  0.00    +0.055 A 
ATOM     17  C   UNL     1      -3.897  -9.738  11.377  0.00  0.00    +0.024 A 
ATOM     18  C   UNL     1      -3.242  -9.381  10.204  0.00  0.00    +0.003 A 
ATOM     19  C   UNL     1      -5.355  -8.858   9.246  0.00  0.00    +0.111 A 
ATOM     20  C   UNL     1      -3.977  -8.931   9.113  0.00  0.00    +0.020 A 
ENDBRANCH  14  15
ENDBRANCH   6  14
ENDBRANCH   9   6
BRANCH  11  13
ATOM     13  C   UNL     1      -7.014 -10.670  18.113  0.00  0.00    +0.139 C 
BRANCH  13   7
ATOM      7  N   UNL     1      -8.030  -9.715  18.596  0.00  0.00    -0.192 NA
ATOM     23  H   UNL     1      -7.674  -8.754  18.689  0.00  0.00    +0.148 HD
BRANCH   7   1
ATOM      1  S   UNL     1      -9.642  -9.875  18.061  0.00  0.00    +0.027 S 
ATOM      4  O   UNL     1     -10.518 -10.088  19.197  0.00  0.00    -0.158 OA
ATOM      5  O   UNL     1      -9.662 -10.781  16.929  0.00  0.00    -0.158 OA
ATOM     16  C   UNL     1      -9.943  -8.238  17.437  0.00  0.00    +0.214 C 
ENDBRANCH   7   1
ENDBRANCH  13   7
ENDBRANCH  11  13
TORSDOF 7
ENDMDL
MODEL 7
REMARK VINA RESULT:      -4.1      2.975      4.599
REMARK  Name = 75536658
REMARK  8 active torsions:
REMARK  status: ('A' for Active; 'I' for Inactive)
REMARK    1  A    between atoms: S_1  and  N_7
REMARK    2  A    between atoms: S_1  and  C_16
REMARK    3  A    between atoms: O_3  and  C_10
REMARK    4  A    between atoms: N_6  and  C_9
REMARK    5  A    between atoms: N_6  and  C_14
REMARK    6  A    between atoms: N_7  and  C_13
REMARK    7  A    between atoms: C_11  and  C_13
REMARK    8  A    between atoms: C_14  and  C_15
REMARK                            x       y       z     vdW  Elec       q    Type
REMARK                         _______ _______ _______ _____ _____    ______ ____
ROOT
ATOM      2  O   UNL     1      -0.769   3.256  25.489  0.00  0.00    -0.371 OA
ATOM      9  C   UNL     1      -0.009   1.582  23.986  0.00  0.00    +0.111 C 
ATOM     10  C   UNL     1      -1.499   1.795  23.780  0.00  0.00    +0.164 C 
ATOM     11  C   UNL     1      -1.683   3.180  24.383  0.00  0.00    +0.164 C 
ATOM     12  C   UNL     1       0.194   2.196  25.362  0.00  0.00    +0.181 C 
ENDROOT
BRANCH  10   3
ATOM      3  O   UNL     1      -1.871   1.759  22.416  0.00  0.00    -0.388 OA
ATOM     22  H   UNL     1      -1.480   0.965  22.013  0.00  0.00    +0.210 HD
ENDBRANCH  10   3
BRANCH   9   6
ATOM      6  N   UNL     1       0.394   0.188  23.922  0.00  0.00    -0.303 NA
ATOM     21  H   UNL     1      -0.438  -0.401  23.902  0.00  0.00    +0.123 HD
BRANCH   6  14
ATOM     14  C   UNL     1       1.187  -0.075  22.726  0.00  0.00    +0.137 C 
BRANCH  14  15
ATOM      8  N   UNL     1       3.134  -1.281  23.546  0.00  0.00    -0.259 NA
ATOM     15  C   UNL     1       2.660  -0.125  23.030  0.00  0.00    +0.055 A 
ATOM     17  C   UNL     1       3.445   0.987  22.772  0.00  0.00    +0.024 A 
ATOM     18  C   UNL     1       4.802   0.908  23.062  0.00  0.00    +0.003 A 
ATOM     19  C   UNL     1       4.457  -1.321  23.816  0.00  0.00    +0.111 A 
ATOM     20  C   UNL     1       5.326  -0.265  23.594  0.00  0.00    +0.020 A 
ENDBRANCH  14  15
ENDBRANCH   6  14
ENDBRANCH   9   6
BRANCH  11  13
ATOM     13  C   UNL     1      -3.099   3.440  24.867  0.00  0.00    +0.139 C 
BRANCH  13   7
ATOM      7  N   UNL     1      -4.038   2.558  24.148  0.00  0.00    -0.192 NA
ATOM     23  H   UNL     1      -3.609   2.069  23.352  0.00  0.00    +0.148 HD
BRANCH   7   1
ATOM      1  S   UNL     1      -5.200   1.680  25.037  0.00  0.00    +0.027 S 
ATOM      4  O   UNL     1      -4.617   0.444  25.522  0.00  0.00    -0.158 OA
ATOM      5  O   UNL     1      -6.441   1.671  24.286  0.00  0.00    -0.158 OA
ATOM     16  C   UNL     1      -5.430   2.761  26.430  0.00  0.00    +0.214 C 
ENDBRANCH   7   1
ENDBRANCH  13   7
ENDBRANCH  11  13
TORSDOF 7
ENDMDL
MODEL 8
REMARK VINA RESULT:      -3.8      1.890      4.007
REMARK  Name = 75536658
REMARK  8 active torsions:
REMARK  status: ('A' for Active; 'I' for Inactive)
REMARK    1  A    between atoms: S_1  and  N_7
REMARK    2  A    between atoms: S_1  and  C_16
REMARK    3  A    between atoms: O_3  and  C_10
REMARK    4  A    between atoms: N_6  and  C_9
REMARK    5  A    between atoms: N_6  and  C_14
REMARK    6  A    between atoms: N_7  and  C_13
REMARK    7  A    between atoms: C_11  and  C_13
REMARK    8  A    between atoms: C_14  and  C_15
REMARK                            x       y       z     vdW  Elec       q    Type
REMARK                         _______ _______ _______ _____ _____    ______ ____
ROOT
ATOM      2  O   UNL     1      -3.879   3.105  23.447  0.00  0.00    -0.371 OA
ATOM      9  C   UNL     1      -5.147   1.459  24.599  0.00  0.00    +0.111 C 
ATOM     10  C   UNL     1      -4.705   2.525  25.586  0.00  0.00    +0.164 C 
ATOM     11  C   UNL     1      -4.410   3.687  24.649  0.00  0.00    +0.164 C 
ATOM     12  C   UNL     1      -4.185   1.699  23.447  0.00  0.00    +0.181 C 
ENDROOT
BRANCH  10   3
ATOM      3  O   UNL     1      -5.710   2.847  26.527  0.00  0.00    -0.388 OA
ATOM     22  H   UNL     1      -5.380   3.565  27.093  0.00  0.00    +0.210 HD
ENDBRANCH  10   3
BRANCH   9   6
ATOM      6  N   UNL     1      -5.071   0.108  25.128  0.00  0.00    -0.303 NA
ATOM     21  H   UNL     1      -6.015  -0.238  25.300  0.00  0.00    +0.123 HD
BRANCH   6  14
ATOM     14  C   UNL     1      -4.406  -0.788  24.186  0.00  0.00    +0.137 C 
BRANCH  14  15
ATOM      8  N   UNL     1      -2.493  -2.292  24.171  0.00  0.00    -0.259 NA
ATOM     15  C   UNL     1      -3.008  -1.129  24.630  0.00  0.00    +0.055 A 
ATOM     17  C   UNL     1      -2.329  -0.257  25.466  0.00  0.00    +0.024 A 
ATOM     18  C   UNL     1      -1.040  -0.601  25.855  0.00  0.00    +0.003 A 
ATOM     19  C   UNL     1      -1.238  -2.592  24.570  0.00  0.00    +0.111 A 
ATOM     20  C   UNL     1      -0.476  -1.789  25.403  0.00  0.00    +0.020 A 
ENDBRANCH  14  15
ENDBRANCH   6  14
ENDBRANCH   9   6
BRANCH  11  13
ATOM     13  C   UNL     1      -3.414   4.681  25.221  0.00  0.00    +0.139 C 
BRANCH  13   7
ATOM      7  N   UNL     1      -2.317   3.955  25.889  0.00  0.00    -0.192 NA
ATOM     23  H   UNL     1      -2.643   3.176  26.477  0.00  0.00    +0.148 HD
BRANCH   7   1
ATOM      1  S   UNL     1      -0.852   3.708  25.051  0.00  0.00    +0.027 S 
ATOM      4  O   UNL     1      -0.207   4.983  24.800  0.00  0.00    -0.158 OA
ATOM      5  O   UNL     1      -1.094   2.774  23.969  0.00  0.00    -0.158 OA
ATOM     16  C   UNL     1       0.093   2.853  26.290  0.00  0.00    +0.214 C 
ENDBRANCH   7   1
ENDBRANCH  13   7
ENDBRANCH  11  13
TORSDOF 7
ENDMDL
MODEL 9
REMARK VINA RESULT:      -3.7      2.378      5.104
REMARK  Name = 75536658
REMARK  8 active torsions:
REMARK  status: ('A' for Active; 'I' for Inactive)
REMARK    1  A    between atoms: S_1  and  N_7
REMARK    2  A    between atoms: S_1  and  C_16
REMARK    3  A    between atoms: O_3  and  C_10
REMARK    4  A    between atoms: N_6  and  C_9
REMARK    5  A    between atoms: N_6  and  C_14
REMARK    6  A    between atoms: N_7  and  C_13
REMARK    7  A    between atoms: C_11  and  C_13
REMARK    8  A    between atoms: C_14  and  C_15
REMARK                            x       y       z     vdW  Elec       q    Type
REMARK                         _______ _______ _______ _____ _____    ______ ____
ROOT
ATOM      2  O   UNL     1      -1.881  -2.334  25.042  0.00  0.00    -0.371 OA
ATOM      9  C   UNL     1      -3.543  -1.097  23.880  0.00  0.00    +0.111 C 
ATOM     10  C   UNL     1      -2.381  -0.176  24.211  0.00  0.00    +0.164 C 
ATOM     11  C   UNL     1      -1.264  -1.186  24.437  0.00  0.00    +0.164 C 
ATOM     12  C   UNL     1      -3.304  -2.243  24.849  0.00  0.00    +0.181 C 
ENDROOT
BRANCH  10   3
ATOM      3  O   UNL     1      -2.079   0.720  23.160  0.00  0.00    -0.388 OA
ATOM     22  H   UNL     1      -2.913   1.083  22.818  0.00  0.00    +0.210 HD
ENDBRANCH  10   3
BRANCH   9   6
ATOM      6  N   UNL     1      -4.845  -0.474  24.049  0.00  0.00    -0.303 NA
ATOM     21  H   UNL     1      -5.563  -1.198  24.061  0.00  0.00    +0.123 HD
BRANCH   6  14
ATOM     14  C   UNL     1      -4.910   0.275  25.300  0.00  0.00    +0.137 C 
BRANCH  14  15
ATOM      8  N   UNL     1      -4.305   2.185  23.919  0.00  0.00    -0.259 NA
ATOM     15  C   UNL     1      -4.884   1.762  25.065  0.00  0.00    +0.055 A 
ATOM     17  C   UNL     1      -5.443   2.608  26.009  0.00  0.00    +0.024 A 
ATOM     18  C   UNL     1      -5.405   3.975  25.761  0.00  0.00    +0.003 A 
ATOM     19  C   UNL     1      -4.286   3.519  23.713  0.00  0.00    +0.111 A 
ATOM     20  C   UNL     1      -4.817   4.448  24.594  0.00  0.00    +0.020 A 
ENDBRANCH  14  15
ENDBRANCH   6  14
ENDBRANCH   9   6
BRANCH  11  13
ATOM     13  C   UNL     1      -0.157  -0.664  25.336  0.00  0.00    +0.139 C 
BRANCH  13   7
ATOM      7  N   UNL     1      -0.626   0.536  26.055  0.00  0.00    -0.192 NA
ATOM     23  H   UNL     1      -0.788   0.372  27.058  0.00  0.00    +0.148 HD
BRANCH   7   1
ATOM      1  S   UNL     1       0.010   2.062  25.632  0.00  0.00    +0.027 S 
ATOM      4  O   UNL     1       0.446   2.046  24.249  0.00  0.00    -0.158 OA
ATOM      5  O   UNL     1       0.906   2.494  26.687  0.00  0.00    -0.158 OA
ATOM     16  C   UNL     1      -1.454   3.065  25.733  0.00  0.00    +0.214 C 
ENDBRANCH   7   1
ENDBRANCH  13   7
ENDBRANCH  11  13
TORSDOF 7
ENDMDL
MODEL 10
REMARK VINA RESULT:      -2.9      2.858      6.005
REMARK  Name = 75536658
REMARK  8 active torsions:
REMARK  status: ('A' for Active; 'I' for Inactive)
REMARK    1  A    between atoms: S_1  and  N_7
REMARK    2  A    between atoms: S_1  and  C_16
REMARK    3  A    between atoms: O_3  and  C_10
REMARK    4  A    between atoms: N_6  and  C_9
REMARK    5  A    between atoms: N_6  and  C_14
REMARK    6  A    between atoms: N_7  and  C_13
REMARK    7  A    between atoms: C_11  and  C_13
REMARK    8  A    between atoms: C_14  and  C_15
REMARK                            x       y       z     vdW  Elec       q    Type
REMARK                         _______ _______ _______ _____ _____    ______ ____
ROOT
ATOM      2  O   UNL     1      -2.767  -2.597  25.106  0.00  0.00    -0.371 OA
ATOM      9  C   UNL     1      -3.886  -0.543  24.695  0.00  0.00    +0.111 C 
ATOM     10  C   UNL     1      -2.404  -0.365  24.413  0.00  0.00    +0.164 C 
ATOM     11  C   UNL     1      -1.971  -1.810  24.205  0.00  0.00    +0.164 C 
ATOM     12  C   UNL     1      -3.881  -1.801  25.548  0.00  0.00    +0.181 C 
ENDROOT
BRANCH  10   3
ATOM      3  O   UNL     1      -2.158   0.430  23.269  0.00  0.00    -0.388 OA
ATOM     22  H   UNL     1      -2.154  -0.150  22.489  0.00  0.00    +0.210 HD
ENDBRANCH  10   3
BRANCH   9   6
ATOM      6  N   UNL     1      -4.491   0.595  25.368  0.00  0.00    -0.303 NA
ATOM     21  H   UNL     1      -3.913   0.857  26.166  0.00  0.00    +0.123 HD
BRANCH   6  14
ATOM     14  C   UNL     1      -4.599   1.739  24.469  0.00  0.00    +0.137 C 
BRANCH  14  15
ATOM      8  N   UNL     1      -2.568   3.015  24.063  0.00  0.00    -0.259 NA
ATOM     15  C   UNL     1      -3.652   2.845  24.852  0.00  0.00    +0.055 A 
ATOM     17  C   UNL     1      -3.929   3.619  25.967  0.00  0.00    +0.024 A 
ATOM     18  C   UNL     1      -3.036   4.633  26.293  0.00  0.00    +0.003 A 
ATOM     19  C   UNL     1      -1.723   4.010  24.411  0.00  0.00    +0.111 A 
ATOM     20  C   UNL     1      -1.909   4.839  25.506  0.00  0.00    +0.020 A 
ENDBRANCH  14  15
ENDBRANCH   6  14
ENDBRANCH   9   6
BRANCH  11  13
ATOM     13  C   UNL     1      -0.497  -2.040  24.486  0.00  0.00    +0.139 C 
BRANCH  13   7
ATOM      7  N   UNL     1       0.185  -0.742  24.655  0.00  0.00    -0.192 NA
ATOM     23  H   UNL     1       0.599  -0.619  25.589  0.00  0.00    +0.148 HD
BRANCH   7   1
ATOM      1  S   UNL     1       1.062  -0.087  23.346  0.00  0.00    +0.027 S 
ATOM      4  O   UNL     1       0.308  -0.250  22.118  0.00  0.00    -0.158 OA
ATOM      5  O   UNL     1       2.435  -0.544  23.440  0.00  0.00    -0.158 OA
ATOM     16  C   UNL     1       1.045   1.638  23.773  0.00  0.00    +0.214 C 
ENDBRANCH   7   1
ENDBRANCH  13   7
ENDBRANCH  11  13
TORSDOF 7
ENDMDL
