MODEL 1
REMARK VINA RESULT:       3.8      0.000      0.000
REMARK  Name = 25313223
REMARK  10 active torsions:
REMARK  status: ('A' for Active; 'I' for Inactive)
REMARK    1  A    between atoms: O_2  and  C_24
REMARK    2  A    between atoms: O_4  and  C_26
REMARK    3  A    between atoms: O_4  and  C_31
REMARK    4  A    between atoms: N_6  and  C_19
REMARK    5  A    between atoms: N_7  and  C_25
REMARK    6  A    between atoms: C_8  and  C_16
REMARK    7  A    between atoms: C_9  and  C_18
REMARK    8  A    between atoms: C_10  and  C_17
REMARK    9  A    between atoms: C_16  and  C_19
REMARK   10  A    between atoms: C_18  and  C_24
REMARK                            x       y       z     vdW  Elec       q    Type
REMARK                         _______ _______ _______ _____ _____    ______ ____
ROOT
ATOM      1  O   UNL     1      -5.001   4.745  25.041  0.00  0.00    -0.275 OA
ATOM      5  N   UNL     1      -4.013   2.665  25.390  0.00  0.00    -0.301 N 
ATOM      8  C   UNL     1      -3.071   0.531  24.539  0.00  0.00    +0.011 C 
ATOM      9  C   UNL     1      -4.367  -0.182  25.003  0.00  0.00    +0.006 C 
ATOM     11  C   UNL     1      -2.834   1.790  25.390  0.00  0.00    +0.111 C 
ATOM     12  C   UNL     1      -5.564   0.784  25.033  0.00  0.00    +0.023 C 
ATOM     15  C   UNL     1      -5.248   2.034  25.849  0.00  0.00    +0.108 C 
ATOM     17  C   UNL     1      -4.015   4.013  25.016  0.00  0.00    +0.219 C 
ENDROOT
BRANCH  17  10
ATOM     10  C   UNL     1      -2.720   4.599  24.552  0.00  0.00    +0.075 C 
ATOM     13  C   UNL     1      -1.479   4.358  25.360  0.00  0.00    +0.013 C 
ATOM     14  C   UNL     1      -2.105   5.721  25.334  0.00  0.00    +0.013 C 
ENDBRANCH  17  10
BRANCH   8  16
ATOM     16  C   UNL     1      -3.054   0.886  23.047  0.00  0.00    +0.020 C 
BRANCH  16  19
ATOM     19  C   UNL     1      -1.794   1.660  22.687  0.00  0.00    +0.085 C 
BRANCH  19   6
ATOM      6  N   UNL     1      -0.618   0.961  23.207  0.00  0.00    -0.299 NA
ATOM      7  N   UNL     1       2.143   0.242  23.331  0.00  0.00    -0.325 N 
ATOM     20  C   UNL     1       0.380   1.924  23.690  0.00  0.00    +0.103 C 
ATOM     21  C   UNL     1      -0.027   0.107  22.170  0.00  0.00    +0.103 C 
ATOM     22  C   UNL     1       1.592   1.205  24.288  0.00  0.00    +0.120 C 
ATOM     23  C   UNL     1       1.171  -0.672  22.717  0.00  0.00    +0.120 C 
BRANCH   7  25
ATOM     25  C   UNL     1       3.463  -0.202  23.473  0.00  0.00    +0.072 A 
ATOM     26  C   UNL     1       4.530   0.683  23.324  0.00  0.00    +0.141 A 
ATOM     27  C   UNL     1       3.705  -1.544  23.766  0.00  0.00    +0.027 A 
ATOM     28  C   UNL     1       5.840   0.227  23.469  0.00  0.00    +0.047 A 
ATOM     29  C   UNL     1       5.015  -2.001  23.912  0.00  0.00    +0.002 A 
ATOM     30  C   UNL     1       6.083  -1.115  23.763  0.00  0.00    +0.004 A 
BRANCH  26   4
ATOM      4  O   UNL     1       4.315   1.998  23.038  0.00  0.00    -0.493 OA
ATOM     31  C   UNL     1       3.914   2.313  21.706  0.00  0.00    +0.277 C 
ENDBRANCH  26   4
ENDBRANCH   7  25
ENDBRANCH  19   6
ENDBRANCH  16  19
ENDBRANCH   8  16
BRANCH   9  18
ATOM     18  C   UNL     1      -4.698  -1.424  24.176  0.00  0.00    +0.124 C 
BRANCH  18  24
ATOM      3  O   UNL     1      -3.227  -3.279  23.594  0.00  0.00    -0.251 OA
ATOM     24  C   UNL     1      -3.721  -2.538  24.432  0.00  0.00    +0.305 C 
BRANCH  24   2
ATOM      2  O   UNL     1      -3.452  -2.615  25.760  0.00  0.00    -0.481 OA
ATOM     32  H   UNL     1      -2.897  -1.865  26.064  0.00  0.00    +0.295 HD
ENDBRANCH  24   2
ENDBRANCH  18  24
ENDBRANCH   9  18
TORSDOF 9
ENDMDL
MODEL 2
REMARK VINA RESULT:       4.1      1.273      4.100
REMARK  Name = 25313223
REMARK  10 active torsions:
REMARK  status: ('A' for Active; 'I' for Inactive)
REMARK    1  A    between atoms: O_2  and  C_24
REMARK    2  A    between atoms: O_4  and  C_26
REMARK    3  A    between atoms: O_4  and  C_31
REMARK    4  A    between atoms: N_6  and  C_19
REMARK    5  A    between atoms: N_7  and  C_25
REMARK    6  A    between atoms: C_8  and  C_16
REMARK    7  A    between atoms: C_9  and  C_18
REMARK    8  A    between atoms: C_10  and  C_17
REMARK    9  A    between atoms: C_16  and  C_19
REMARK   10  A    between atoms: C_18  and  C_24
REMARK                            x       y       z     vdW  Elec       q    Type
REMARK                         _______ _______ _______ _____ _____    ______ ____
ROOT
ATOM      1  O   UNL     1      -3.994  -1.164  26.466  0.00  0.00    -0.275 OA
ATOM      5  N   UNL     1      -4.489   0.575  24.999  0.00  0.00    -0.301 N 
ATOM      8  C   UNL     1      -3.794   2.483  23.569  0.00  0.00    +0.011 C 
ATOM      9  C   UNL     1      -4.348   3.446  24.650  0.00  0.00    +0.006 C 
ATOM     11  C   UNL     1      -4.531   1.135  23.643  0.00  0.00    +0.111 C 
ATOM     12  C   UNL     1      -4.329   2.800  26.046  0.00  0.00    +0.023 C 
ATOM     15  C   UNL     1      -5.030   1.445  26.041  0.00  0.00    +0.108 C 
ATOM     17  C   UNL     1      -4.004  -0.694  25.332  0.00  0.00    +0.219 C 
ENDROOT
BRANCH  17  10
ATOM     10  C   UNL     1      -3.461  -1.534  24.221  0.00  0.00    +0.075 C 
ATOM     13  C   UNL     1      -3.564  -3.028  24.317  0.00  0.00    +0.013 C 
ATOM     14  C   UNL     1      -2.230  -2.356  24.463  0.00  0.00    +0.013 C 
ENDBRANCH  17  10
BRANCH   8  16
ATOM     16  C   UNL     1      -2.277   2.265  23.647  0.00  0.00    +0.020 C 
BRANCH  16  19
ATOM     19  C   UNL     1      -1.862   1.047  22.835  0.00  0.00    +0.085 C 
BRANCH  19   6
ATOM      6  N   UNL     1      -0.404   1.000  22.721  0.00  0.00    -0.299 NA
ATOM      7  N   UNL     1       2.224   0.023  23.269  0.00  0.00    -0.325 N 
ATOM     20  C   UNL     1       0.029  -0.302  22.197  0.00  0.00    +0.103 C 
ATOM     21  C   UNL     1       0.222   1.247  24.025  0.00  0.00    +0.103 C 
ATOM     22  C   UNL     1       1.549  -0.344  22.020  0.00  0.00    +0.120 C 
ATOM     23  C   UNL     1       1.748   1.256  23.909  0.00  0.00    +0.120 C 
BRANCH   7  25
ATOM     25  C   UNL     1       3.556  -0.354  23.476  0.00  0.00    +0.072 A 
ATOM     26  C   UNL     1       4.583   0.583  23.370  0.00  0.00    +0.141 A 
ATOM     27  C   UNL     1       3.850  -1.680  23.791  0.00  0.00    +0.027 A 
ATOM     28  C   UNL     1       5.906   0.194  23.580  0.00  0.00    +0.047 A 
ATOM     29  C   UNL     1       5.173  -2.070  24.001  0.00  0.00    +0.002 A 
ATOM     30  C   UNL     1       6.201  -1.133  23.895  0.00  0.00    +0.004 A 
BRANCH  26   4
ATOM      4  O   UNL     1       4.316   1.884  23.063  0.00  0.00    -0.493 OA
ATOM     31  C   UNL     1       3.971   2.172  21.709  0.00  0.00    +0.277 C 
ENDBRANCH  26   4
ENDBRANCH   7  25
ENDBRANCH  19   6
ENDBRANCH  16  19
ENDBRANCH   8  16
BRANCH   9  18
ATOM     18  C   UNL     1      -3.636   4.798  24.672  0.00  0.00    +0.124 C 
BRANCH  18  24
ATOM      3  O   UNL     1      -2.134   4.039  26.437  0.00  0.00    -0.251 OA
ATOM     24  C   UNL     1      -2.355   4.739  25.459  0.00  0.00    +0.305 C 
BRANCH  24   2
ATOM      2  O   UNL     1      -1.448   5.593  24.921  0.00  0.00    -0.481 OA
ATOM     32  H   UNL     1      -0.584   5.546  25.383  0.00  0.00    +0.295 HD
ENDBRANCH  24   2
ENDBRANCH  18  24
ENDBRANCH   9  18
TORSDOF 9
ENDMDL
MODEL 3
REMARK VINA RESULT:       4.1      1.890      3.488
REMARK  Name = 25313223
REMARK  10 active torsions:
REMARK  status: ('A' for Active; 'I' for Inactive)
REMARK    1  A    between atoms: O_2  and  C_24
REMARK    2  A    between atoms: O_4  and  C_26
REMARK    3  A    between atoms: O_4  and  C_31
REMARK    4  A    between atoms: N_6  and  C_19
REMARK    5  A    between atoms: N_7  and  C_25
REMARK    6  A    between atoms: C_8  and  C_16
REMARK    7  A    between atoms: C_9  and  C_18
REMARK    8  A    between atoms: C_10  and  C_17
REMARK    9  A    between atoms: C_16  and  C_19
REMARK   10  A    between atoms: C_18  and  C_24
REMARK                            x       y       z     vdW  Elec       q    Type
REMARK                         _______ _______ _______ _____ _____    ______ ____
ROOT
ATOM      1  O   UNL     1      -5.571   4.011  26.416  0.00  0.00    -0.275 OA
ATOM      5  N   UNL     1      -3.945   3.598  24.802  0.00  0.00    -0.301 N 
ATOM      8  C   UNL     1      -2.140   2.191  23.837  0.00  0.00    +0.011 C 
ATOM      9  C   UNL     1      -1.106   3.200  24.397  0.00  0.00    +0.006 C 
ATOM     11  C   UNL     1      -3.484   2.900  23.596  0.00  0.00    +0.111 C 
ATOM     12  C   UNL     1      -1.649   3.943  25.629  0.00  0.00    +0.023 C 
ATOM     15  C   UNL     1      -3.005   4.580  25.341  0.00  0.00    +0.108 C 
ATOM     17  C   UNL     1      -5.184   3.405  25.421  0.00  0.00    +0.219 C 
ENDROOT
BRANCH  17  10
ATOM     10  C   UNL     1      -6.098   2.385  24.823  0.00  0.00    +0.075 C 
ATOM     13  C   UNL     1      -6.615   1.272  25.687  0.00  0.00    +0.013 C 
ATOM     14  C   UNL     1      -5.598   0.985  24.622  0.00  0.00    +0.013 C 
ENDBRANCH  17  10
BRANCH   8  16
ATOM     16  C   UNL     1      -2.343   0.952  24.720  0.00  0.00    +0.020 C 
BRANCH  16  19
ATOM     19  C   UNL     1      -2.379  -0.315  23.877  0.00  0.00    +0.085 C 
BRANCH  19   6
ATOM      6  N   UNL     1      -1.014  -0.768  23.606  0.00  0.00    -0.299 NA
ATOM      7  N   UNL     1       1.838  -0.640  23.678  0.00  0.00    -0.325 N 
ATOM     20  C   UNL     1      -0.291  -1.001  24.863  0.00  0.00    +0.103 C 
ATOM     21  C   UNL     1      -0.295   0.218  22.792  0.00  0.00    +0.103 C 
ATOM     22  C   UNL     1       1.120  -1.530  24.595  0.00  0.00    +0.120 C 
ATOM     23  C   UNL     1       1.115  -0.270  22.454  0.00  0.00    +0.120 C 
BRANCH   7  25
ATOM     25  C   UNL     1       3.237  -0.673  23.630  0.00  0.00    +0.072 A 
ATOM     26  C   UNL     1       3.964   0.476  23.324  0.00  0.00    +0.141 A 
ATOM     27  C   UNL     1       3.902  -1.871  23.891  0.00  0.00    +0.027 A 
ATOM     28  C   UNL     1       5.358   0.429  23.280  0.00  0.00    +0.047 A 
ATOM     29  C   UNL     1       5.295  -1.919  23.848  0.00  0.00    +0.002 A 
ATOM     30  C   UNL     1       6.023  -0.769  23.542  0.00  0.00    +0.004 A 
BRANCH  26   4
ATOM      4  O   UNL     1       3.334   1.656  23.066  0.00  0.00    -0.493 OA
ATOM     31  C   UNL     1       3.908   2.491  22.062  0.00  0.00    +0.277 C 
ENDBRANCH  26   4
ENDBRANCH   7  25
ENDBRANCH  19   6
ENDBRANCH  16  19
ENDBRANCH   8  16
BRANCH   9  18
ATOM     18  C   UNL     1       0.249   2.563  24.705  0.00  0.00    +0.124 C 
BRANCH  18  24
ATOM      3  O   UNL     1       1.140   3.002  26.932  0.00  0.00    -0.251 OA
ATOM     24  C   UNL     1       0.436   2.343  26.182  0.00  0.00    +0.305 C 
BRANCH  24   2
ATOM      2  O   UNL     1      -0.307   1.280  26.583  0.00  0.00    -0.481 OA
ATOM     32  H   UNL     1       0.079   0.430  26.280  0.00  0.00    +0.295 HD
ENDBRANCH  24   2
ENDBRANCH  18  24
ENDBRANCH   9  18
TORSDOF 9
ENDMDL
MODEL 4
REMARK VINA RESULT:       4.4      1.051      1.873
REMARK  Name = 25313223
REMARK  10 active torsions:
REMARK  status: ('A' for Active; 'I' for Inactive)
REMARK    1  A    between atoms: O_2  and  C_24
REMARK    2  A    between atoms: O_4  and  C_26
REMARK    3  A    between atoms: O_4  and  C_31
REMARK    4  A    between atoms: N_6  and  C_19
REMARK    5  A    between atoms: N_7  and  C_25
REMARK    6  A    between atoms: C_8  and  C_16
REMARK    7  A    between atoms: C_9  and  C_18
REMARK    8  A    between atoms: C_10  and  C_17
REMARK    9  A    between atoms: C_16  and  C_19
REMARK   10  A    between atoms: C_18  and  C_24
REMARK                            x       y       z     vdW  Elec       q    Type
REMARK                         _______ _______ _______ _____ _____    ______ ____
ROOT
ATOM      1  O   UNL     1      -5.022   4.441  24.944  0.00  0.00    -0.275 OA
ATOM      5  N   UNL     1      -4.040   2.376  25.383  0.00  0.00    -0.301 N 
ATOM      8  C   UNL     1      -2.986   0.259  24.625  0.00  0.00    +0.011 C 
ATOM      9  C   UNL     1      -4.310  -0.475  24.957  0.00  0.00    +0.006 C 
ATOM     11  C   UNL     1      -2.854   1.520  25.498  0.00  0.00    +0.111 C 
ATOM     12  C   UNL     1      -5.519   0.472  24.872  0.00  0.00    +0.023 C 
ATOM     15  C   UNL     1      -5.305   1.724  25.718  0.00  0.00    +0.108 C 
ATOM     17  C   UNL     1      -4.028   3.725  25.014  0.00  0.00    +0.219 C 
ENDROOT
BRANCH  17  10
ATOM     10  C   UNL     1      -2.703   4.332  24.681  0.00  0.00    +0.075 C 
ATOM     13  C   UNL     1      -1.606   4.300  25.705  0.00  0.00    +0.013 C 
ATOM     14  C   UNL     1      -2.285   5.596  25.372  0.00  0.00    +0.013 C 
ENDBRANCH  17  10
BRANCH   8  16
ATOM     16  C   UNL     1      -2.829   0.621  23.142  0.00  0.00    +0.020 C 
BRANCH  16  19
ATOM     19  C   UNL     1      -2.105   1.950  22.981  0.00  0.00    +0.085 C 
BRANCH  19   6
ATOM      6  N   UNL     1      -0.678   1.714  22.762  0.00  0.00    -0.299 NA
ATOM      7  N   UNL     1       1.870   0.515  23.241  0.00  0.00    -0.325 N 
ATOM     20  C   UNL     1      -0.438   0.311  22.403  0.00  0.00    +0.103 C 
ATOM     21  C   UNL     1       0.091   2.061  23.963  0.00  0.00    +0.103 C 
ATOM     22  C   UNL     1       1.046   0.063  22.117  0.00  0.00    +0.120 C 
ATOM     23  C   UNL     1       1.591   1.873  23.728  0.00  0.00    +0.120 C 
BRANCH   7  25
ATOM     25  C   UNL     1       3.167   0.014  23.397  0.00  0.00    +0.072 A 
ATOM     26  C   UNL     1       3.376  -1.312  23.773  0.00  0.00    +0.141 A 
ATOM     27  C   UNL     1       4.256   0.856  23.173  0.00  0.00    +0.027 A 
ATOM     28  C   UNL     1       4.675  -1.797  23.925  0.00  0.00    +0.047 A 
ATOM     29  C   UNL     1       5.555   0.371  23.324  0.00  0.00    +0.002 A 
ATOM     30  C   UNL     1       5.765  -0.956  23.700  0.00  0.00    +0.004 A 
BRANCH  26   4
ATOM      4  O   UNL     1       2.325  -2.150  23.998  0.00  0.00    -0.493 OA
ATOM     31  C   UNL     1       1.386  -1.759  24.997  0.00  0.00    +0.277 C 
ENDBRANCH  26   4
ENDBRANCH   7  25
ENDBRANCH  19   6
ENDBRANCH  16  19
ENDBRANCH   8  16
BRANCH   9  18
ATOM     18  C   UNL     1      -4.538  -1.719  24.099  0.00  0.00    +0.124 C 
BRANCH  18  24
ATOM      3  O   UNL     1      -2.950  -3.498  23.592  0.00  0.00    -0.251 OA
ATOM     24  C   UNL     1      -3.534  -2.797  24.405  0.00  0.00    +0.305 C 
BRANCH  24   2
ATOM      2  O   UNL     1      -3.358  -2.890  25.747  0.00  0.00    -0.481 OA
ATOM     32  H   UNL     1      -4.023  -2.363  26.240  0.00  0.00    +0.295 HD
ENDBRANCH  24   2
ENDBRANCH  18  24
ENDBRANCH   9  18
TORSDOF 9
ENDMDL
MODEL 5
REMARK VINA RESULT:       4.5      1.895      4.603
REMARK  Name = 25313223
REMARK  10 active torsions:
REMARK  status: ('A' for Active; 'I' for Inactive)
REMARK    1  A    between atoms: O_2  and  C_24
REMARK    2  A    between atoms: O_4  and  C_26
REMARK    3  A    between atoms: O_4  and  C_31
REMARK    4  A    between atoms: N_6  and  C_19
REMARK    5  A    between atoms: N_7  and  C_25
REMARK    6  A    between atoms: C_8  and  C_16
REMARK    7  A    between atoms: C_9  and  C_18
REMARK    8  A    between atoms: C_10  and  C_17
REMARK    9  A    between atoms: C_16  and  C_19
REMARK   10  A    between atoms: C_18  and  C_24
REMARK                            x       y       z     vdW  Elec       q    Type
REMARK                         _______ _______ _______ _____ _____    ______ ____
ROOT
ATOM      1  O   UNL     1      -3.570  -2.347  25.250  0.00  0.00    -0.275 OA
ATOM      5  N   UNL     1      -4.002  -0.211  24.430  0.00  0.00    -0.301 N 
ATOM      8  C   UNL     1      -4.006   2.260  24.680  0.00  0.00    +0.011 C 
ATOM      9  C   UNL     1      -5.540   2.199  24.888  0.00  0.00    +0.006 C 
ATOM     11  C   UNL     1      -3.543   1.054  23.844  0.00  0.00    +0.111 C 
ATOM     12  C   UNL     1      -5.981   0.839  25.457  0.00  0.00    +0.023 C 
ATOM     15  C   UNL     1      -5.449  -0.315  24.613  0.00  0.00    +0.108 C 
ATOM     17  C   UNL     1      -3.176  -1.282  24.783  0.00  0.00    +0.219 C 
ENDROOT
BRANCH  17  10
ATOM     10  C   UNL     1      -1.705  -1.112  24.574  0.00  0.00    +0.075 C 
ATOM     13  C   UNL     1      -0.821  -2.324  24.584  0.00  0.00    +0.013 C 
ATOM     14  C   UNL     1      -0.772  -1.349  25.724  0.00  0.00    +0.013 C 
ENDBRANCH  17  10
BRANCH   8  16
ATOM     16  C   UNL     1      -3.203   2.341  25.986  0.00  0.00    +0.020 C 
BRANCH  16  19
ATOM     19  C   UNL     1      -2.369   3.613  26.031  0.00  0.00    +0.085 C 
BRANCH  19   6
ATOM      6  N   UNL     1      -1.030   3.347  25.505  0.00  0.00    -0.299 NA
ATOM      7  N   UNL     1       0.966   1.890  24.072  0.00  0.00    -0.325 N 
ATOM     20  C   UNL     1      -1.054   3.300  24.037  0.00  0.00    +0.103 C 
ATOM     21  C   UNL     1      -0.509   2.082  26.037  0.00  0.00    +0.103 C 
ATOM     22  C   UNL     1       0.351   3.078  23.471  0.00  0.00    +0.120 C 
ATOM     23  C   UNL     1       0.913   1.820  25.538  0.00  0.00    +0.120 C 
BRANCH   7  25
ATOM     25  C   UNL     1       2.030   1.255  23.422  0.00  0.00    +0.072 A 
ATOM     26  C   UNL     1       1.797   0.189  22.554  0.00  0.00    +0.141 A 
ATOM     27  C   UNL     1       3.333   1.698  23.649  0.00  0.00    +0.027 A 
ATOM     28  C   UNL     1       2.867  -0.435  21.913  0.00  0.00    +0.047 A 
ATOM     29  C   UNL     1       4.404   1.075  23.008  0.00  0.00    +0.002 A 
ATOM     30  C   UNL     1       4.171   0.008  22.139  0.00  0.00    +0.004 A 
BRANCH  26   4
ATOM      4  O   UNL     1       0.532  -0.259  22.319  0.00  0.00    -0.493 OA
ATOM     31  C   UNL     1       0.274  -0.827  21.036  0.00  0.00    +0.277 C 
ENDBRANCH  26   4
ENDBRANCH   7  25
ENDBRANCH  19   6
ENDBRANCH  16  19
ENDBRANCH   8  16
BRANCH   9  18
ATOM     18  C   UNL     1      -6.076   3.342  25.749  0.00  0.00    +0.124 C 
BRANCH  18  24
ATOM      3  O   UNL     1      -4.875   4.916  24.328  0.00  0.00    -0.251 OA
ATOM     24  C   UNL     1      -5.735   4.685  25.164  0.00  0.00    +0.305 C 
BRANCH  24   2
ATOM      2  O   UNL     1      -6.537   5.637  25.706  0.00  0.00    -0.481 OA
ATOM     32  H   UNL     1      -6.058   6.482  25.844  0.00  0.00    +0.295 HD
ENDBRANCH  24   2
ENDBRANCH  18  24
ENDBRANCH   9  18
TORSDOF 9
ENDMDL
MODEL 6
REMARK VINA RESULT:       5.4      1.867      7.805
REMARK  Name = 25313223
REMARK  10 active torsions:
REMARK  status: ('A' for Active; 'I' for Inactive)
REMARK    1  A    between atoms: O_2  and  C_24
REMARK    2  A    between atoms: O_4  and  C_26
REMARK    3  A    between atoms: O_4  and  C_31
REMARK    4  A    between atoms: N_6  and  C_19
REMARK    5  A    between atoms: N_7  and  C_25
REMARK    6  A    between atoms: C_8  and  C_16
REMARK    7  A    between atoms: C_9  and  C_18
REMARK    8  A    between atoms: C_10  and  C_17
REMARK    9  A    between atoms: C_16  and  C_19
REMARK   10  A    between atoms: C_18  and  C_24
REMARK                            x       y       z     vdW  Elec       q    Type
REMARK                         _______ _______ _______ _____ _____    ______ ____
ROOT
ATOM      1  O   UNL     1       4.809  -1.790  24.281  0.00  0.00    -0.275 OA
ATOM      5  N   UNL     1       2.863  -1.052  23.235  0.00  0.00    -0.301 N 
ATOM      8  C   UNL     1       0.912   0.478  23.093  0.00  0.00    +0.011 C 
ATOM      9  C   UNL     1       0.015  -0.681  23.598  0.00  0.00    +0.006 C 
ATOM     11  C   UNL     1       2.152  -0.093  22.382  0.00  0.00    +0.111 C 
ATOM     12  C   UNL     1       0.813  -1.685  24.446  0.00  0.00    +0.023 C 
ATOM     15  C   UNL     1       2.055  -2.175  23.706  0.00  0.00    +0.108 C 
ATOM     17  C   UNL     1       4.215  -0.970  23.586  0.00  0.00    +0.219 C 
ENDROOT
BRANCH  17  10
ATOM     10  C   UNL     1       4.986   0.203  23.074  0.00  0.00    +0.075 C 
ATOM     13  C   UNL     1       6.485   0.132  23.036  0.00  0.00    +0.013 C 
ATOM     14  C   UNL     1       5.800   1.017  24.036  0.00  0.00    +0.013 C 
ENDBRANCH  17  10
BRANCH   8  16
ATOM     16  C   UNL     1       1.335   1.463  24.190  0.00  0.00    +0.020 C 
BRANCH  16  19
ATOM     19  C   UNL     1       1.071   2.899  23.762  0.00  0.00    +0.085 C 
BRANCH  19   6
ATOM      6  N   UNL     1      -0.305   3.270  24.094  0.00  0.00    -0.299 NA
ATOM      7  N   UNL     1      -3.002   2.814  24.917  0.00  0.00    -0.325 N 
ATOM     20  C   UNL     1      -0.608   2.926  25.489  0.00  0.00    +0.103 C 
ATOM     21  C   UNL     1      -1.251   2.596  23.196  0.00  0.00    +0.103 C 
ATOM     22  C   UNL     1      -2.027   3.360  25.866  0.00  0.00    +0.120 C 
ATOM     23  C   UNL     1      -2.690   3.019  23.497  0.00  0.00    +0.120 C 
BRANCH   7  25
ATOM     25  C   UNL     1      -4.348   2.710  25.287  0.00  0.00    +0.072 A 
ATOM     26  C   UNL     1      -4.956   1.462  25.411  0.00  0.00    +0.141 A 
ATOM     27  C   UNL     1      -5.081   3.871  25.531  0.00  0.00    +0.027 A 
ATOM     28  C   UNL     1      -6.298   1.373  25.780  0.00  0.00    +0.047 A 
ATOM     29  C   UNL     1      -6.424   3.783  25.900  0.00  0.00    +0.002 A 
ATOM     30  C   UNL     1      -7.032   2.534  26.025  0.00  0.00    +0.004 A 
BRANCH  26   4
ATOM      4  O   UNL     1      -4.257   0.315  25.177  0.00  0.00    -0.493 OA
ATOM     31  C   UNL     1      -4.713  -0.515  24.111  0.00  0.00    +0.277 C 
ENDBRANCH  26   4
ENDBRANCH   7  25
ENDBRANCH  19   6
ENDBRANCH  16  19
ENDBRANCH   8  16
BRANCH   9  18
ATOM     18  C   UNL     1      -1.221  -0.196  24.357  0.00  0.00    +0.124 C 
BRANCH  18  24
ATOM      3  O   UNL     1      -2.094  -2.158  25.511  0.00  0.00    -0.251 OA
ATOM     24  C   UNL     1      -1.527  -1.076  25.538  0.00  0.00    +0.305 C 
BRANCH  24   2
ATOM      2  O   UNL     1      -1.075  -0.488  26.675  0.00  0.00    -0.481 OA
ATOM     32  H   UNL     1      -0.183  -0.097  26.554  0.00  0.00    +0.295 HD
ENDBRANCH  24   2
ENDBRANCH  18  24
ENDBRANCH   9  18
TORSDOF 9
ENDMDL
MODEL 7
REMARK VINA RESULT:       6.1      2.117      2.785
REMARK  Name = 25313223
REMARK  10 active torsions:
REMARK  status: ('A' for Active; 'I' for Inactive)
REMARK    1  A    between atoms: O_2  and  C_24
REMARK    2  A    between atoms: O_4  and  C_26
REMARK    3  A    between atoms: O_4  and  C_31
REMARK    4  A    between atoms: N_6  and  C_19
REMARK    5  A    between atoms: N_7  and  C_25
REMARK    6  A    between atoms: C_8  and  C_16
REMARK    7  A    between atoms: C_9  and  C_18
REMARK    8  A    between atoms: C_10  and  C_17
REMARK    9  A    between atoms: C_16  and  C_19
REMARK   10  A    between atoms: C_18  and  C_24
REMARK                            x       y       z     vdW  Elec       q    Type
REMARK                         _______ _______ _______ _____ _____    ______ ____
ROOT
ATOM      1  O   UNL     1      -1.082   5.687  24.618  0.00  0.00    -0.275 OA
ATOM      5  N   UNL     1      -2.093   3.829  25.592  0.00  0.00    -0.301 N 
ATOM      8  C   UNL     1      -2.984   1.514  25.460  0.00  0.00    +0.011 C 
ATOM      9  C   UNL     1      -4.416   2.106  25.473  0.00  0.00    +0.006 C 
ATOM     11  C   UNL     1      -2.014   2.480  26.164  0.00  0.00    +0.111 C 
ATOM     12  C   UNL     1      -4.443   3.537  24.910  0.00  0.00    +0.023 C 
ATOM     15  C   UNL     1      -3.425   4.430  25.614  0.00  0.00    +0.108 C 
ATOM     17  C   UNL     1      -1.012   4.549  25.073  0.00  0.00    +0.219 C 
ENDROOT
BRANCH  17  10
ATOM     10  C   UNL     1       0.324   3.878  25.076  0.00  0.00    +0.075 C 
ATOM     13  C   UNL     1       0.505   2.608  24.296  0.00  0.00    +0.013 C 
ATOM     14  C   UNL     1       0.483   2.572  25.796  0.00  0.00    +0.013 C 
ENDBRANCH  17  10
BRANCH   8  16
ATOM     16  C   UNL     1      -2.465   1.167  24.058  0.00  0.00    +0.020 C 
BRANCH  16  19
ATOM     19  C   UNL     1      -2.440  -0.340  23.847  0.00  0.00    +0.085 C 
BRANCH  19   6
ATOM      6  N   UNL     1      -1.070  -0.781  23.586  0.00  0.00    -0.299 NA
ATOM      7  N   UNL     1       1.781  -0.607  23.644  0.00  0.00    -0.325 N 
ATOM     20  C   UNL     1      -0.339  -0.964  24.847  0.00  0.00    +0.103 C 
ATOM     21  C   UNL     1      -0.368   0.192  22.740  0.00  0.00    +0.103 C 
ATOM     22  C   UNL     1       1.080  -1.480  24.590  0.00  0.00    +0.120 C 
ATOM     23  C   UNL     1       1.048  -0.285  22.413  0.00  0.00    +0.120 C 
BRANCH   7  25
ATOM     25  C   UNL     1       3.180  -0.620  23.593  0.00  0.00    +0.072 A 
ATOM     26  C   UNL     1       3.887   0.523  23.223  0.00  0.00    +0.141 A 
ATOM     27  C   UNL     1       3.865  -1.791  23.916  0.00  0.00    +0.027 A 
ATOM     28  C   UNL     1       5.281   0.495  23.176  0.00  0.00    +0.047 A 
ATOM     29  C   UNL     1       5.259  -1.819  23.869  0.00  0.00    +0.002 A 
ATOM     30  C   UNL     1       5.967  -0.676  23.499  0.00  0.00    +0.004 A 
BRANCH  26   4
ATOM      4  O   UNL     1       3.237   1.677  22.904  0.00  0.00    -0.493 OA
ATOM     31  C   UNL     1       3.948   2.622  22.106  0.00  0.00    +0.277 C 
ENDBRANCH  26   4
ENDBRANCH   7  25
ENDBRANCH  19   6
ENDBRANCH  16  19
ENDBRANCH   8  16
BRANCH   9  18
ATOM     18  C   UNL     1      -5.437   1.224  24.753  0.00  0.00    +0.124 C 
BRANCH  18  24
ATOM      3  O   UNL     1      -7.734   1.881  24.273  0.00  0.00    -0.251 OA
ATOM     24  C   UNL     1      -6.848   1.631  25.076  0.00  0.00    +0.305 C 
BRANCH  24   2
ATOM      2  O   UNL     1      -7.012   1.685  26.423  0.00  0.00    -0.481 OA
ATOM     32  H   UNL     1      -7.837   2.154  26.671  0.00  0.00    +0.295 HD
ENDBRANCH  24   2
ENDBRANCH  18  24
ENDBRANCH   9  18
TORSDOF 9
ENDMDL
