MODEL 1
REMARK VINA RESULT:      -4.6      0.000      0.000
REMARK  Name = 75537140
REMARK  6 active torsions:
REMARK  status: ('A' for Active; 'I' for Inactive)
REMARK    1  A    between atoms: O_2  and  C_21
REMARK    2  A    between atoms: O_2  and  C_23
REMARK    3  A    between atoms: N_4  and  C_9
REMARK    4  A    between atoms: N_6  and  C_19
REMARK    5  A    between atoms: C_19  and  C_21
REMARK    6  A    between atoms: C_20  and  C_22
REMARK                            x       y       z     vdW  Elec       q    Type
REMARK                         _______ _______ _______ _____ _____    ______ ____
ROOT
ATOM      1  O   UNL     1      -4.994  -9.806  16.409  0.00  0.00    -0.252 OA
ATOM      4  N   UNL     1      -6.962 -10.553  11.790  0.00  0.00    -0.296 NA
ATOM      5  N   UNL     1      -6.193 -10.449  14.492  0.00  0.00    -0.278 N 
ATOM      6  N   UNL     1      -7.346  -9.995  16.367  0.00  0.00    -0.281 N 
ATOM      8  C   UNL     1      -7.565 -10.778  14.165  0.00  0.00    +0.109 C 
ATOM     10  C   UNL     1      -7.951 -10.168  12.817  0.00  0.00    +0.108 C 
ATOM     11  C   UNL     1      -5.612 -10.076  12.153  0.00  0.00    +0.104 C 
ATOM     12  C   UNL     1      -5.159 -10.648  13.499  0.00  0.00    +0.125 C 
ATOM     13  C   UNL     1      -8.360 -10.252  15.359  0.00  0.00    +0.133 C 
ATOM     16  C   UNL     1      -6.044 -10.056  15.830  0.00  0.00    +0.305 C 
ENDROOT
BRANCH   4   9
ATOM      3  O   UNL     1      -8.023  -5.643   8.243  0.00  0.00    -0.276 OA
ATOM      7  N   UNL     1      -8.362  -7.861   8.848  0.00  0.00    -0.302 N 
ATOM      9  C   UNL     1      -7.354 -10.025  10.485  0.00  0.00    +0.060 C 
ATOM     14  C   UNL     1      -6.481  -8.817  10.122  0.00  0.00    +0.038 C 
ATOM     15  C   UNL     1      -8.837  -9.630  10.500  0.00  0.00    +0.038 C 
ATOM     17  C   UNL     1      -6.936  -8.191   8.804  0.00  0.00    +0.109 C 
ATOM     18  C   UNL     1      -9.245  -8.987   9.175  0.00  0.00    +0.109 C 
ATOM     20  C   UNL     1      -8.783  -6.565   8.549  0.00  0.00    +0.212 C 
ATOM     22  C   UNL     1     -10.267  -6.305   8.618  0.00  0.00    +0.109 C 
ENDBRANCH   4   9
BRANCH   6  19
ATOM     19  C   UNL     1      -7.688  -9.582  17.710  0.00  0.00    +0.137 C 
BRANCH  19  21
ATOM     21  C   UNL     1      -8.213 -10.743  18.534  0.00  0.00    +0.178 C 
BRANCH  21   2
ATOM      2  O   UNL     1      -7.586 -10.739  19.810  0.00  0.00    -0.381 OA
ATOM     23  C   UNL     1      -6.192 -10.484  19.705  0.00  0.00    +0.194 C 
ENDBRANCH  21   2
ENDBRANCH  19  21
ENDBRANCH   6  19
TORSDOF 4
ENDMDL
MODEL 2
REMARK VINA RESULT:      -3.6      1.635      2.112
REMARK  Name = 75537140
REMARK  6 active torsions:
REMARK  status: ('A' for Active; 'I' for Inactive)
REMARK    1  A    between atoms: O_2  and  C_21
REMARK    2  A    between atoms: O_2  and  C_23
REMARK    3  A    between atoms: N_4  and  C_9
REMARK    4  A    between atoms: N_6  and  C_19
REMARK    5  A    between atoms: C_19  and  C_21
REMARK    6  A    between atoms: C_20  and  C_22
REMARK                            x       y       z     vdW  Elec       q    Type
REMARK                         _______ _______ _______ _____ _____    ______ ____
ROOT
ATOM      1  O   UNL     1      -3.069 -10.076  14.399  0.00  0.00    -0.252 OA
ATOM      4  N   UNL     1      -5.963  -9.997  10.230  0.00  0.00    -0.296 NA
ATOM      5  N   UNL     1      -4.628 -10.403  12.671  0.00  0.00    -0.278 N 
ATOM      6  N   UNL     1      -5.361 -10.471  14.793  0.00  0.00    -0.281 N 
ATOM      8  C   UNL     1      -6.021 -10.781  12.562  0.00  0.00    +0.109 C 
ATOM     10  C   UNL     1      -6.720  -9.936  11.497  0.00  0.00    +0.108 C 
ATOM     11  C   UNL     1      -4.589  -9.485  10.410  0.00  0.00    +0.104 C 
ATOM     12  C   UNL     1      -3.828 -10.287  11.469  0.00  0.00    +0.125 C 
ATOM     13  C   UNL     1      -6.558 -10.600  13.980  0.00  0.00    +0.133 C 
ATOM     16  C   UNL     1      -4.207 -10.293  14.003  0.00  0.00    +0.305 C 
ENDROOT
BRANCH   4   9
ATOM      3  O   UNL     1      -8.825  -4.818   8.558  0.00  0.00    -0.276 OA
ATOM      7  N   UNL     1      -8.439  -7.103   8.398  0.00  0.00    -0.302 N 
ATOM      9  C   UNL     1      -6.655  -9.242   9.188  0.00  0.00    +0.060 C 
ATOM     14  C   UNL     1      -6.215  -7.772   9.224  0.00  0.00    +0.038 C 
ATOM     15  C   UNL     1      -8.174  -9.351   9.378  0.00  0.00    +0.038 C 
ATOM     17  C   UNL     1      -6.996  -6.944   8.204  0.00  0.00    +0.109 C 
ATOM     18  C   UNL     1      -8.917  -8.491   8.356  0.00  0.00    +0.109 C 
ATOM     20  C   UNL     1      -9.246  -5.977   8.562  0.00  0.00    +0.212 C 
ATOM     22  C   UNL     1     -10.719  -6.225   8.757  0.00  0.00    +0.109 C 
ENDBRANCH   4   9
BRANCH   6  19
ATOM     19  C   UNL     1      -5.420 -10.388  16.235  0.00  0.00    +0.137 C 
BRANCH  19  21
ATOM     21  C   UNL     1      -6.836 -10.580  16.748  0.00  0.00    +0.178 C 
BRANCH  21   2
ATOM      2  O   UNL     1      -7.248  -9.411  17.444  0.00  0.00    -0.381 OA
ATOM     23  C   UNL     1      -8.550  -9.000  17.048  0.00  0.00    +0.194 C 
ENDBRANCH  21   2
ENDBRANCH  19  21
ENDBRANCH   6  19
TORSDOF 4
ENDMDL
MODEL 3
REMARK VINA RESULT:      -3.4      2.409      3.213
REMARK  Name = 75537140
REMARK  6 active torsions:
REMARK  status: ('A' for Active; 'I' for Inactive)
REMARK    1  A    between atoms: O_2  and  C_21
REMARK    2  A    between atoms: O_2  and  C_23
REMARK    3  A    between atoms: N_4  and  C_9
REMARK    4  A    between atoms: N_6  and  C_19
REMARK    5  A    between atoms: C_19  and  C_21
REMARK    6  A    between atoms: C_20  and  C_22
REMARK                            x       y       z     vdW  Elec       q    Type
REMARK                         _______ _______ _______ _____ _____    ______ ____
ROOT
ATOM      1  O   UNL     1      -1.232  -9.408  15.132  0.00  0.00    -0.252 OA
ATOM      4  N   UNL     1      -3.689  -9.974  10.727  0.00  0.00    -0.296 NA
ATOM      5  N   UNL     1      -2.510 -10.078  13.277  0.00  0.00    -0.278 N 
ATOM      6  N   UNL     1      -3.385 -10.351  15.328  0.00  0.00    -0.281 N 
ATOM      8  C   UNL     1      -3.756 -10.781  13.050  0.00  0.00    +0.109 C 
ATOM     10  C   UNL     1      -4.544 -10.115  11.922  0.00  0.00    +0.108 C 
ATOM     11  C   UNL     1      -2.501  -9.148  11.022  0.00  0.00    +0.104 C 
ATOM     12  C   UNL     1      -1.662  -9.756  12.149  0.00  0.00    +0.125 C 
ATOM     13  C   UNL     1      -4.441 -10.755  14.415  0.00  0.00    +0.133 C 
ATOM     16  C   UNL     1      -2.245  -9.889  14.640  0.00  0.00    +0.305 C 
ENDROOT
BRANCH   4   9
ATOM      3  O   UNL     1      -8.643  -6.836   8.877  0.00  0.00    -0.276 OA
ATOM      7  N   UNL     1      -6.939  -8.380   8.545  0.00  0.00    -0.302 N 
ATOM      9  C   UNL     1      -4.451  -9.394   9.623  0.00  0.00    +0.060 C 
ATOM     14  C   UNL     1      -5.003  -8.022  10.029  0.00  0.00    +0.038 C 
ATOM     15  C   UNL     1      -5.595 -10.334   9.221  0.00  0.00    +0.038 C 
ATOM     17  C   UNL     1      -5.882  -7.439   8.923  0.00  0.00    +0.109 C 
ATOM     18  C   UNL     1      -6.463  -9.706   8.131  0.00  0.00    +0.109 C 
ATOM     20  C   UNL     1      -8.272  -7.968   8.559  0.00  0.00    +0.212 C 
ATOM     22  C   UNL     1      -9.299  -8.996   8.159  0.00  0.00    +0.109 C 
ENDBRANCH   4   9
BRANCH   6  19
ATOM     19  C   UNL     1      -3.586 -10.305  16.759  0.00  0.00    +0.137 C 
BRANCH  19  21
ATOM     21  C   UNL     1      -5.015 -10.658  17.134  0.00  0.00    +0.178 C 
BRANCH  21   2
ATOM      2  O   UNL     1      -5.148 -10.649  18.549  0.00  0.00    -0.381 OA
ATOM     23  C   UNL     1      -6.404 -10.117  18.951  0.00  0.00    +0.194 C 
ENDBRANCH  21   2
ENDBRANCH  19  21
ENDBRANCH   6  19
TORSDOF 4
ENDMDL
MODEL 4
REMARK VINA RESULT:      -3.4     23.792     26.370
REMARK  Name = 75537140
REMARK  6 active torsions:
REMARK  status: ('A' for Active; 'I' for Inactive)
REMARK    1  A    between atoms: O_2  and  C_21
REMARK    2  A    between atoms: O_2  and  C_23
REMARK    3  A    between atoms: N_4  and  C_9
REMARK    4  A    between atoms: N_6  and  C_19
REMARK    5  A    between atoms: C_19  and  C_21
REMARK    6  A    between atoms: C_20  and  C_22
REMARK                            x       y       z     vdW  Elec       q    Type
REMARK                         _______ _______ _______ _____ _____    ______ ____
ROOT
ATOM      1  O   UNL     1       9.456  -7.104  32.873  0.00  0.00    -0.252 OA
ATOM      4  N   UNL     1      13.717  -9.331  31.245  0.00  0.00    -0.296 NA
ATOM      5  N   UNL     1      11.275  -8.504  32.366  0.00  0.00    -0.278 N 
ATOM      6  N   UNL     1       9.204  -9.370  32.265  0.00  0.00    -0.281 N 
ATOM      8  C   UNL     1      11.482  -9.912  32.095  0.00  0.00    +0.109 C 
ATOM     10  C   UNL     1      12.484 -10.091  30.955  0.00  0.00    +0.108 C 
ATOM     11  C   UNL     1      13.426  -7.890  31.393  0.00  0.00    +0.104 C 
ATOM     12  C   UNL     1      12.422  -7.635  32.521  0.00  0.00    +0.125 C 
ATOM     13  C   UNL     1      10.077 -10.435  31.803  0.00  0.00    +0.133 C 
ATOM     16  C   UNL     1       9.921  -8.189  32.547  0.00  0.00    +0.305 C 
ENDROOT
BRANCH   4   9
ATOM      3  O   UNL     1      15.650  -8.033  25.554  0.00  0.00    -0.276 OA
ATOM      7  N   UNL     1      15.470  -9.432  27.401  0.00  0.00    -0.302 N 
ATOM      9  C   UNL     1      14.706  -9.545  30.191  0.00  0.00    +0.060 C 
ATOM     14  C   UNL     1      15.033  -8.215  29.500  0.00  0.00    +0.038 C 
ATOM     15  C   UNL     1      14.177 -10.562  29.171  0.00  0.00    +0.038 C 
ATOM     17  C   UNL     1      15.994  -8.430  28.331  0.00  0.00    +0.109 C 
ATOM     18  C   UNL     1      15.155 -10.731  28.008  0.00  0.00    +0.109 C 
ATOM     20  C   UNL     1      15.344  -9.122  26.046  0.00  0.00    +0.212 C 
ATOM     22  C   UNL     1      14.795 -10.206  25.155  0.00  0.00    +0.109 C 
ENDBRANCH   4   9
BRANCH   6  19
ATOM     19  C   UNL     1       7.764  -9.507  32.271  0.00  0.00    +0.137 C 
BRANCH  19  21
ATOM     21  C   UNL     1       7.150  -8.991  30.982  0.00  0.00    +0.178 C 
BRANCH  21   2
ATOM      2  O   UNL     1       6.380  -7.828  31.258  0.00  0.00    -0.381 OA
ATOM     23  C   UNL     1       5.976  -7.781  32.620  0.00  0.00    +0.194 C 
ENDBRANCH  21   2
ENDBRANCH  19  21
ENDBRANCH   6  19
TORSDOF 4
ENDMDL
MODEL 5
REMARK VINA RESULT:      -2.4     25.156     27.663
REMARK  Name = 75537140
REMARK  6 active torsions:
REMARK  status: ('A' for Active; 'I' for Inactive)
REMARK    1  A    between atoms: O_2  and  C_21
REMARK    2  A    between atoms: O_2  and  C_23
REMARK    3  A    between atoms: N_4  and  C_9
REMARK    4  A    between atoms: N_6  and  C_19
REMARK    5  A    between atoms: C_19  and  C_21
REMARK    6  A    between atoms: C_20  and  C_22
REMARK                            x       y       z     vdW  Elec       q    Type
REMARK                         _______ _______ _______ _____ _____    ______ ____
ROOT
ATOM      1  O   UNL     1      10.154  -6.967  32.396  0.00  0.00    -0.252 OA
ATOM      4  N   UNL     1      15.099  -6.846  31.258  0.00  0.00    -0.296 NA
ATOM      5  N   UNL     1      12.489  -7.187  32.246  0.00  0.00    -0.278 N 
ATOM      6  N   UNL     1      11.271  -9.026  32.673  0.00  0.00    -0.281 N 
ATOM      8  C   UNL     1      13.470  -8.226  32.481  0.00  0.00    +0.109 C 
ATOM     10  C   UNL     1      14.538  -8.205  31.388  0.00  0.00    +0.108 C 
ATOM     11  C   UNL     1      14.046  -5.872  30.906  0.00  0.00    +0.104 C 
ATOM     12  C   UNL     1      12.937  -5.840  31.961  0.00  0.00    +0.125 C 
ATOM     13  C   UNL     1      12.637  -9.505  32.541  0.00  0.00    +0.133 C 
ATOM     16  C   UNL     1      11.176  -7.640  32.438  0.00  0.00    +0.305 C 
ENDROOT
BRANCH   4   9
ATOM      3  O   UNL     1      16.991  -5.106  25.672  0.00  0.00    -0.276 OA
ATOM      7  N   UNL     1      17.027  -6.526  27.511  0.00  0.00    -0.302 N 
ATOM      9  C   UNL     1      16.164  -6.828  30.258  0.00  0.00    +0.060 C 
ATOM     14  C   UNL     1      16.227  -5.453  29.581  0.00  0.00    +0.038 C 
ATOM     15  C   UNL     1      15.924  -7.928  29.214  0.00  0.00    +0.038 C 
ATOM     17  C   UNL     1      17.271  -5.442  28.465  0.00  0.00    +0.109 C 
ATOM     18  C   UNL     1      16.974  -7.868  28.105  0.00  0.00    +0.109 C 
ATOM     20  C   UNL     1      16.907  -6.239  26.151  0.00  0.00    +0.212 C 
ATOM     22  C   UNL     1      16.655  -7.410  25.235  0.00  0.00    +0.109 C 
ENDBRANCH   4   9
BRANCH   6  19
ATOM     19  C   UNL     1      10.159  -9.928  32.873  0.00  0.00    +0.137 C 
BRANCH  19  21
ATOM     21  C   UNL     1       9.893 -10.768  31.637  0.00  0.00    +0.178 C 
BRANCH  21   2
ATOM      2  O   UNL     1       8.589 -10.485  31.146  0.00  0.00    -0.381 OA
ATOM     23  C   UNL     1       7.758  -9.934  32.159  0.00  0.00    +0.194 C 
ENDBRANCH  21   2
ENDBRANCH  19  21
ENDBRANCH   6  19
TORSDOF 4
ENDMDL
MODEL 6
REMARK VINA RESULT:      -1.2     25.370     27.891
REMARK  Name = 75537140
REMARK  6 active torsions:
REMARK  status: ('A' for Active; 'I' for Inactive)
REMARK    1  A    between atoms: O_2  and  C_21
REMARK    2  A    between atoms: O_2  and  C_23
REMARK    3  A    between atoms: N_4  and  C_9
REMARK    4  A    between atoms: N_6  and  C_19
REMARK    5  A    between atoms: C_19  and  C_21
REMARK    6  A    between atoms: C_20  and  C_22
REMARK                            x       y       z     vdW  Elec       q    Type
REMARK                         _______ _______ _______ _____ _____    ______ ____
ROOT
ATOM      1  O   UNL     1      11.718  -6.780  32.078  0.00  0.00    -0.252 OA
ATOM      4  N   UNL     1      16.212  -5.442  30.135  0.00  0.00    -0.296 NA
ATOM      5  N   UNL     1      13.942  -6.576  31.345  0.00  0.00    -0.278 N 
ATOM      6  N   UNL     1      12.894  -8.538  31.034  0.00  0.00    -0.281 N 
ATOM      8  C   UNL     1      14.962  -7.452  30.808  0.00  0.00    +0.109 C 
ATOM     10  C   UNL     1      15.718  -6.756  29.677  0.00  0.00    +0.108 C 
ATOM     11  C   UNL     1      15.093  -4.575  30.556  0.00  0.00    +0.104 C 
ATOM     12  C   UNL     1      14.286  -5.213  31.691  0.00  0.00    +0.125 C 
ATOM     13  C   UNL     1      14.186  -8.699  30.390  0.00  0.00    +0.133 C 
ATOM     16  C   UNL     1      12.726  -7.240  31.556  0.00  0.00    +0.305 C 
ENDROOT
BRANCH   4   9
ATOM      3  O   UNL     1      16.413  -1.322  25.575  0.00  0.00    -0.276 OA
ATOM      7  N   UNL     1      17.108  -3.279  26.617  0.00  0.00    -0.302 N 
ATOM      9  C   UNL     1      16.989  -4.794  29.080  0.00  0.00    +0.060 C 
ATOM     14  C   UNL     1      16.676  -3.293  29.044  0.00  0.00    +0.038 C 
ATOM     15  C   UNL     1      16.676  -5.440  27.724  0.00  0.00    +0.038 C 
ATOM     17  C   UNL     1      17.405  -2.612  27.886  0.00  0.00    +0.109 C 
ATOM     18  C   UNL     1      17.405  -4.717  26.592  0.00  0.00    +0.109 C 
ATOM     20  C   UNL     1      16.621  -2.537  25.540  0.00  0.00    +0.212 C 
ATOM     22  C   UNL     1      16.338  -3.297  24.270  0.00  0.00    +0.109 C 
ENDBRANCH   4   9
BRANCH   6  19
ATOM     19  C   UNL     1      11.879  -9.567  30.982  0.00  0.00    +0.137 C 
BRANCH  19  21
ATOM     21  C   UNL     1      10.690  -9.223  31.861  0.00  0.00    +0.178 C 
BRANCH  21   2
ATOM      2  O   UNL     1       9.837 -10.355  31.967  0.00  0.00    -0.381 OA
ATOM     23  C   UNL     1       8.497 -10.033  31.616  0.00  0.00    +0.194 C 
ENDBRANCH  21   2
ENDBRANCH  19  21
ENDBRANCH   6  19
TORSDOF 4
ENDMDL
