MODEL 1
REMARK VINA RESULT:      -1.8      0.000      0.000
REMARK  Name = 45783557
REMARK  10 active torsions:
REMARK  status: ('A' for Active; 'I' for Inactive)
REMARK    1  A    between atoms: O_2  and  C_28
REMARK    2  A    between atoms: O_2  and  C_29
REMARK    3  A    between atoms: O_5  and  C_30
REMARK    4  A    between atoms: O_5  and  C_31
REMARK    5  A    between atoms: N_6  and  C_15
REMARK    6  A    between atoms: N_9  and  C_23
REMARK    7  A    between atoms: C_11  and  C_16
REMARK    8  A    between atoms: C_15  and  C_17
REMARK    9  A    between atoms: C_20  and  C_24
REMARK   10  A    between atoms: C_29  and  C_30
REMARK                            x       y       z     vdW  Elec       q    Type
REMARK                         _______ _______ _______ _____ _____    ______ ____
ROOT
ATOM      1  O   UNL     1      -2.521   2.975  25.810  0.00  0.00    -0.336 OA
ATOM      7  N   UNL     1      -2.317   2.092  23.760  0.00  0.00    -0.190 NA
ATOM      8  N   UNL     1      -1.193   2.541  25.703  0.00  0.00    -0.056 NA
ATOM     16  C   UNL     1      -3.112   2.673  24.624  0.00  0.00    +0.245 A 
ATOM     20  C   UNL     1      -1.151   2.032  24.467  0.00  0.00    +0.204 A 
ENDROOT
BRANCH  20  24
ATOM     10  N   UNL     1       2.418   1.611  23.516  0.00  0.00    -0.221 NA
ATOM     24  C   UNL     1       0.039   1.457  23.910  0.00  0.00    +0.041 A 
ATOM     25  C   UNL     1      -0.000   0.237  23.243  0.00  0.00    +0.018 A 
ATOM     26  C   UNL     1       1.262   2.098  24.018  0.00  0.00    +0.126 A 
ATOM     27  C   UNL     1       1.168  -0.296  22.712  0.00  0.00    +0.068 A 
ATOM     28  C   UNL     1       2.341   0.423  22.874  0.00  0.00    +0.215 A 
BRANCH  28   2
ATOM      2  O   UNL     1       3.507  -0.082  22.359  0.00  0.00    -0.474 OA
BRANCH   2  29
ATOM     29  C   UNL     1       4.679   0.704  22.539  0.00  0.00    +0.258 C 
BRANCH  29  30
ATOM     30  C   UNL     1       5.753  -0.148  23.186  0.00  0.00    +0.200 C 
BRANCH  30   5
ATOM      5  O   UNL     1       5.213  -0.776  24.342  0.00  0.00    -0.380 OA
ATOM     31  C   UNL     1       4.685  -2.061  24.039  0.00  0.00    +0.194 C 
ENDBRANCH  30   5
ENDBRANCH  29  30
ENDBRANCH   2  29
ENDBRANCH  28   2
ENDBRANCH  20  24
BRANCH  16  11
ATOM      6  N   UNL     1      -5.421   2.422  25.517  0.00  0.00    -0.287 NA
ATOM     11  C   UNL     1      -4.573   3.047  24.483  0.00  0.00    +0.146 C 
ATOM     12  C   UNL     1      -4.817   4.560  24.640  0.00  0.00    +0.030 C 
ATOM     13  C   UNL     1      -5.860   4.682  25.741  0.00  0.00    +0.017 C 
ATOM     14  C   UNL     1      -6.546   3.331  25.734  0.00  0.00    +0.085 C 
BRANCH   6  15
ATOM     15  C   UNL     1      -5.863   1.078  25.163  0.00  0.00    +0.120 C 
BRANCH  15  17
ATOM     17  C   UNL     1      -4.705   0.127  25.017  0.00  0.00    -0.033 A 
ATOM     18  C   UNL     1      -4.455  -0.486  23.790  0.00  0.00    +0.007 A 
ATOM     19  C   UNL     1      -3.883  -0.140  26.112  0.00  0.00    +0.007 A 
ATOM     21  C   UNL     1      -3.382  -1.368  23.657  0.00  0.00    +0.033 A 
ATOM     22  C   UNL     1      -2.810  -1.023  25.979  0.00  0.00    +0.033 A 
ATOM     23  C   UNL     1      -2.559  -1.636  24.751  0.00  0.00    +0.126 A 
BRANCH  23   9
ATOM      3  O   UNL     1      -0.477  -2.404  25.373  0.00  0.00    -0.126 OA
ATOM      4  O   UNL     1      -1.526  -3.433  23.742  0.00  0.00    -0.126 OA
ATOM      9  N   UNL     1      -1.469  -2.534  24.615  0.00  0.00    +0.056 N 
ENDBRANCH  23   9
ENDBRANCH  15  17
ENDBRANCH   6  15
ENDBRANCH  16  11
TORSDOF 9
ENDMDL
MODEL 2
REMARK VINA RESULT:       0.4      1.921      4.246
REMARK  Name = 45783557
REMARK  10 active torsions:
REMARK  status: ('A' for Active; 'I' for Inactive)
REMARK    1  A    between atoms: O_2  and  C_28
REMARK    2  A    between atoms: O_2  and  C_29
REMARK    3  A    between atoms: O_5  and  C_30
REMARK    4  A    between atoms: O_5  and  C_31
REMARK    5  A    between atoms: N_6  and  C_15
REMARK    6  A    between atoms: N_9  and  C_23
REMARK    7  A    between atoms: C_11  and  C_16
REMARK    8  A    between atoms: C_15  and  C_17
REMARK    9  A    between atoms: C_20  and  C_24
REMARK   10  A    between atoms: C_29  and  C_30
REMARK                            x       y       z     vdW  Elec       q    Type
REMARK                         _______ _______ _______ _____ _____    ______ ____
ROOT
ATOM      1  O   UNL     1      -1.907   0.355  26.069  0.00  0.00    -0.336 OA
ATOM      7  N   UNL     1      -1.335  -0.612  24.130  0.00  0.00    -0.190 NA
ATOM      8  N   UNL     1      -0.620   0.819  25.766  0.00  0.00    -0.056 NA
ATOM     16  C   UNL     1      -2.252  -0.483  25.055  0.00  0.00    +0.245 A 
ATOM     20  C   UNL     1      -0.352   0.205  24.609  0.00  0.00    +0.204 A 
ENDROOT
BRANCH  20  24
ATOM     10  N   UNL     1       2.667  -0.572  22.583  0.00  0.00    -0.221 NA
ATOM     24  C   UNL     1       0.886   0.384  23.909  0.00  0.00    +0.041 A 
ATOM     25  C   UNL     1       1.508   1.627  23.861  0.00  0.00    +0.018 A 
ATOM     26  C   UNL     1       1.501  -0.673  23.259  0.00  0.00    +0.126 A 
ATOM     27  C   UNL     1       2.709   1.772  23.176  0.00  0.00    +0.068 A 
ATOM     28  C   UNL     1       3.242   0.652  22.559  0.00  0.00    +0.215 A 
BRANCH  28   2
ATOM      2  O   UNL     1       4.425   0.769  21.877  0.00  0.00    -0.474 OA
BRANCH   2  29
ATOM     29  C   UNL     1       5.554   0.106  22.436  0.00  0.00    +0.258 C 
BRANCH  29  30
ATOM     30  C   UNL     1       5.720   0.542  23.879  0.00  0.00    +0.200 C 
BRANCH  30   5
ATOM      5  O   UNL     1       5.450  -0.564  24.731  0.00  0.00    -0.380 OA
ATOM     31  C   UNL     1       5.282  -1.765  23.989  0.00  0.00    +0.194 C 
ENDBRANCH  30   5
ENDBRANCH  29  30
ENDBRANCH   2  29
ENDBRANCH  28   2
ENDBRANCH  20  24
BRANCH  16  11
ATOM      6  N   UNL     1      -4.547  -0.639  24.107  0.00  0.00    -0.287 NA
ATOM     11  C   UNL     1      -3.620  -1.125  25.148  0.00  0.00    +0.146 C 
ATOM     12  C   UNL     1      -3.575  -2.652  24.950  0.00  0.00    +0.030 C 
ATOM     13  C   UNL     1      -4.552  -2.935  23.818  0.00  0.00    +0.017 C 
ATOM     14  C   UNL     1      -5.478  -1.736  23.837  0.00  0.00    +0.085 C 
BRANCH   6  15
ATOM     15  C   UNL     1      -5.239   0.588  24.479  0.00  0.00    +0.120 C 
BRANCH  15  17
ATOM     17  C   UNL     1      -4.291   1.751  24.603  0.00  0.00    -0.033 A 
ATOM     18  C   UNL     1      -4.336   2.573  25.729  0.00  0.00    +0.007 A 
ATOM     19  C   UNL     1      -3.368   2.007  23.588  0.00  0.00    +0.007 A 
ATOM     21  C   UNL     1      -3.457   3.651  25.841  0.00  0.00    +0.033 A 
ATOM     22  C   UNL     1      -2.489   3.085  23.701  0.00  0.00    +0.033 A 
ATOM     23  C   UNL     1      -2.534   3.907  24.828  0.00  0.00    +0.126 A 
BRANCH  23   9
ATOM      3  O   UNL     1      -2.087   6.114  25.321  0.00  0.00    -0.126 OA
ATOM      4  O   UNL     1      -0.430   4.834  24.662  0.00  0.00    -0.126 OA
ATOM      9  N   UNL     1      -1.641   5.004  24.942  0.00  0.00    +0.056 N 
ENDBRANCH  23   9
ENDBRANCH  15  17
ENDBRANCH   6  15
ENDBRANCH  16  11
TORSDOF 9
ENDMDL
MODEL 3
REMARK VINA RESULT:       0.6      1.014      1.301
REMARK  Name = 45783557
REMARK  10 active torsions:
REMARK  status: ('A' for Active; 'I' for Inactive)
REMARK    1  A    between atoms: O_2  and  C_28
REMARK    2  A    between atoms: O_2  and  C_29
REMARK    3  A    between atoms: O_5  and  C_30
REMARK    4  A    between atoms: O_5  and  C_31
REMARK    5  A    between atoms: N_6  and  C_15
REMARK    6  A    between atoms: N_9  and  C_23
REMARK    7  A    between atoms: C_11  and  C_16
REMARK    8  A    between atoms: C_15  and  C_17
REMARK    9  A    between atoms: C_20  and  C_24
REMARK   10  A    between atoms: C_29  and  C_30
REMARK                            x       y       z     vdW  Elec       q    Type
REMARK                         _______ _______ _______ _____ _____    ______ ____
ROOT
ATOM      1  O   UNL     1      -3.624   2.777  22.349  0.00  0.00    -0.336 OA
ATOM      7  N   UNL     1      -2.628   1.912  24.160  0.00  0.00    -0.190 NA
ATOM      8  N   UNL     1      -2.347   2.373  21.936  0.00  0.00    -0.056 NA
ATOM     16  C   UNL     1      -3.707   2.470  23.670  0.00  0.00    +0.245 A 
ATOM     20  C   UNL     1      -1.822   1.873  23.059  0.00  0.00    +0.204 A 
ENDROOT
BRANCH  20  24
ATOM     10  N   UNL     1       1.797   1.548  23.848  0.00  0.00    -0.221 NA
ATOM     24  C   UNL     1      -0.496   1.329  23.116  0.00  0.00    +0.041 A 
ATOM     25  C   UNL     1      -0.198   0.106  22.524  0.00  0.00    +0.018 A 
ATOM     26  C   UNL     1       0.527   2.004  23.760  0.00  0.00    +0.126 A 
ATOM     27  C   UNL     1       1.096  -0.396  22.594  0.00  0.00    +0.068 A 
ATOM     28  C   UNL     1       2.049   0.357  23.261  0.00  0.00    +0.215 A 
BRANCH  28   2
ATOM      2  O   UNL     1       3.332  -0.117  23.343  0.00  0.00    -0.474 OA
BRANCH   2  29
ATOM     29  C   UNL     1       4.353   0.701  22.784  0.00  0.00    +0.258 C 
BRANCH  29  30
ATOM     30  C   UNL     1       5.652   0.447  23.524  0.00  0.00    +0.200 C 
BRANCH  30   5
ATOM      5  O   UNL     1       5.426  -0.523  24.539  0.00  0.00    -0.380 OA
ATOM     31  C   UNL     1       5.274  -1.825  23.990  0.00  0.00    +0.194 C 
ENDBRANCH  30   5
ENDBRANCH  29  30
ENDBRANCH   2  29
ENDBRANCH  28   2
ENDBRANCH  20  24
BRANCH  16  11
ATOM      6  N   UNL     1      -5.127   2.186  25.693  0.00  0.00    -0.287 NA
ATOM     11  C   UNL     1      -5.010   2.812  24.361  0.00  0.00    +0.146 C 
ATOM     12  C   UNL     1      -5.165   4.322  24.624  0.00  0.00    +0.030 C 
ATOM     13  C   UNL     1      -5.426   4.441  26.119  0.00  0.00    +0.017 C 
ATOM     14  C   UNL     1      -5.966   3.076  26.496  0.00  0.00    +0.085 C 
BRANCH   6  15
ATOM     15  C   UNL     1      -5.656   0.829  25.646  0.00  0.00    +0.120 C 
BRANCH  15  17
ATOM     17  C   UNL     1      -4.593  -0.176  25.289  0.00  0.00    -0.033 A 
ATOM     18  C   UNL     1      -4.703  -0.923  24.117  0.00  0.00    +0.007 A 
ATOM     19  C   UNL     1      -3.497  -0.358  26.133  0.00  0.00    +0.007 A 
ATOM     21  C   UNL     1      -3.718  -1.854  23.787  0.00  0.00    +0.033 A 
ATOM     22  C   UNL     1      -2.511  -1.290  25.803  0.00  0.00    +0.033 A 
ATOM     23  C   UNL     1      -2.622  -2.037  24.630  0.00  0.00    +0.126 A 
BRANCH  23   9
ATOM      3  O   UNL     1      -1.796  -3.730  23.301  0.00  0.00    -0.126 OA
ATOM      4  O   UNL     1      -0.585  -3.051  25.002  0.00  0.00    -0.126 OA
ATOM      9  N   UNL     1      -1.620  -2.985  24.295  0.00  0.00    +0.056 N 
ENDBRANCH  23   9
ENDBRANCH  15  17
ENDBRANCH   6  15
ENDBRANCH  16  11
TORSDOF 9
ENDMDL
MODEL 4
REMARK VINA RESULT:       1.6      1.343      1.687
REMARK  Name = 45783557
REMARK  10 active torsions:
REMARK  status: ('A' for Active; 'I' for Inactive)
REMARK    1  A    between atoms: O_2  and  C_28
REMARK    2  A    between atoms: O_2  and  C_29
REMARK    3  A    between atoms: O_5  and  C_30
REMARK    4  A    between atoms: O_5  and  C_31
REMARK    5  A    between atoms: N_6  and  C_15
REMARK    6  A    between atoms: N_9  and  C_23
REMARK    7  A    between atoms: C_11  and  C_16
REMARK    8  A    between atoms: C_15  and  C_17
REMARK    9  A    between atoms: C_20  and  C_24
REMARK   10  A    between atoms: C_29  and  C_30
REMARK                            x       y       z     vdW  Elec       q    Type
REMARK                         _______ _______ _______ _____ _____    ______ ____
ROOT
ATOM      1  O   UNL     1      -3.209   2.299  22.513  0.00  0.00    -0.336 OA
ATOM      7  N   UNL     1      -1.637   2.363  24.108  0.00  0.00    -0.190 NA
ATOM      8  N   UNL     1      -2.104   1.608  21.999  0.00  0.00    -0.056 NA
ATOM     16  C   UNL     1      -2.850   2.710  23.757  0.00  0.00    +0.245 A 
ATOM     20  C   UNL     1      -1.219   1.689  22.997  0.00  0.00    +0.204 A 
ENDROOT
BRANCH  20  24
ATOM     10  N   UNL     1       2.440   1.229  23.473  0.00  0.00    -0.221 NA
ATOM     24  C   UNL     1       0.091   1.110  22.917  0.00  0.00    +0.041 A 
ATOM     25  C   UNL     1       0.305  -0.085  22.237  0.00  0.00    +0.018 A 
ATOM     26  C   UNL     1       1.182   1.721  23.512  0.00  0.00    +0.126 A 
ATOM     27  C   UNL     1       1.585  -0.623  22.175  0.00  0.00    +0.068 A 
ATOM     28  C   UNL     1       2.609   0.067  22.803  0.00  0.00    +0.215 A 
BRANCH  28   2
ATOM      2  O   UNL     1       3.881  -0.443  22.755  0.00  0.00    -0.474 OA
BRANCH   2  29
ATOM     29  C   UNL     1       4.297  -1.231  23.865  0.00  0.00    +0.258 C 
BRANCH  29  30
ATOM     30  C   UNL     1       5.408  -0.506  24.598  0.00  0.00    +0.200 C 
BRANCH  30   5
ATOM      5  O   UNL     1       6.145   0.277  23.668  0.00  0.00    -0.380 OA
ATOM     31  C   UNL     1       7.001  -0.530  22.871  0.00  0.00    +0.194 C 
ENDBRANCH  30   5
ENDBRANCH  29  30
ENDBRANCH   2  29
ENDBRANCH  28   2
ENDBRANCH  20  24
BRANCH  16  11
ATOM      6  N   UNL     1      -4.181   2.891  25.852  0.00  0.00    -0.287 NA
ATOM     11  C   UNL     1      -3.888   3.491  24.536  0.00  0.00    +0.146 C 
ATOM     12  C   UNL     1      -3.436   4.928  24.853  0.00  0.00    +0.030 C 
ATOM     13  C   UNL     1      -3.566   5.062  26.364  0.00  0.00    +0.017 C 
ATOM     14  C   UNL     1      -4.575   3.992  26.730  0.00  0.00    +0.085 C 
BRANCH   6  15
ATOM     15  C   UNL     1      -5.196   1.846  25.795  0.00  0.00    +0.120 C 
BRANCH  15  17
ATOM     17  C   UNL     1      -4.617   0.526  25.359  0.00  0.00    -0.033 A 
ATOM     18  C   UNL     1      -5.096  -0.101  24.209  0.00  0.00    +0.007 A 
ATOM     19  C   UNL     1      -3.602  -0.070  26.108  0.00  0.00    +0.007 A 
ATOM     21  C   UNL     1      -4.559  -1.325  23.807  0.00  0.00    +0.033 A 
ATOM     22  C   UNL     1      -3.066  -1.294  25.706  0.00  0.00    +0.033 A 
ATOM     23  C   UNL     1      -3.545  -1.921  24.555  0.00  0.00    +0.126 A 
BRANCH  23   9
ATOM      3  O   UNL     1      -1.757  -3.271  24.012  0.00  0.00    -0.126 OA
ATOM      4  O   UNL     1      -3.776  -4.128  23.930  0.00  0.00    -0.126 OA
ATOM      9  N   UNL     1      -3.000  -3.166  24.146  0.00  0.00    +0.056 N 
ENDBRANCH  23   9
ENDBRANCH  15  17
ENDBRANCH   6  15
ENDBRANCH  16  11
TORSDOF 9
ENDMDL
