MODEL 1
REMARK VINA RESULT:       0.7      0.000      0.000
REMARK  Name = 11912415
REMARK  13 active torsions:
REMARK  status: ('A' for Active; 'I' for Inactive)
REMARK    1  A    between atoms: S_1  and  C_21
REMARK    2  A    between atoms: S_1  and  C_28
REMARK    3  A    between atoms: O_4  and  C_27
REMARK    4  A    between atoms: O_4  and  C_29
REMARK    5  A    between atoms: N_7  and  C_19
REMARK    6  A    between atoms: N_8  and  C_20
REMARK    7  A    between atoms: C_9  and  C_15
REMARK    8  A    between atoms: C_10  and  C_14
REMARK    9  A    between atoms: C_14  and  C_16
REMARK   10  A    between atoms: C_15  and  C_18
REMARK   11  A    between atoms: C_19  and  C_21
REMARK   12  A    between atoms: C_24  and  C_27
REMARK   13  A    between atoms: C_29  and  C_30
REMARK                            x       y       z     vdW  Elec       q    Type
REMARK                         _______ _______ _______ _____ _____    ______ ____
ROOT
ATOM      2  O   UNL     1      -0.530  -1.128  25.959  0.00  0.00    -0.252 OA
ATOM      6  N   UNL     1      -2.465  -0.985  24.705  0.00  0.00    -0.285 N 
ATOM      8  N   UNL     1      -0.354  -0.924  23.655  0.00  0.00    -0.269 N 
ATOM      9  C   UNL     1      -5.031   0.354  24.660  0.00  0.00    +0.004 C 
ATOM     10  C   UNL     1      -4.104   0.354  23.415  0.00  0.00    +0.010 C 
ATOM     11  C   UNL     1      -4.235   0.165  25.965  0.00  0.00    +0.023 C 
ATOM     12  C   UNL     1      -3.209  -0.896  23.439  0.00  0.00    +0.113 C 
ATOM     13  C   UNL     1      -3.319  -1.056  25.892  0.00  0.00    +0.109 C 
ATOM     17  C   UNL     1      -1.063  -1.031  24.852  0.00  0.00    +0.306 C 
ATOM     32  H   UNL     1      -0.787  -1.266  22.806  0.00  0.00    +0.156 HD
ENDROOT
BRANCH   8  20
ATOM     20  C   UNL     1       0.936  -0.366  23.467  0.00  0.00    +0.036 A 
ATOM     22  C   UNL     1       2.071  -1.114  23.780  0.00  0.00    +0.038 A 
ATOM     23  C   UNL     1       1.068   0.929  22.969  0.00  0.00    +0.023 A 
ATOM     24  C   UNL     1       3.340  -0.565  23.596  0.00  0.00    +0.061 A 
ATOM     25  C   UNL     1       2.338   1.478  22.784  0.00  0.00    +0.003 A 
ATOM     26  C   UNL     1       3.473   0.730  23.097  0.00  0.00    +0.015 A 
BRANCH  24  27
ATOM      5  O   UNL     1       4.681  -2.536  23.626  0.00  0.00    -0.245 OA
ATOM     27  C   UNL     1       4.524  -1.344  23.921  0.00  0.00    +0.339 C 
BRANCH  27   4
ATOM      4  O   UNL     1       5.451  -0.594  24.593  0.00  0.00    -0.461 OA
BRANCH   4  29
ATOM     29  C   UNL     1       6.235   0.315  23.815  0.00  0.00    +0.229 C 
ATOM     30  C   UNL     1       7.061  -0.473  22.820  0.00  0.00    +0.048 C 
ENDBRANCH   4  29
ENDBRANCH  27   4
ENDBRANCH  24  27
ENDBRANCH   8  20
BRANCH  10  14
ATOM     14  C   UNL     1      -3.253   1.621  23.270  0.00  0.00    +0.002 C 
ATOM     16  C   UNL     1      -2.456   1.600  21.983  0.00  0.00    +0.004 C 
ENDBRANCH  10  14
BRANCH   9  15
ATOM     15  C   UNL     1      -5.921   1.594  24.746  0.00  0.00    +0.099 C 
BRANCH  15  18
ATOM      3  O   UNL     1      -5.768   2.788  26.844  0.00  0.00    -0.276 OA
ATOM      7  N   UNL     1      -4.359   3.374  25.091  0.00  0.00    -0.315 N 
ATOM     18  C   UNL     1      -5.365   2.633  25.694  0.00  0.00    +0.213 C 
ATOM     31  H   UNL     1      -4.105   3.175  24.127  0.00  0.00    +0.149 HD
BRANCH   7  19
ATOM     19  C   UNL     1      -3.650   4.439  25.764  0.00  0.00    +0.115 C 
BRANCH  19  21
ATOM     21  C   UNL     1      -2.345   3.977  26.396  0.00  0.00    +0.087 C 
BRANCH  21   1
ATOM      1  S   UNL     1      -1.008   3.812  25.174  0.00  0.00    -0.163 S 
ATOM     28  C   UNL     1      -0.079   2.489  25.982  0.00  0.00    +0.084 C 
ENDBRANCH  21   1
ENDBRANCH  19  21
ENDBRANCH   7  19
ENDBRANCH  15  18
ENDBRANCH   9  15
TORSDOF 10
ENDMDL
MODEL 2
REMARK VINA RESULT:       2.9      2.471      3.811
REMARK  Name = 11912415
REMARK  13 active torsions:
REMARK  status: ('A' for Active; 'I' for Inactive)
REMARK    1  A    between atoms: S_1  and  C_21
REMARK    2  A    between atoms: S_1  and  C_28
REMARK    3  A    between atoms: O_4  and  C_27
REMARK    4  A    between atoms: O_4  and  C_29
REMARK    5  A    between atoms: N_7  and  C_19
REMARK    6  A    between atoms: N_8  and  C_20
REMARK    7  A    between atoms: C_9  and  C_15
REMARK    8  A    between atoms: C_10  and  C_14
REMARK    9  A    between atoms: C_14  and  C_16
REMARK   10  A    between atoms: C_15  and  C_18
REMARK   11  A    between atoms: C_19  and  C_21
REMARK   12  A    between atoms: C_24  and  C_27
REMARK   13  A    between atoms: C_29  and  C_30
REMARK                            x       y       z     vdW  Elec       q    Type
REMARK                         _______ _______ _______ _____ _____    ______ ____
ROOT
ATOM      2  O   UNL     1       0.453   4.296  23.455  0.00  0.00    -0.252 OA
ATOM      6  N   UNL     1      -1.047   3.967  25.182  0.00  0.00    -0.285 N 
ATOM      8  N   UNL     1       0.560   2.319  24.664  0.00  0.00    -0.269 N 
ATOM      9  C   UNL     1      -3.859   4.236  25.810  0.00  0.00    +0.004 C 
ATOM     10  C   UNL     1      -3.101   2.909  26.082  0.00  0.00    +0.010 C 
ATOM     11  C   UNL     1      -3.195   5.055  24.688  0.00  0.00    +0.023 C 
ATOM     12  C   UNL     1      -1.609   3.207  26.310  0.00  0.00    +0.113 C 
ATOM     13  C   UNL     1      -1.702   5.254  24.947  0.00  0.00    +0.109 C 
ATOM     17  C   UNL     1       0.037   3.578  24.367  0.00  0.00    +0.306 C 
ATOM     32  H   UNL     1       0.494   1.982  25.617  0.00  0.00    +0.156 HD
ENDROOT
BRANCH   8  20
ATOM     20  C   UNL     1       1.181   1.413  23.769  0.00  0.00    +0.036 A 
ATOM     22  C   UNL     1       2.571   1.380  23.662  0.00  0.00    +0.038 A 
ATOM     23  C   UNL     1       0.401   0.554  22.995  0.00  0.00    +0.023 A 
ATOM     24  C   UNL     1       3.182   0.490  22.780  0.00  0.00    +0.061 A 
ATOM     25  C   UNL     1       1.012  -0.337  22.113  0.00  0.00    +0.003 A 
ATOM     26  C   UNL     1       2.403  -0.370  22.006  0.00  0.00    +0.015 A 
BRANCH  24  27
ATOM      5  O   UNL     1       5.248   0.192  21.628  0.00  0.00    -0.245 OA
ATOM     27  C   UNL     1       4.631   0.454  22.669  0.00  0.00    +0.339 C 
BRANCH  27   4
ATOM      4  O   UNL     1       5.235   0.749  23.861  0.00  0.00    -0.461 OA
BRANCH   4  29
ATOM     29  C   UNL     1       5.739  -0.353  24.622  0.00  0.00    +0.229 C 
ATOM     30  C   UNL     1       5.114  -1.634  24.107  0.00  0.00    +0.048 C 
ENDBRANCH   4  29
ENDBRANCH  27   4
ENDBRANCH  24  27
ENDBRANCH   8  20
BRANCH  10  14
ATOM     14  C   UNL     1      -3.275   1.853  24.985  0.00  0.00    +0.002 C 
ATOM     16  C   UNL     1      -2.232   0.762  25.105  0.00  0.00    +0.004 C 
ENDBRANCH  10  14
BRANCH   9  15
ATOM     15  C   UNL     1      -5.346   4.027  25.518  0.00  0.00    +0.099 C 
BRANCH  15  18
ATOM      3  O   UNL     1      -6.185   2.210  26.877  0.00  0.00    -0.276 OA
ATOM      7  N   UNL     1      -5.676   1.825  24.642  0.00  0.00    -0.315 N 
ATOM     18  C   UNL     1      -5.787   2.605  25.784  0.00  0.00    +0.213 C 
ATOM     31  H   UNL     1      -5.324   2.244  23.786  0.00  0.00    +0.149 HD
BRANCH   7  19
ATOM     19  C   UNL     1      -6.026   0.423  24.606  0.00  0.00    +0.115 C 
BRANCH  19  21
ATOM     21  C   UNL     1      -4.900  -0.484  25.083  0.00  0.00    +0.087 C 
BRANCH  21   1
ATOM      1  S   UNL     1      -4.391  -1.677  23.808  0.00  0.00    -0.163 S 
ATOM     28  C   UNL     1      -3.327  -2.716  24.836  0.00  0.00    +0.084 C 
ENDBRANCH  21   1
ENDBRANCH  19  21
ENDBRANCH   7  19
ENDBRANCH  15  18
ENDBRANCH   9  15
TORSDOF 10
ENDMDL
MODEL 3
REMARK VINA RESULT:       3.6      2.711      7.389
REMARK  Name = 11912415
REMARK  13 active torsions:
REMARK  status: ('A' for Active; 'I' for Inactive)
REMARK    1  A    between atoms: S_1  and  C_21
REMARK    2  A    between atoms: S_1  and  C_28
REMARK    3  A    between atoms: O_4  and  C_27
REMARK    4  A    between atoms: O_4  and  C_29
REMARK    5  A    between atoms: N_7  and  C_19
REMARK    6  A    between atoms: N_8  and  C_20
REMARK    7  A    between atoms: C_9  and  C_15
REMARK    8  A    between atoms: C_10  and  C_14
REMARK    9  A    between atoms: C_14  and  C_16
REMARK   10  A    between atoms: C_15  and  C_18
REMARK   11  A    between atoms: C_19  and  C_21
REMARK   12  A    between atoms: C_24  and  C_27
REMARK   13  A    between atoms: C_29  and  C_30
REMARK                            x       y       z     vdW  Elec       q    Type
REMARK                         _______ _______ _______ _____ _____    ______ ____
ROOT
ATOM      2  O   UNL     1      -4.905  -0.534  23.987  0.00  0.00    -0.252 OA
ATOM      6  N   UNL     1      -3.094  -1.276  25.216  0.00  0.00    -0.285 N 
ATOM      8  N   UNL     1      -4.293   0.639  25.892  0.00  0.00    -0.269 N 
ATOM      9  C   UNL     1      -0.378  -2.220  24.886  0.00  0.00    +0.004 C 
ATOM     10  C   UNL     1      -0.714  -1.079  25.883  0.00  0.00    +0.010 C 
ATOM     11  C   UNL     1      -1.414  -2.311  23.750  0.00  0.00    +0.023 C 
ATOM     12  C   UNL     1      -2.169  -1.225  26.359  0.00  0.00    +0.113 C 
ATOM     13  C   UNL     1      -2.839  -2.386  24.296  0.00  0.00    +0.109 C 
ATOM     17  C   UNL     1      -4.168  -0.396  24.966  0.00  0.00    +0.306 C 
ATOM     32  H   UNL     1      -3.979   0.478  26.842  0.00  0.00    +0.156 HD
ENDROOT
BRANCH   8  20
ATOM     20  C   UNL     1      -4.809   1.939  25.664  0.00  0.00    +0.036 A 
ATOM     22  C   UNL     1      -3.971   2.948  25.187  0.00  0.00    +0.038 A 
ATOM     23  C   UNL     1      -6.153   2.209  25.915  0.00  0.00    +0.023 A 
ATOM     24  C   UNL     1      -4.478   4.228  24.963  0.00  0.00    +0.061 A 
ATOM     25  C   UNL     1      -6.661   3.489  25.690  0.00  0.00    +0.003 A 
ATOM     26  C   UNL     1      -5.823   4.498  25.214  0.00  0.00    +0.015 A 
BRANCH  24  27
ATOM      5  O   UNL     1      -3.784   5.893  23.405  0.00  0.00    -0.245 OA
ATOM     27  C   UNL     1      -3.607   5.279  24.466  0.00  0.00    +0.339 C 
BRANCH  27   4
ATOM      4  O   UNL     1      -2.561   5.512  25.318  0.00  0.00    -0.461 OA
BRANCH   4  29
ATOM     29  C   UNL     1      -1.259   5.609  24.732  0.00  0.00    +0.229 C 
ATOM     30  C   UNL     1      -0.582   4.255  24.808  0.00  0.00    +0.048 C 
ENDBRANCH   4  29
ENDBRANCH  27   4
ENDBRANCH  24  27
ENDBRANCH   8  20
BRANCH  10  14
ATOM     14  C   UNL     1      -0.470   0.329  25.327  0.00  0.00    +0.002 C 
ATOM     16  C   UNL     1      -0.723   1.385  26.382  0.00  0.00    +0.004 C 
ENDBRANCH  10  14
BRANCH   9  15
ATOM     15  C   UNL     1       1.039  -2.122  24.318  0.00  0.00    +0.099 C 
BRANCH  15  18
ATOM      3  O   UNL     1       0.308  -0.537  22.643  0.00  0.00    -0.276 OA
ATOM      7  N   UNL     1       2.473  -0.401  23.477  0.00  0.00    -0.315 N 
ATOM     18  C   UNL     1       1.200  -0.943  23.383  0.00  0.00    +0.213 C 
ATOM     31  H   UNL     1       3.145  -0.818  24.114  0.00  0.00    +0.149 HD
BRANCH   7  19
ATOM     19  C   UNL     1       2.907   0.735  22.695  0.00  0.00    +0.115 C 
BRANCH  19  21
ATOM     21  C   UNL     1       4.389   0.687  22.350  0.00  0.00    +0.087 C 
BRANCH  21   1
ATOM      1  S   UNL     1       5.426   0.376  23.811  0.00  0.00    -0.163 S 
ATOM     28  C   UNL     1       5.165  -1.408  23.939  0.00  0.00    +0.084 C 
ENDBRANCH  21   1
ENDBRANCH  19  21
ENDBRANCH   7  19
ENDBRANCH  15  18
ENDBRANCH   9  15
TORSDOF 10
ENDMDL
MODEL 4
REMARK VINA RESULT:       3.7      2.169      3.669
REMARK  Name = 11912415
REMARK  13 active torsions:
REMARK  status: ('A' for Active; 'I' for Inactive)
REMARK    1  A    between atoms: S_1  and  C_21
REMARK    2  A    between atoms: S_1  and  C_28
REMARK    3  A    between atoms: O_4  and  C_27
REMARK    4  A    between atoms: O_4  and  C_29
REMARK    5  A    between atoms: N_7  and  C_19
REMARK    6  A    between atoms: N_8  and  C_20
REMARK    7  A    between atoms: C_9  and  C_15
REMARK    8  A    between atoms: C_10  and  C_14
REMARK    9  A    between atoms: C_14  and  C_16
REMARK   10  A    between atoms: C_15  and  C_18
REMARK   11  A    between atoms: C_19  and  C_21
REMARK   12  A    between atoms: C_24  and  C_27
REMARK   13  A    between atoms: C_29  and  C_30
REMARK                            x       y       z     vdW  Elec       q    Type
REMARK                         _______ _______ _______ _____ _____    ______ ____
ROOT
ATOM      2  O   UNL     1      -2.045   1.905  21.785  0.00  0.00    -0.252 OA
ATOM      6  N   UNL     1      -2.588   3.460  23.405  0.00  0.00    -0.285 N 
ATOM      8  N   UNL     1      -0.434   2.500  23.343  0.00  0.00    -0.269 N 
ATOM      9  C   UNL     1      -4.691   4.128  25.278  0.00  0.00    +0.004 C 
ATOM     10  C   UNL     1      -3.213   4.013  25.739  0.00  0.00    +0.010 C 
ATOM     11  C   UNL     1      -4.962   3.288  24.015  0.00  0.00    +0.023 C 
ATOM     12  C   UNL     1      -2.280   4.322  24.557  0.00  0.00    +0.113 C 
ATOM     13  C   UNL     1      -3.957   3.600  22.908  0.00  0.00    +0.109 C 
ATOM     17  C   UNL     1      -1.699   2.573  22.761  0.00  0.00    +0.306 C 
ATOM     32  H   UNL     1      -0.076   3.317  23.823  0.00  0.00    +0.156 HD
ENDROOT
BRANCH   8  20
ATOM     20  C   UNL     1       0.442   1.386  23.361  0.00  0.00    +0.036 A 
ATOM     22  C   UNL     1       1.783   1.547  23.014  0.00  0.00    +0.038 A 
ATOM     23  C   UNL     1      -0.038   0.129  23.724  0.00  0.00    +0.023 A 
ATOM     24  C   UNL     1       2.645   0.451  23.031  0.00  0.00    +0.061 A 
ATOM     25  C   UNL     1       0.823  -0.969  23.741  0.00  0.00    +0.003 A 
ATOM     26  C   UNL     1       2.164  -0.807  23.395  0.00  0.00    +0.015 A 
BRANCH  24  27
ATOM      5  O   UNL     1       4.488   0.518  21.520  0.00  0.00    -0.245 OA
ATOM     27  C   UNL     1       4.043   0.618  22.671  0.00  0.00    +0.339 C 
BRANCH  27   4
ATOM      4  O   UNL     1       4.814   0.903  23.766  0.00  0.00    -0.461 OA
BRANCH   4  29
ATOM     29  C   UNL     1       5.950   0.063  23.994  0.00  0.00    +0.229 C 
ATOM     30  C   UNL     1       5.473  -1.351  24.253  0.00  0.00    +0.048 C 
ENDBRANCH   4  29
ENDBRANCH  27   4
ENDBRANCH  24  27
ENDBRANCH   8  20
BRANCH  10  14
ATOM     14  C   UNL     1      -2.857   2.660  26.364  0.00  0.00    +0.002 C 
ATOM     16  C   UNL     1      -1.357   2.462  26.422  0.00  0.00    +0.004 C 
ENDBRANCH  10  14
BRANCH   9  15
ATOM     15  C   UNL     1      -5.692   3.783  26.381  0.00  0.00    +0.099 C 
BRANCH  15  18
ATOM      3  O   UNL     1      -6.870   1.818  27.157  0.00  0.00    -0.276 OA
ATOM      7  N   UNL     1      -5.297   1.610  25.458  0.00  0.00    -0.315 N 
ATOM     18  C   UNL     1      -6.039   2.310  26.398  0.00  0.00    +0.213 C 
ATOM     31  H   UNL     1      -4.624   2.110  24.884  0.00  0.00    +0.149 HD
BRANCH   7  19
ATOM     19  C   UNL     1      -5.421   0.184  25.257  0.00  0.00    +0.115 C 
BRANCH  19  21
ATOM     21  C   UNL     1      -4.249  -0.412  24.490  0.00  0.00    +0.087 C 
BRANCH  21   1
ATOM      1  S   UNL     1      -3.036  -1.200  25.592  0.00  0.00    -0.163 S 
ATOM     28  C   UNL     1      -2.508  -2.530  24.487  0.00  0.00    +0.084 C 
ENDBRANCH  21   1
ENDBRANCH  19  21
ENDBRANCH   7  19
ENDBRANCH  15  18
ENDBRANCH   9  15
TORSDOF 10
ENDMDL
MODEL 5
REMARK VINA RESULT:       4.1      2.648      8.193
REMARK  Name = 11912415
REMARK  13 active torsions:
REMARK  status: ('A' for Active; 'I' for Inactive)
REMARK    1  A    between atoms: S_1  and  C_21
REMARK    2  A    between atoms: S_1  and  C_28
REMARK    3  A    between atoms: O_4  and  C_27
REMARK    4  A    between atoms: O_4  and  C_29
REMARK    5  A    between atoms: N_7  and  C_19
REMARK    6  A    between atoms: N_8  and  C_20
REMARK    7  A    between atoms: C_9  and  C_15
REMARK    8  A    between atoms: C_10  and  C_14
REMARK    9  A    between atoms: C_14  and  C_16
REMARK   10  A    between atoms: C_15  and  C_18
REMARK   11  A    between atoms: C_19  and  C_21
REMARK   12  A    between atoms: C_24  and  C_27
REMARK   13  A    between atoms: C_29  and  C_30
REMARK                            x       y       z     vdW  Elec       q    Type
REMARK                         _______ _______ _______ _____ _____    ______ ____
ROOT
ATOM      2  O   UNL     1      -3.561  -1.432  23.533  0.00  0.00    -0.252 OA
ATOM      6  N   UNL     1      -1.370  -1.118  24.199  0.00  0.00    -0.285 N 
ATOM      8  N   UNL     1      -3.129  -0.006  25.310  0.00  0.00    -0.269 N 
ATOM      9  C   UNL     1       1.268  -0.621  23.118  0.00  0.00    +0.004 C 
ATOM     10  C   UNL     1       0.689   0.261  24.257  0.00  0.00    +0.010 C 
ATOM     11  C   UNL     1       0.154  -1.273  22.277  0.00  0.00    +0.023 C 
ATOM     12  C   UNL     1      -0.328  -0.555  25.072  0.00  0.00    +0.113 C 
ATOM     13  C   UNL     1      -0.855  -2.008  23.157  0.00  0.00    +0.109 C 
ATOM     17  C   UNL     1      -2.760  -0.896  24.301  0.00  0.00    +0.306 C 
ATOM     32  H   UNL     1      -2.542   0.061  26.133  0.00  0.00    +0.156 HD
ENDROOT
BRANCH   8  20
ATOM     20  C   UNL     1      -4.253   0.858  25.326  0.00  0.00    +0.036 A 
ATOM     22  C   UNL     1      -4.070   2.240  25.301  0.00  0.00    +0.038 A 
ATOM     23  C   UNL     1      -5.540   0.324  25.366  0.00  0.00    +0.023 A 
ATOM     24  C   UNL     1      -5.176   3.090  25.317  0.00  0.00    +0.061 A 
ATOM     25  C   UNL     1      -6.646   1.174  25.382  0.00  0.00    +0.003 A 
ATOM     26  C   UNL     1      -6.464   2.556  25.357  0.00  0.00    +0.015 A 
BRANCH  24  27
ATOM      5  O   UNL     1      -5.834   5.356  25.659  0.00  0.00    -0.245 OA
ATOM     27  C   UNL     1      -4.988   4.531  25.290  0.00  0.00    +0.339 C 
BRANCH  27   4
ATOM      4  O   UNL     1      -3.752   4.868  24.807  0.00  0.00    -0.461 OA
BRANCH   4  29
ATOM     29  C   UNL     1      -2.658   4.802  25.727  0.00  0.00    +0.229 C 
ATOM     30  C   UNL     1      -1.440   5.439  25.091  0.00  0.00    +0.048 C 
ENDBRANCH   4  29
ENDBRANCH  27   4
ENDBRANCH  24  27
ENDBRANCH   8  20
BRANCH  10  14
ATOM     14  C   UNL     1       0.061   1.573  23.773  0.00  0.00    +0.002 C 
ATOM     16  C   UNL     1      -0.257   2.488  24.937  0.00  0.00    +0.004 C 
ENDBRANCH  10  14
BRANCH   9  15
ATOM     15  C   UNL     1       2.252   0.129  22.220  0.00  0.00    +0.099 C 
BRANCH  15  18
ATOM      3  O   UNL     1       3.979   1.624  23.018  0.00  0.00    -0.276 OA
ATOM      7  N   UNL     1       4.121  -0.645  23.499  0.00  0.00    -0.315 N 
ATOM     18  C   UNL     1       3.533   0.482  22.945  0.00  0.00    +0.213 C 
ATOM     31  H   UNL     1       3.677  -1.550  23.373  0.00  0.00    +0.149 HD
BRANCH   7  19
ATOM     19  C   UNL     1       5.357  -0.604  24.248  0.00  0.00    +0.115 C 
BRANCH  19  21
ATOM     21  C   UNL     1       6.451   0.189  23.546  0.00  0.00    +0.087 C 
BRANCH  21   1
ATOM      1  S   UNL     1       7.674  -0.890  22.741  0.00  0.00    -0.163 S 
ATOM     28  C   UNL     1       9.157   0.069  23.123  0.00  0.00    +0.084 C 
ENDBRANCH  21   1
ENDBRANCH  19  21
ENDBRANCH   7  19
ENDBRANCH  15  18
ENDBRANCH   9  15
TORSDOF 10
ENDMDL
