MODEL 1
REMARK VINA RESULT:      -2.0      0.000      0.000
REMARK  Name = 25312971
REMARK  8 active torsions:
REMARK  status: ('A' for Active; 'I' for Inactive)
REMARK    1  A    between atoms: O_6  and  C_21
REMARK    2  A    between atoms: N_9  and  C_17
REMARK    3  A    between atoms: C_10  and  C_14
REMARK    4  A    between atoms: C_11  and  C_16
REMARK    5  A    between atoms: C_14  and  C_17
REMARK    6  A    between atoms: C_16  and  C_21
REMARK    7  A    between atoms: C_18  and  C_24
REMARK    8  A    between atoms: C_29  and  C_30
REMARK                            x       y       z     vdW  Elec       q    Type
REMARK                         _______ _______ _______ _____ _____    ______ ____
ROOT
ATOM      5  O   UNL     1      -0.128   4.463  24.814  0.00  0.00    -0.270 OA
ATOM      8  N   UNL     1      -0.003   2.499  23.548  0.00  0.00    -0.297 N 
ATOM     10  C   UNL     1       0.152   0.022  23.434  0.00  0.00    +0.011 C 
ATOM     11  C   UNL     1       1.652   0.172  23.070  0.00  0.00    +0.006 C 
ATOM     12  C   UNL     1      -0.620   1.282  23.003  0.00  0.00    +0.112 C 
ATOM     13  C   UNL     1       2.240   1.481  23.622  0.00  0.00    +0.023 C 
ATOM     15  C   UNL     1       1.404   2.685  23.196  0.00  0.00    +0.108 C 
ATOM     18  C   UNL     1      -0.643   3.446  24.351  0.00  0.00    +0.247 C 
ENDROOT
BRANCH  18  24
ATOM     24  C   UNL     1      -2.055   3.226  24.684  0.00  0.00    +0.037 A 
ATOM     25  C   UNL     1      -2.907   2.629  23.755  0.00  0.00    +0.013 A 
ATOM     26  C   UNL     1      -2.545   3.616  25.930  0.00  0.00    +0.013 A 
ATOM     27  C   UNL     1      -4.250   2.422  24.072  0.00  0.00    +0.013 A 
ATOM     28  C   UNL     1      -3.887   3.409  26.247  0.00  0.00    +0.013 A 
ATOM     29  C   UNL     1      -4.739   2.811  25.318  0.00  0.00    +0.055 A 
BRANCH  29  30
ATOM      1  F   UNL     1      -6.848   1.849  24.727  0.00  0.00    -0.166 F 
ATOM      2  F   UNL     1      -6.874   3.756  25.770  0.00  0.00    -0.166 F 
ATOM      3  F   UNL     1      -6.364   1.934  26.839  0.00  0.00    -0.166 F 
ATOM     30  C   UNL     1      -6.175   2.590  25.657  0.00  0.00    +0.417 C 
ENDBRANCH  29  30
ENDBRANCH  18  24
BRANCH  10  14
ATOM     14  C   UNL     1      -0.101  -0.278  24.917  0.00  0.00    +0.020 C 
BRANCH  14  17
ATOM     17  C   UNL     1      -0.471  -1.740  25.120  0.00  0.00    +0.085 C 
BRANCH  17   9
ATOM      4  O   UNL     1      -4.567  -1.326  24.305  0.00  0.00    -0.377 OA
ATOM      9  N   UNL     1      -1.923  -1.878  25.204  0.00  0.00    -0.298 NA
ATOM     19  C   UNL     1      -2.461  -2.488  23.980  0.00  0.00    +0.112 C 
ATOM     20  C   UNL     1      -2.558  -0.573  25.437  0.00  0.00    +0.112 C 
ATOM     22  C   UNL     1      -3.979  -2.609  24.086  0.00  0.00    +0.175 C 
ATOM     23  C   UNL     1      -4.073  -0.740  25.510  0.00  0.00    +0.175 C 
ENDBRANCH  17   9
ENDBRANCH  14  17
ENDBRANCH  10  14
BRANCH  11  16
ATOM     16  C   UNL     1       2.498  -1.024  23.506  0.00  0.00    +0.124 C 
BRANCH  16  21
ATOM      7  O   UNL     1       4.491   0.158  22.752  0.00  0.00    -0.251 OA
ATOM     21  C   UNL     1       3.969  -0.728  23.412  0.00  0.00    +0.305 C 
BRANCH  21   6
ATOM      6  O   UNL     1       4.663  -1.602  24.183  0.00  0.00    -0.481 OA
ATOM     31  H   UNL     1       4.705  -2.495  23.779  0.00  0.00    +0.295 HD
ENDBRANCH  21   6
ENDBRANCH  16  21
ENDBRANCH  11  16
TORSDOF 8
ENDMDL
MODEL 2
REMARK VINA RESULT:      -0.5      1.446      4.054
REMARK  Name = 25312971
REMARK  8 active torsions:
REMARK  status: ('A' for Active; 'I' for Inactive)
REMARK    1  A    between atoms: O_6  and  C_21
REMARK    2  A    between atoms: N_9  and  C_17
REMARK    3  A    between atoms: C_10  and  C_14
REMARK    4  A    between atoms: C_11  and  C_16
REMARK    5  A    between atoms: C_14  and  C_17
REMARK    6  A    between atoms: C_16  and  C_21
REMARK    7  A    between atoms: C_18  and  C_24
REMARK    8  A    between atoms: C_29  and  C_30
REMARK                            x       y       z     vdW  Elec       q    Type
REMARK                         _______ _______ _______ _____ _____    ______ ____
ROOT
ATOM      5  O   UNL     1      -2.008  -2.672  24.095  0.00  0.00    -0.270 OA
ATOM      8  N   UNL     1      -0.520  -0.958  24.660  0.00  0.00    -0.297 N 
ATOM     10  C   UNL     1       0.629   1.169  24.082  0.00  0.00    +0.011 C 
ATOM     11  C   UNL     1       1.916   0.351  23.800  0.00  0.00    +0.006 C 
ATOM     12  C   UNL     1      -0.255   0.420  25.097  0.00  0.00    +0.112 C 
ATOM     13  C   UNL     1       1.589  -1.095  23.393  0.00  0.00    +0.023 C 
ATOM     15  C   UNL     1       0.675  -1.764  24.416  0.00  0.00    +0.108 C 
ATOM     18  C   UNL     1      -1.783  -1.521  24.466  0.00  0.00    +0.247 C 
ENDROOT
BRANCH  18  24
ATOM     24  C   UNL     1      -2.959  -0.682  24.720  0.00  0.00    +0.037 A 
ATOM     25  C   UNL     1      -3.608  -0.050  23.659  0.00  0.00    +0.013 A 
ATOM     26  C   UNL     1      -3.428  -0.515  26.023  0.00  0.00    +0.013 A 
ATOM     27  C   UNL     1      -4.725   0.751  23.902  0.00  0.00    +0.013 A 
ATOM     28  C   UNL     1      -4.545   0.285  26.266  0.00  0.00    +0.013 A 
ATOM     29  C   UNL     1      -5.194   0.917  25.205  0.00  0.00    +0.055 A 
BRANCH  29  30
ATOM      1  F   UNL     1      -6.103   3.107  25.521  0.00  0.00    -0.166 F 
ATOM      2  F   UNL     1      -6.998   1.477  26.648  0.00  0.00    -0.166 F 
ATOM      3  F   UNL     1      -7.360   1.656  24.512  0.00  0.00    -0.166 F 
ATOM     30  C   UNL     1      -6.388   1.772  25.463  0.00  0.00    +0.417 C 
ENDBRANCH  29  30
ENDBRANCH  18  24
BRANCH  10  14
ATOM     14  C   UNL     1      -0.178   1.513  22.824  0.00  0.00    +0.020 C 
BRANCH  14  17
ATOM     17  C   UNL     1      -1.555   2.046  23.192  0.00  0.00    +0.085 C 
BRANCH  17   9
ATOM      4  O   UNL     1      -1.902   5.569  25.446  0.00  0.00    -0.377 OA
ATOM      9  N   UNL     1      -1.439   3.014  24.280  0.00  0.00    -0.298 NA
ATOM     19  C   UNL     1      -2.767   3.403  24.776  0.00  0.00    +0.112 C 
ATOM     20  C   UNL     1      -0.696   4.204  23.843  0.00  0.00    +0.112 C 
ATOM     22  C   UNL     1      -2.621   4.423  25.902  0.00  0.00    +0.175 C 
ATOM     23  C   UNL     1      -0.598   5.203  24.992  0.00  0.00    +0.175 C 
ENDBRANCH  17   9
ENDBRANCH  14  17
ENDBRANCH  10  14
BRANCH  11  16
ATOM     16  C   UNL     1       2.830   1.008  22.766  0.00  0.00    +0.124 C 
BRANCH  16  21
ATOM      7  O   UNL     1       4.998   0.151  22.058  0.00  0.00    -0.251 OA
ATOM     21  C   UNL     1       4.260   0.575  22.934  0.00  0.00    +0.305 C 
BRANCH  21   6
ATOM      6  O   UNL     1       4.635   0.724  24.230  0.00  0.00    -0.481 OA
ATOM     31  H   UNL     1       4.591   1.660  24.519  0.00  0.00    +0.295 HD
ENDBRANCH  21   6
ENDBRANCH  16  21
ENDBRANCH  11  16
TORSDOF 8
ENDMDL
MODEL 3
REMARK VINA RESULT:       0.5      1.592      4.301
REMARK  Name = 25312971
REMARK  8 active torsions:
REMARK  status: ('A' for Active; 'I' for Inactive)
REMARK    1  A    between atoms: O_6  and  C_21
REMARK    2  A    between atoms: N_9  and  C_17
REMARK    3  A    between atoms: C_10  and  C_14
REMARK    4  A    between atoms: C_11  and  C_16
REMARK    5  A    between atoms: C_14  and  C_17
REMARK    6  A    between atoms: C_16  and  C_21
REMARK    7  A    between atoms: C_18  and  C_24
REMARK    8  A    between atoms: C_29  and  C_30
REMARK                            x       y       z     vdW  Elec       q    Type
REMARK                         _______ _______ _______ _____ _____    ______ ____
ROOT
ATOM      5  O   UNL     1      -4.453  -1.357  23.401  0.00  0.00    -0.270 OA
ATOM      8  N   UNL     1      -2.496  -1.055  24.648  0.00  0.00    -0.297 N 
ATOM     10  C   UNL     1      -0.238  -0.047  24.893  0.00  0.00    +0.011 C 
ATOM     11  C   UNL     1       0.373  -1.431  24.554  0.00  0.00    +0.006 C 
ATOM     12  C   UNL     1      -1.638  -0.229  25.509  0.00  0.00    +0.112 C 
ATOM     13  C   UNL     1      -0.581  -2.275  23.693  0.00  0.00    +0.023 C 
ATOM     15  C   UNL     1      -1.961  -2.378  24.336  0.00  0.00    +0.108 C 
ATOM     18  C   UNL     1      -3.734  -0.671  24.127  0.00  0.00    +0.247 C 
ENDROOT
BRANCH  18  24
ATOM     24  C   UNL     1      -4.239   0.665  24.461  0.00  0.00    +0.037 A 
ATOM     25  C   UNL     1      -5.118   0.831  25.531  0.00  0.00    +0.013 A 
ATOM     26  C   UNL     1      -3.842   1.768  23.707  0.00  0.00    +0.013 A 
ATOM     27  C   UNL     1      -5.601   2.102  25.847  0.00  0.00    +0.013 A 
ATOM     28  C   UNL     1      -4.323   3.039  24.022  0.00  0.00    +0.013 A 
ATOM     29  C   UNL     1      -5.202   3.205  25.093  0.00  0.00    +0.055 A 
BRANCH  29  30
ATOM      1  F   UNL     1      -5.626   5.455  24.400  0.00  0.00    -0.166 F 
ATOM      2  F   UNL     1      -5.044   5.137  26.470  0.00  0.00    -0.166 F 
ATOM      3  F   UNL     1      -7.033   4.575  25.795  0.00  0.00    -0.166 F 
ATOM     30  C   UNL     1      -5.717   4.564  25.431  0.00  0.00    +0.417 C 
ENDBRANCH  29  30
ENDBRANCH  18  24
BRANCH  10  14
ATOM     14  C   UNL     1      -0.301   0.915  23.700  0.00  0.00    +0.020 C 
BRANCH  14  17
ATOM     17  C   UNL     1       0.248   2.283  24.076  0.00  0.00    +0.085 C 
BRANCH  17   9
ATOM      4  O   UNL     1      -1.910   5.326  25.999  0.00  0.00    -0.377 OA
ATOM      9  N   UNL     1      -0.845   3.160  24.489  0.00  0.00    -0.298 NA
ATOM     19  C   UNL     1      -0.553   4.558  24.140  0.00  0.00    +0.112 C 
ATOM     20  C   UNL     1      -1.089   3.043  25.934  0.00  0.00    +0.112 C 
ATOM     22  C   UNL     1      -1.701   5.456  24.593  0.00  0.00    +0.175 C 
ATOM     23  C   UNL     1      -2.225   3.976  26.343  0.00  0.00    +0.175 C 
ENDBRANCH  17   9
ENDBRANCH  14  17
ENDBRANCH  10  14
BRANCH  11  16
ATOM     16  C   UNL     1       1.750  -1.334  23.897  0.00  0.00    +0.124 C 
BRANCH  16  21
ATOM      7  O   UNL     1       0.995  -0.610  21.696  0.00  0.00    -0.251 OA
ATOM     21  C   UNL     1       1.720  -0.467  22.669  0.00  0.00    +0.305 C 
BRANCH  21   6
ATOM      6  O   UNL     1       2.635   0.528  22.788  0.00  0.00    -0.481 OA
ATOM     31  H   UNL     1       2.219   1.415  22.747  0.00  0.00    +0.295 HD
ENDBRANCH  21   6
ENDBRANCH  16  21
ENDBRANCH  11  16
TORSDOF 8
ENDMDL
MODEL 4
REMARK VINA RESULT:       0.6      4.105      7.784
REMARK  Name = 25312971
REMARK  8 active torsions:
REMARK  status: ('A' for Active; 'I' for Inactive)
REMARK    1  A    between atoms: O_6  and  C_21
REMARK    2  A    between atoms: N_9  and  C_17
REMARK    3  A    between atoms: C_10  and  C_14
REMARK    4  A    between atoms: C_11  and  C_16
REMARK    5  A    between atoms: C_14  and  C_17
REMARK    6  A    between atoms: C_16  and  C_21
REMARK    7  A    between atoms: C_18  and  C_24
REMARK    8  A    between atoms: C_29  and  C_30
REMARK                            x       y       z     vdW  Elec       q    Type
REMARK                         _______ _______ _______ _____ _____    ______ ____
ROOT
ATOM      5  O   UNL     1      -1.391  -3.004  23.874  0.00  0.00    -0.270 OA
ATOM      8  N   UNL     1      -2.599  -1.019  23.598  0.00  0.00    -0.297 N 
ATOM     10  C   UNL     1      -3.317   1.198  24.461  0.00  0.00    +0.011 C 
ATOM     11  C   UNL     1      -4.701   0.579  24.785  0.00  0.00    +0.006 C 
ATOM     12  C   UNL     1      -2.653   0.421  23.309  0.00  0.00    +0.112 C 
ATOM     13  C   UNL     1      -4.600  -0.936  25.033  0.00  0.00    +0.023 C 
ATOM     15  C   UNL     1      -3.893  -1.638  23.877  0.00  0.00    +0.108 C 
ATOM     18  C   UNL     1      -1.441  -1.800  23.627  0.00  0.00    +0.247 C 
ENDROOT
BRANCH  18  24
ATOM     24  C   UNL     1      -0.160  -1.144  23.342  0.00  0.00    +0.037 A 
ATOM     25  C   UNL     1       0.624  -0.659  24.390  0.00  0.00    +0.013 A 
ATOM     26  C   UNL     1       0.274  -1.006  22.025  0.00  0.00    +0.013 A 
ATOM     27  C   UNL     1       1.841  -0.033  24.118  0.00  0.00    +0.013 A 
ATOM     28  C   UNL     1       1.491  -0.381  21.753  0.00  0.00    +0.013 A 
ATOM     29  C   UNL     1       2.275   0.105  22.800  0.00  0.00    +0.055 A 
BRANCH  29  30
ATOM      1  F   UNL     1       3.581   2.109  22.796  0.00  0.00    -0.166 F 
ATOM      2  F   UNL     1       3.934   0.679  21.197  0.00  0.00    -0.166 F 
ATOM      3  F   UNL     1       4.626   0.256  23.214  0.00  0.00    -0.166 F 
ATOM     30  C   UNL     1       3.577   0.773  22.511  0.00  0.00    +0.417 C 
ENDBRANCH  29  30
ENDBRANCH  18  24
BRANCH  10  14
ATOM     14  C   UNL     1      -2.372   1.275  25.667  0.00  0.00    +0.020 C 
BRANCH  14  17
ATOM     17  C   UNL     1      -1.044   1.908  25.276  0.00  0.00    +0.085 C 
BRANCH  17   9
ATOM      4  O   UNL     1      -1.936   5.985  24.833  0.00  0.00    -0.377 OA
ATOM      9  N   UNL     1      -1.095   3.350  25.506  0.00  0.00    -0.298 NA
ATOM     19  C   UNL     1      -2.479   3.795  25.726  0.00  0.00    +0.112 C 
ATOM     20  C   UNL     1      -0.505   4.080  24.376  0.00  0.00    +0.112 C 
ATOM     22  C   UNL     1      -2.509   5.304  25.950  0.00  0.00    +0.175 C 
ATOM     23  C   UNL     1      -0.581   5.582  24.633  0.00  0.00    +0.175 C 
ENDBRANCH  17   9
ENDBRANCH  14  17
ENDBRANCH  10  14
BRANCH  11  16
ATOM     16  C   UNL     1      -5.409   1.269  25.951  0.00  0.00    +0.124 C 
BRANCH  16  21
ATOM      7  O   UNL     1      -6.009   3.623  25.759  0.00  0.00    -0.251 OA
ATOM     21  C   UNL     1      -6.218   2.450  25.490  0.00  0.00    +0.305 C 
BRANCH  21   6
ATOM      6  O   UNL     1      -7.244   2.026  24.710  0.00  0.00    -0.481 OA
ATOM     31  H   UNL     1      -7.775   1.328  25.149  0.00  0.00    +0.295 HD
ENDBRANCH  21   6
ENDBRANCH  16  21
ENDBRANCH  11  16
TORSDOF 8
ENDMDL
MODEL 5
REMARK VINA RESULT:       1.0      1.841      3.645
REMARK  Name = 25312971
REMARK  8 active torsions:
REMARK  status: ('A' for Active; 'I' for Inactive)
REMARK    1  A    between atoms: O_6  and  C_21
REMARK    2  A    between atoms: N_9  and  C_17
REMARK    3  A    between atoms: C_10  and  C_14
REMARK    4  A    between atoms: C_11  and  C_16
REMARK    5  A    between atoms: C_14  and  C_17
REMARK    6  A    between atoms: C_16  and  C_21
REMARK    7  A    between atoms: C_18  and  C_24
REMARK    8  A    between atoms: C_29  and  C_30
REMARK                            x       y       z     vdW  Elec       q    Type
REMARK                         _______ _______ _______ _____ _____    ______ ____
ROOT
ATOM      5  O   UNL     1      -2.006   1.027  20.784  0.00  0.00    -0.270 OA
ATOM      8  N   UNL     1      -0.607   0.045  22.383  0.00  0.00    -0.297 N 
ATOM     10  C   UNL     1       0.996   0.275  24.267  0.00  0.00    +0.011 C 
ATOM     11  C   UNL     1       2.144  -0.060  23.279  0.00  0.00    +0.006 C 
ATOM     12  C   UNL     1      -0.321  -0.348  23.769  0.00  0.00    +0.112 C 
ATOM     13  C   UNL     1       1.778   0.326  21.836  0.00  0.00    +0.023 C 
ATOM     15  C   UNL     1       0.443  -0.286  21.422  0.00  0.00    +0.108 C 
ATOM     18  C   UNL     1      -1.766   0.691  21.943  0.00  0.00    +0.247 C 
ENDROOT
BRANCH  18  24
ATOM     24  C   UNL     1      -2.798   1.007  22.936  0.00  0.00    +0.037 A 
ATOM     25  C   UNL     1      -3.358   2.285  22.978  0.00  0.00    +0.013 A 
ATOM     26  C   UNL     1      -3.219   0.032  23.838  0.00  0.00    +0.013 A 
ATOM     27  C   UNL     1      -4.338   2.586  23.924  0.00  0.00    +0.013 A 
ATOM     28  C   UNL     1      -4.200   0.332  24.784  0.00  0.00    +0.013 A 
ATOM     29  C   UNL     1      -4.760   1.609  24.826  0.00  0.00    +0.055 A 
BRANCH  29  30
ATOM      1  F   UNL     1      -5.967   0.963  26.787  0.00  0.00    -0.166 F 
ATOM      2  F   UNL     1      -7.041   2.101  25.279  0.00  0.00    -0.166 F 
ATOM      3  F   UNL     1      -5.561   3.078  26.536  0.00  0.00    -0.166 F 
ATOM     30  C   UNL     1      -5.808   1.931  25.837  0.00  0.00    +0.417 C 
ENDBRANCH  29  30
ENDBRANCH  18  24
BRANCH  10  14
ATOM     14  C   UNL     1       0.813   1.776  24.523  0.00  0.00    +0.020 C 
BRANCH  14  17
ATOM     17  C   UNL     1       0.192   2.021  25.890  0.00  0.00    +0.085 C 
BRANCH  17   9
ATOM      4  O   UNL     1      -2.459   5.135  24.945  0.00  0.00    -0.377 OA
ATOM      9  N   UNL     1      -0.491   3.313  25.900  0.00  0.00    -0.298 NA
ATOM     19  C   UNL     1      -1.915   3.147  26.226  0.00  0.00    +0.112 C 
ATOM     20  C   UNL     1      -0.347   3.989  24.604  0.00  0.00    +0.112 C 
ATOM     22  C   UNL     1      -2.610   4.506  26.218  0.00  0.00    +0.175 C 
ATOM     23  C   UNL     1      -1.078   5.329  24.635  0.00  0.00    +0.175 C 
ENDBRANCH  17   9
ENDBRANCH  14  17
ENDBRANCH  10  14
BRANCH  11  16
ATOM     16  C   UNL     1       3.481   0.561  23.680  0.00  0.00    +0.124 C 
BRANCH  16  21
ATOM      7  O   UNL     1       5.749  -0.218  23.245  0.00  0.00    -0.251 OA
ATOM     21  C   UNL     1       4.602  -0.438  23.605  0.00  0.00    +0.305 C 
BRANCH  21   6
ATOM      6  O   UNL     1       4.158  -1.657  24.004  0.00  0.00    -0.481 OA
ATOM     31  H   UNL     1       3.612  -2.091  23.314  0.00  0.00    +0.295 HD
ENDBRANCH  21   6
ENDBRANCH  16  21
ENDBRANCH  11  16
TORSDOF 8
ENDMDL
MODEL 6
REMARK VINA RESULT:       1.3      4.356      7.107
REMARK  Name = 25312971
REMARK  8 active torsions:
REMARK  status: ('A' for Active; 'I' for Inactive)
REMARK    1  A    between atoms: O_6  and  C_21
REMARK    2  A    between atoms: N_9  and  C_17
REMARK    3  A    between atoms: C_10  and  C_14
REMARK    4  A    between atoms: C_11  and  C_16
REMARK    5  A    between atoms: C_14  and  C_17
REMARK    6  A    between atoms: C_16  and  C_21
REMARK    7  A    between atoms: C_18  and  C_24
REMARK    8  A    between atoms: C_29  and  C_30
REMARK                            x       y       z     vdW  Elec       q    Type
REMARK                         _______ _______ _______ _____ _____    ______ ____
ROOT
ATOM      5  O   UNL     1      -1.799   0.430  21.621  0.00  0.00    -0.270 OA
ATOM      8  N   UNL     1      -1.752   2.348  22.960  0.00  0.00    -0.297 N 
ATOM     10  C   UNL     1      -1.749   3.397  25.212  0.00  0.00    +0.011 C 
ATOM     11  C   UNL     1      -3.240   3.768  24.998  0.00  0.00    +0.006 C 
ATOM     12  C   UNL     1      -1.040   3.274  23.851  0.00  0.00    +0.112 C 
ATOM     13  C   UNL     1      -3.929   2.800  24.022  0.00  0.00    +0.023 C 
ATOM     15  C   UNL     1      -3.152   2.689  22.713  0.00  0.00    +0.108 C 
ATOM     18  C   UNL     1      -1.204   1.210  22.363  0.00  0.00    +0.247 C 
ENDROOT
BRANCH  18  24
ATOM     24  C   UNL     1       0.204   0.899  22.633  0.00  0.00    +0.037 A 
ATOM     25  C   UNL     1       0.918   1.651  23.567  0.00  0.00    +0.013 A 
ATOM     26  C   UNL     1       0.828  -0.148  21.957  0.00  0.00    +0.013 A 
ATOM     27  C   UNL     1       2.257   1.357  23.822  0.00  0.00    +0.013 A 
ATOM     28  C   UNL     1       2.167  -0.443  22.212  0.00  0.00    +0.013 A 
ATOM     29  C   UNL     1       2.881   0.309  23.146  0.00  0.00    +0.055 A 
BRANCH  29  30
ATOM      1  F   UNL     1       5.132   0.189  22.342  0.00  0.00    -0.166 F 
ATOM      2  F   UNL     1       4.504  -1.305  23.792  0.00  0.00    -0.166 F 
ATOM      3  F   UNL     1       4.858   0.746  24.420  0.00  0.00    -0.166 F 
ATOM     30  C   UNL     1       4.313  -0.006  23.419  0.00  0.00    +0.417 C 
ENDBRANCH  29  30
ENDBRANCH  18  24
BRANCH  10  14
ATOM     14  C   UNL     1      -1.538   2.124  26.042  0.00  0.00    +0.020 C 
BRANCH  14  17
ATOM     17  C   UNL     1      -2.664   1.128  25.802  0.00  0.00    +0.085 C 
BRANCH  17   9
ATOM      4  O   UNL     1      -1.446  -2.818  25.051  0.00  0.00    -0.377 OA
ATOM      9  N   UNL     1      -2.141  -0.058  25.127  0.00  0.00    -0.298 NA
ATOM     19  C   UNL     1      -3.168  -1.107  25.047  0.00  0.00    +0.112 C 
ATOM     20  C   UNL     1      -0.951  -0.571  25.821  0.00  0.00    +0.112 C 
ATOM     22  C   UNL     1      -2.595  -2.340  24.351  0.00  0.00    +0.175 C 
ATOM     23  C   UNL     1      -0.431  -1.815  25.106  0.00  0.00    +0.175 C 
ENDBRANCH  17   9
ENDBRANCH  14  17
ENDBRANCH  10  14
BRANCH  11  16
ATOM     16  C   UNL     1      -4.027   3.867  26.304  0.00  0.00    +0.124 C 
BRANCH  16  21
ATOM      7  O   UNL     1      -5.867   2.270  26.299  0.00  0.00    -0.251 OA
ATOM     21  C   UNL     1      -5.448   3.406  26.133  0.00  0.00    +0.305 C 
BRANCH  21   6
ATOM      6  O   UNL     1      -6.228   4.451  25.759  0.00  0.00    -0.481 OA
ATOM     31  H   UNL     1      -6.547   4.358  24.836  0.00  0.00    +0.295 HD
ENDBRANCH  21   6
ENDBRANCH  16  21
ENDBRANCH  11  16
TORSDOF 8
ENDMDL
MODEL 7
REMARK VINA RESULT:       1.7      4.023      6.700
REMARK  Name = 25312971
REMARK  8 active torsions:
REMARK  status: ('A' for Active; 'I' for Inactive)
REMARK    1  A    between atoms: O_6  and  C_21
REMARK    2  A    between atoms: N_9  and  C_17
REMARK    3  A    between atoms: C_10  and  C_14
REMARK    4  A    between atoms: C_11  and  C_16
REMARK    5  A    between atoms: C_14  and  C_17
REMARK    6  A    between atoms: C_16  and  C_21
REMARK    7  A    between atoms: C_18  and  C_24
REMARK    8  A    between atoms: C_29  and  C_30
REMARK                            x       y       z     vdW  Elec       q    Type
REMARK                         _______ _______ _______ _____ _____    ______ ____
ROOT
ATOM      5  O   UNL     1      -0.373   5.339  24.724  0.00  0.00    -0.270 OA
ATOM      8  N   UNL     1      -1.916   3.859  25.674  0.00  0.00    -0.297 N 
ATOM     10  C   UNL     1      -3.825   2.288  25.419  0.00  0.00    +0.011 C 
ATOM     11  C   UNL     1      -4.754   3.388  25.995  0.00  0.00    +0.006 C 
ATOM     12  C   UNL     1      -2.389   2.493  25.938  0.00  0.00    +0.112 C 
ATOM     13  C   UNL     1      -4.193   4.796  25.735  0.00  0.00    +0.023 C 
ATOM     15  C   UNL     1      -2.755   4.917  26.231  0.00  0.00    +0.108 C 
ATOM     18  C   UNL     1      -0.769   4.197  24.952  0.00  0.00    +0.247 C 
ENDROOT
BRANCH  18  24
ATOM     24  C   UNL     1       0.049   3.108  24.407  0.00  0.00    +0.037 A 
ATOM     25  C   UNL     1      -0.203   1.789  24.785  0.00  0.00    +0.013 A 
ATOM     26  C   UNL     1       1.080   3.391  23.512  0.00  0.00    +0.013 A 
ATOM     27  C   UNL     1       0.577   0.753  24.268  0.00  0.00    +0.013 A 
ATOM     28  C   UNL     1       1.859   2.357  22.994  0.00  0.00    +0.013 A 
ATOM     29  C   UNL     1       1.607   1.038  23.372  0.00  0.00    +0.055 A 
BRANCH  29  30
ATOM      1  F   UNL     1       3.774   0.223  22.768  0.00  0.00    -0.166 F 
ATOM      2  F   UNL     1       2.090  -0.403  21.544  0.00  0.00    -0.166 F 
ATOM      3  F   UNL     1       2.357  -1.227  23.538  0.00  0.00    -0.166 F 
ATOM     30  C   UNL     1       2.440  -0.069  22.820  0.00  0.00    +0.417 C 
ENDBRANCH  29  30
ENDBRANCH  18  24
BRANCH  10  14
ATOM     14  C   UNL     1      -3.832   2.206  23.888  0.00  0.00    +0.020 C 
BRANCH  14  17
ATOM     17  C   UNL     1      -3.117   0.951  23.408  0.00  0.00    +0.085 C 
BRANCH  17   9
ATOM      4  O   UNL     1      -3.516  -2.955  24.891  0.00  0.00    -0.377 OA
ATOM      9  N   UNL     1      -3.628  -0.216  24.124  0.00  0.00    -0.298 NA
ATOM     19  C   UNL     1      -2.643  -0.701  25.102  0.00  0.00    +0.112 C 
ATOM     20  C   UNL     1      -3.977  -1.291  23.186  0.00  0.00    +0.112 C 
ATOM     22  C   UNL     1      -3.193  -1.926  25.827  0.00  0.00    +0.175 C 
ATOM     23  C   UNL     1      -4.496  -2.502  23.957  0.00  0.00    +0.175 C 
ENDBRANCH  17   9
ENDBRANCH  14  17
ENDBRANCH  10  14
BRANCH  11  16
ATOM     16  C   UNL     1      -6.194   3.280  25.492  0.00  0.00    +0.124 C 
BRANCH  16  21
ATOM      7  O   UNL     1      -6.826   1.133  24.528  0.00  0.00    -0.251 OA
ATOM     21  C   UNL     1      -6.681   1.858  25.501  0.00  0.00    +0.305 C 
BRANCH  21   6
ATOM      6  O   UNL     1      -6.946   1.472  26.775  0.00  0.00    -0.481 OA
ATOM     31  H   UNL     1      -7.662   0.802  26.814  0.00  0.00    +0.295 HD
ENDBRANCH  21   6
ENDBRANCH  16  21
ENDBRANCH  11  16
TORSDOF 8
ENDMDL
