MODEL 1
REMARK VINA RESULT:       8.3      0.000      0.000
REMARK  Name = 11883053
REMARK  10 active torsions:
REMARK  status: ('A' for Active; 'I' for Inactive)
REMARK    1  A    between atoms: O_4  and  C_16
REMARK    2  A    between atoms: O_5  and  C_21
REMARK    3  A    between atoms: N_9  and  C_27
REMARK    4  A    between atoms: C_11  and  C_19
REMARK    5  A    between atoms: C_13  and  C_21
REMARK    6  A    between atoms: C_13  and  C_22
REMARK    7  A    between atoms: C_14  and  C_24
REMARK    8  A    between atoms: C_24  and  C_25
REMARK    9  A    between atoms: C_27  and  C_30
REMARK   10  A    between atoms: C_28  and  C_29
REMARK                            x       y       z     vdW  Elec       q    Type
REMARK                         _______ _______ _______ _____ _____    ______ ____
ROOT
ATOM      1  S   UNL     1       0.304   2.091  25.875  0.00  0.00    -0.057 S 
ATOM      7  O   UNL     1       1.804  -0.251  22.141  0.00  0.00    -0.270 OA
ATOM      8  N   UNL     1      -0.396   1.091  23.594  0.00  0.00    -0.229 NA
ATOM     10  N   UNL     1       1.909   0.811  24.242  0.00  0.00    -0.261 N 
ATOM     11  C   UNL     1      -4.036   2.039  24.442  0.00  0.00    -0.019 C 
ATOM     12  C   UNL     1      -3.589   3.302  25.302  0.00  0.00    +0.011 C 
ATOM     13  C   UNL     1      -4.727   4.090  26.061  0.00  0.00    +0.021 C 
ATOM     14  C   UNL     1      -2.844   1.679  23.440  0.00  0.00    +0.054 C 
ATOM     15  C   UNL     1      -5.287   2.403  23.602  0.00  0.00    +0.010 C 
ATOM     16  C   UNL     1      -5.918   4.330  25.091  0.00  0.00    +0.123 C 
ATOM     17  C   UNL     1      -2.352   2.979  26.189  0.00  0.00    +0.049 C 
ATOM     18  C   UNL     1      -6.402   3.056  24.408  0.00  0.00    +0.032 C 
ATOM     19  C   UNL     1      -4.366   0.803  25.316  0.00  0.00    +0.012 C 
ATOM     20  C   UNL     1      -1.518   1.671  24.156  0.00  0.00    +0.058 A 
ATOM     22  C   UNL     1      -4.184   5.485  26.480  0.00  0.00    +0.016 C 
ATOM     23  C   UNL     1      -1.315   2.276  25.380  0.00  0.00    +0.015 A 
ATOM     26  C   UNL     1       0.620   1.245  24.415  0.00  0.00    +0.165 A 
ATOM     28  C   UNL     1       2.418   0.104  23.141  0.00  0.00    +0.255 C 
ATOM     40  H   UNL     1       2.536   1.064  25.001  0.00  0.00    +0.157 HD
ENDROOT
BRANCH  28  29
ATOM      2  F   UNL     1       4.374   1.861  22.164  0.00  0.00    -0.205 F 
ATOM      3  F   UNL     1       3.373  -2.288  24.247  0.00  0.00    -0.205 F 
ATOM     29  C   UNL     1       3.869  -0.213  23.205  0.00  0.00    +0.107 A 
ATOM     31  C   UNL     1       4.772   0.700  22.705  0.00  0.00    +0.138 A 
ATOM     32  C   UNL     1       4.263  -1.411  23.764  0.00  0.00    +0.138 A 
ATOM     34  C   UNL     1       6.134   0.402  22.765  0.00  0.00    +0.039 A 
ATOM     35  C   UNL     1       5.625  -1.709  23.824  0.00  0.00    +0.039 A 
ATOM     36  C   UNL     1       6.560  -0.802  23.325  0.00  0.00    +0.006 A 
ENDBRANCH  28  29
BRANCH  16   4
ATOM      4  O   UNL     1      -7.016   4.926  25.782  0.00  0.00    -0.391 OA
ATOM     37  H   UNL     1      -6.780   5.846  25.983  0.00  0.00    +0.210 HD
ENDBRANCH  16   4
BRANCH  13  21
ATOM     21  C   UNL     1      -5.206   3.421  27.368  0.00  0.00    +0.165 C 
BRANCH  21   5
ATOM      5  O   UNL     1      -6.253   2.535  27.041  0.00  0.00    -0.394 OA
ATOM     38  H   UNL     1      -6.886   2.530  27.778  0.00  0.00    +0.209 HD
ENDBRANCH  21   5
ENDBRANCH  13  21
BRANCH  14  24
ATOM     24  C   UNL     1      -3.055   0.389  22.636  0.00  0.00    +0.106 C 
BRANCH  24  25
ATOM      6  O   UNL     1      -4.340  -1.345  23.730  0.00  0.00    -0.276 OA
ATOM      9  N   UNL     1      -2.047  -1.217  24.088  0.00  0.00    -0.304 N 
ATOM     25  C   UNL     1      -3.252  -0.812  23.531  0.00  0.00    +0.214 C 
ATOM     39  H   UNL     1      -1.186  -0.746  23.827  0.00  0.00    +0.150 HD
BRANCH   9  27
ATOM     27  C   UNL     1      -1.933  -2.341  24.990  0.00  0.00    +0.193 C 
BRANCH  27  30
ATOM     30  C   UNL     1      -0.536  -2.594  25.343  0.00  0.00    -0.087 C 
ATOM     33  C   UNL     1       0.611  -2.798  25.632  0.00  0.00    +0.005 C 
ENDBRANCH  27  30
ENDBRANCH   9  27
ENDBRANCH  24  25
ENDBRANCH  14  24
TORSDOF 8
ENDMDL
MODEL 2
REMARK VINA RESULT:       8.4      0.009      1.379
REMARK  Name = 11883053
REMARK  10 active torsions:
REMARK  status: ('A' for Active; 'I' for Inactive)
REMARK    1  A    between atoms: O_4  and  C_16
REMARK    2  A    between atoms: O_5  and  C_21
REMARK    3  A    between atoms: N_9  and  C_27
REMARK    4  A    between atoms: C_11  and  C_19
REMARK    5  A    between atoms: C_13  and  C_21
REMARK    6  A    between atoms: C_13  and  C_22
REMARK    7  A    between atoms: C_14  and  C_24
REMARK    8  A    between atoms: C_24  and  C_25
REMARK    9  A    between atoms: C_27  and  C_30
REMARK   10  A    between atoms: C_28  and  C_29
REMARK                            x       y       z     vdW  Elec       q    Type
REMARK                         _______ _______ _______ _____ _____    ______ ____
ROOT
ATOM      1  S   UNL     1       0.302   2.092  25.880  0.00  0.00    -0.057 S 
ATOM      7  O   UNL     1       1.808  -0.249  22.149  0.00  0.00    -0.270 OA
ATOM      8  N   UNL     1      -0.394   1.093  23.597  0.00  0.00    -0.229 NA
ATOM     10  N   UNL     1       1.910   0.812  24.250  0.00  0.00    -0.261 N 
ATOM     11  C   UNL     1      -4.035   2.044  24.438  0.00  0.00    -0.019 C 
ATOM     12  C   UNL     1      -3.589   3.306  25.300  0.00  0.00    +0.011 C 
ATOM     13  C   UNL     1      -4.728   4.094  26.056  0.00  0.00    +0.021 C 
ATOM     14  C   UNL     1      -2.841   1.683  23.439  0.00  0.00    +0.054 C 
ATOM     15  C   UNL     1      -5.284   2.408  23.595  0.00  0.00    +0.010 C 
ATOM     16  C   UNL     1      -5.917   4.335  25.084  0.00  0.00    +0.123 C 
ATOM     17  C   UNL     1      -2.354   2.981  26.189  0.00  0.00    +0.049 C 
ATOM     18  C   UNL     1      -6.400   3.062  24.399  0.00  0.00    +0.032 C 
ATOM     19  C   UNL     1      -4.367   0.808  25.311  0.00  0.00    +0.012 C 
ATOM     20  C   UNL     1      -1.516   1.674  24.157  0.00  0.00    +0.058 A 
ATOM     22  C   UNL     1      -4.185   5.489  26.477  0.00  0.00    +0.016 C 
ATOM     23  C   UNL     1      -1.316   2.278  25.382  0.00  0.00    +0.015 A 
ATOM     26  C   UNL     1       0.621   1.246  24.420  0.00  0.00    +0.165 A 
ATOM     28  C   UNL     1       2.421   0.105  23.150  0.00  0.00    +0.255 C 
ATOM     40  H   UNL     1       2.535   1.064  25.010  0.00  0.00    +0.157 HD
ENDROOT
BRANCH  28  29
ATOM      2  F   UNL     1       3.372  -2.293  24.249  0.00  0.00    -0.205 F 
ATOM      3  F   UNL     1       4.379   1.863  22.184  0.00  0.00    -0.205 F 
ATOM     29  C   UNL     1       3.871  -0.213  23.217  0.00  0.00    +0.107 A 
ATOM     31  C   UNL     1       4.264  -1.413  23.771  0.00  0.00    +0.138 A 
ATOM     32  C   UNL     1       4.776   0.701  22.721  0.00  0.00    +0.138 A 
ATOM     34  C   UNL     1       5.625  -1.712  23.834  0.00  0.00    +0.039 A 
ATOM     35  C   UNL     1       6.137   0.403  22.783  0.00  0.00    +0.039 A 
ATOM     36  C   UNL     1       6.562  -0.804  23.339  0.00  0.00    +0.006 A 
ENDBRANCH  28  29
BRANCH  16   4
ATOM      4  O   UNL     1      -7.016   4.931  25.772  0.00  0.00    -0.391 OA
ATOM     37  H   UNL     1      -6.794   4.968  26.717  0.00  0.00    +0.210 HD
ENDBRANCH  16   4
BRANCH  13  21
ATOM     21  C   UNL     1      -5.211   3.425  27.362  0.00  0.00    +0.165 C 
BRANCH  21   5
ATOM      5  O   UNL     1      -6.255   2.538  27.031  0.00  0.00    -0.394 OA
ATOM     38  H   UNL     1      -6.983   3.057  26.650  0.00  0.00    +0.209 HD
ENDBRANCH  21   5
ENDBRANCH  13  21
BRANCH  14  24
ATOM     24  C   UNL     1      -3.051   0.393  22.633  0.00  0.00    +0.106 C 
BRANCH  24  25
ATOM      6  O   UNL     1      -4.338  -1.342  23.723  0.00  0.00    -0.276 OA
ATOM      9  N   UNL     1      -2.046  -1.212  24.089  0.00  0.00    -0.304 N 
ATOM     25  C   UNL     1      -3.250  -0.808  23.527  0.00  0.00    +0.214 C 
ATOM     39  H   UNL     1      -1.186  -0.740  23.831  0.00  0.00    +0.150 HD
BRANCH   9  27
ATOM     27  C   UNL     1      -1.934  -2.336  24.991  0.00  0.00    +0.193 C 
BRANCH  27  30
ATOM     30  C   UNL     1      -0.539  -2.590  25.346  0.00  0.00    -0.087 C 
ATOM     33  C   UNL     1       0.607  -2.802  25.639  0.00  0.00    +0.005 C 
ENDBRANCH  27  30
ENDBRANCH   9  27
ENDBRANCH  24  25
ENDBRANCH  14  24
TORSDOF 8
ENDMDL
