MODEL 1
REMARK VINA RESULT:       7.7      0.000      0.000
REMARK  Name = 38028999
REMARK  10 active torsions:
REMARK  status: ('A' for Active; 'I' for Inactive)
REMARK    1  A    between atoms: N_4  and  C_16
REMARK    2  A    between atoms: C_8  and  C_12
REMARK    3  A    between atoms: C_9  and  C_16
REMARK    4  A    between atoms: C_11  and  C_15
REMARK    5  A    between atoms: C_12  and  C_17
REMARK    6  A    between atoms: C_12  and  C_18
REMARK    7  A    between atoms: C_13  and  C_19
REMARK    8  A    between atoms: C_15  and  C_20
REMARK    9  A    between atoms: C_25  and  C_27
REMARK   10  A    between atoms: C_36  and  C_37
REMARK                            x       y       z     vdW  Elec       q    Type
REMARK                         _______ _______ _______ _____ _____    ______ ____
ROOT
ATOM      8  C   UNL     1      -3.504   2.146  23.744  0.00  0.00    +0.000 C 
ATOM      9  C   UNL     1      -4.356   3.366  24.173  0.00  0.00    +0.032 C 
ATOM     10  C   UNL     1      -4.373   0.882  23.677  0.00  0.00    +0.012 C 
ATOM     11  C   UNL     1      -5.039   0.560  25.029  0.00  0.00    +0.023 C 
ATOM     13  C   UNL     1      -5.675   1.788  25.648  0.00  0.00    -0.073 C 
ATOM     14  C   UNL     1      -5.369   3.033  25.244  0.00  0.00    -0.022 C 
ATOM     19  C   UNL     1      -6.710   1.550  26.713  0.00  0.00    +0.039 C 
ENDROOT
BRANCH   8  12
ATOM     12  C   UNL     1      -2.820   2.377  22.392  0.00  0.00    -0.013 C 
ATOM     17  C   UNL     1      -3.737   3.161  21.459  0.00  0.00    +0.007 C 
ATOM     18  C   UNL     1      -2.419   1.046  21.765  0.00  0.00    +0.007 C 
ENDBRANCH   8  12
BRANCH  11  15
ATOM     15  C   UNL     1      -4.042  -0.088  25.996  0.00  0.00    +0.103 C 
BRANCH  15  20
ATOM      1  O   UNL     1      -3.844  -2.301  25.159  0.00  0.00    -0.276 OA
ATOM      3  N   UNL     1      -2.014  -0.902  24.852  0.00  0.00    -0.298 N 
ATOM      5  N   UNL     1       0.576  -0.327  23.695  0.00  0.00    -0.312 N 
ATOM      6  N   UNL     1       2.820   0.379  23.902  0.00  0.00    -0.240 NA
ATOM     20  C   UNL     1      -3.302  -1.202  25.299  0.00  0.00    +0.216 C 
ATOM     21  C   UNL     1      -1.376   0.407  25.009  0.00  0.00    +0.126 C 
ATOM     22  C   UNL     1      -1.230  -1.930  24.172  0.00  0.00    +0.126 C 
ATOM     23  C   UNL     1       0.149   0.335  24.931  0.00  0.00    +0.125 C 
ATOM     24  C   UNL     1      -0.310  -1.336  23.108  0.00  0.00    +0.125 C 
ATOM     26  C   UNL     1       1.805  -0.033  23.110  0.00  0.00    +0.121 A 
ATOM     28  C   UNL     1       1.907  -0.184  21.736  0.00  0.00    +0.043 A 
ATOM     31  C   UNL     1       3.128   0.105  21.138  0.00  0.00    +0.005 A 
ATOM     32  C   UNL     1       3.991   0.652  23.284  0.00  0.00    +0.113 A 
ATOM     35  C   UNL     1       4.195   0.532  21.919  0.00  0.00    +0.020 A 
ENDBRANCH  15  20
ENDBRANCH  11  15
BRANCH   9  16
ATOM     16  C   UNL     1      -3.467   4.521  24.652  0.00  0.00    +0.112 C 
BRANCH  16   4
ATOM      2  O   UNL     1      -0.670   3.953  24.350  0.00  0.00    -0.270 OA
ATOM      4  N   UNL     1      -2.571   4.081  25.674  0.00  0.00    -0.311 N 
ATOM     25  C   UNL     1      -1.220   3.827  25.441  0.00  0.00    +0.244 C 
ATOM     38  H   UNL     1      -2.932   4.043  26.621  0.00  0.00    +0.149 HD
BRANCH  25  27
ATOM     27  C   UNL     1      -0.427   3.350  26.603  0.00  0.00    +0.037 A 
ATOM     29  C   UNL     1      -1.058   3.096  27.821  0.00  0.00    +0.014 A 
ATOM     30  C   UNL     1       0.948   3.154  26.476  0.00  0.00    +0.014 A 
ATOM     33  C   UNL     1      -0.314   2.646  28.911  0.00  0.00    +0.019 A 
ATOM     34  C   UNL     1       1.692   2.704  27.567  0.00  0.00    +0.019 A 
ATOM     36  C   UNL     1       1.060   2.450  28.785  0.00  0.00    +0.052 A 
BRANCH  36  37
ATOM      7  N   UNL     1       2.441   1.615  30.810  0.00  0.00    -0.191 NA
ATOM     37  C   UNL     1       1.822   1.989  29.902  0.00  0.00    +0.099 C 
ENDBRANCH  36  37
ENDBRANCH  25  27
ENDBRANCH  16   4
ENDBRANCH   9  16
TORSDOF 7
ENDMDL
MODEL 2
REMARK VINA RESULT:      11.7      2.726      5.983
REMARK  Name = 38028999
REMARK  10 active torsions:
REMARK  status: ('A' for Active; 'I' for Inactive)
REMARK    1  A    between atoms: N_4  and  C_16
REMARK    2  A    between atoms: C_8  and  C_12
REMARK    3  A    between atoms: C_9  and  C_16
REMARK    4  A    between atoms: C_11  and  C_15
REMARK    5  A    between atoms: C_12  and  C_17
REMARK    6  A    between atoms: C_12  and  C_18
REMARK    7  A    between atoms: C_13  and  C_19
REMARK    8  A    between atoms: C_15  and  C_20
REMARK    9  A    between atoms: C_25  and  C_27
REMARK   10  A    between atoms: C_36  and  C_37
REMARK                            x       y       z     vdW  Elec       q    Type
REMARK                         _______ _______ _______ _____ _____    ______ ____
ROOT
ATOM      8  C   UNL     1      -2.778   3.097  23.408  0.00  0.00    +0.000 C 
ATOM      9  C   UNL     1      -1.273   2.842  23.144  0.00  0.00    +0.032 C 
ATOM     10  C   UNL     1      -3.033   4.592  23.654  0.00  0.00    +0.012 C 
ATOM     11  C   UNL     1      -2.229   5.132  24.853  0.00  0.00    +0.023 C 
ATOM     13  C   UNL     1      -0.781   4.692  24.802  0.00  0.00    -0.073 C 
ATOM     14  C   UNL     1      -0.369   3.676  24.022  0.00  0.00    -0.022 C 
ATOM     19  C   UNL     1       0.195   5.477  25.633  0.00  0.00    +0.039 C 
ENDROOT
BRANCH   8  12
ATOM     12  C   UNL     1      -3.650   2.606  22.249  0.00  0.00    -0.013 C 
ATOM     17  C   UNL     1      -2.805   1.846  21.231  0.00  0.00    +0.007 C 
ATOM     18  C   UNL     1      -4.368   3.779  21.588  0.00  0.00    +0.007 C 
ENDBRANCH   8  12
BRANCH  11  15
ATOM     15  C   UNL     1      -2.879   4.727  26.181  0.00  0.00    +0.103 C 
BRANCH  15  20
ATOM      1  O   UNL     1      -5.235   4.624  25.897  0.00  0.00    -0.276 OA
ATOM      3  N   UNL     1      -4.073   2.620  25.714  0.00  0.00    -0.298 N 
ATOM      5  N   UNL     1      -3.960  -0.199  25.067  0.00  0.00    -0.312 N 
ATOM      6  N   UNL     1      -3.380  -2.423  25.613  0.00  0.00    -0.240 NA
ATOM     20  C   UNL     1      -4.173   3.997  25.917  0.00  0.00    +0.216 C 
ATOM     21  C   UNL     1      -2.810   1.878  25.729  0.00  0.00    +0.126 C 
ATOM     22  C   UNL     1      -5.281   1.841  25.460  0.00  0.00    +0.126 C 
ATOM     23  C   UNL     1      -3.002   0.387  26.009  0.00  0.00    +0.125 C 
ATOM     24  C   UNL     1      -5.015   0.663  24.525  0.00  0.00    +0.125 C 
ATOM     26  C   UNL     1      -3.894  -1.546  24.721  0.00  0.00    +0.121 A 
ATOM     28  C   UNL     1      -4.367  -1.904  23.468  0.00  0.00    +0.043 A 
ATOM     31  C   UNL     1      -4.308  -3.245  23.109  0.00  0.00    +0.005 A 
ATOM     32  C   UNL     1      -3.338  -3.717  25.228  0.00  0.00    +0.113 A 
ATOM     35  C   UNL     1      -3.785  -4.176  23.999  0.00  0.00    +0.020 A 
ENDBRANCH  15  20
ENDBRANCH  11  15
BRANCH   9  16
ATOM     16  C   UNL     1      -0.924   1.359  23.315  0.00  0.00    +0.112 C 
BRANCH  16   4
ATOM      2  O   UNL     1       0.462  -1.150  23.481  0.00  0.00    -0.270 OA
ATOM      4  N   UNL     1       0.489   1.159  23.251  0.00  0.00    -0.311 N 
ATOM     25  C   UNL     1       1.083  -0.100  23.339  0.00  0.00    +0.244 C 
ATOM     38  H   UNL     1       1.062   1.970  23.043  0.00  0.00    +0.149 HD
BRANCH  25  27
ATOM     27  C   UNL     1       2.567  -0.136  23.282  0.00  0.00    +0.037 A 
ATOM     29  C   UNL     1       3.272   0.959  22.781  0.00  0.00    +0.014 A 
ATOM     30  C   UNL     1       3.255  -1.263  23.732  0.00  0.00    +0.014 A 
ATOM     33  C   UNL     1       4.665   0.925  22.729  0.00  0.00    +0.019 A 
ATOM     34  C   UNL     1       4.649  -1.296  23.679  0.00  0.00    +0.019 A 
ATOM     36  C   UNL     1       5.354  -0.201  23.178  0.00  0.00    +0.052 A 
BRANCH  36  37
ATOM      7  N   UNL     1       7.941  -0.263  23.081  0.00  0.00    -0.191 NA
ATOM     37  C   UNL     1       6.782  -0.235  23.124  0.00  0.00    +0.099 C 
ENDBRANCH  36  37
ENDBRANCH  25  27
ENDBRANCH  16   4
ENDBRANCH   9  16
TORSDOF 7
ENDMDL
