MODEL 1
REMARK VINA RESULT:      -4.4      0.000      0.000
REMARK  Name = 25314925
REMARK  4 active torsions:
REMARK  status: ('A' for Active; 'I' for Inactive)
REMARK    1  A    between atoms: O_3  and  C_10
REMARK    2  A    between atoms: N_6  and  C_9
REMARK    3  A    between atoms: N_7  and  C_11
REMARK    4  A    between atoms: N_8  and  C_20
REMARK                            x       y       z     vdW  Elec       q    Type
REMARK                         _______ _______ _______ _____ _____    ______ ____
ROOT
ATOM      1  O   UNL     1      -1.734   1.678  25.652  0.00  0.00    -0.342 OA
ATOM      2  O   UNL     1      -3.546   3.121  25.534  0.00  0.00    -0.347 OA
ATOM      9  C   UNL     1      -3.605   1.067  24.258  0.00  0.00    +0.144 C 
ATOM     10  C   UNL     1      -2.958   1.776  23.047  0.00  0.00    +0.159 C 
ATOM     11  C   UNL     1      -1.543   2.322  23.337  0.00  0.00    +0.136 C 
ATOM     12  C   UNL     1      -1.351   2.763  24.803  0.00  0.00    +0.170 C 
ATOM     13  C   UNL     1      -3.165   1.736  25.574  0.00  0.00    +0.270 C 
ATOM     14  C   UNL     1      -2.327   3.830  25.262  0.00  0.00    +0.196 C 
ENDROOT
BRANCH   9   6
ATOM      4  O   UNL     1      -3.537  -3.028  25.176  0.00  0.00    -0.377 OA
ATOM      6  N   UNL     1      -3.231  -0.346  24.273  0.00  0.00    -0.288 NA
ATOM     15  C   UNL     1      -4.350  -1.186  23.823  0.00  0.00    +0.113 C 
ATOM     16  C   UNL     1      -2.802  -0.758  25.617  0.00  0.00    +0.113 C 
ATOM     17  C   UNL     1      -3.941  -2.656  23.858  0.00  0.00    +0.175 C 
ATOM     18  C   UNL     1      -2.429  -2.238  25.610  0.00  0.00    +0.175 C 
ENDBRANCH   9   6
BRANCH  11   7
ATOM      5  O   UNL     1       1.186   2.262  24.205  0.00  0.00    -0.252 OA
ATOM      7  N   UNL     1      -0.546   1.334  22.988  0.00  0.00    -0.291 N 
ATOM      8  N   UNL     1       1.499   0.298  22.958  0.00  0.00    -0.269 N 
ATOM     19  C   UNL     1       0.768   1.379  23.458  0.00  0.00    +0.304 C 
ATOM     26  H   UNL     1      -0.794   0.618  22.310  0.00  0.00    +0.151 HD
ATOM     28  H   UNL     1       1.000  -0.346  22.348  0.00  0.00    +0.156 HD
BRANCH   8  20
ATOM     20  C   UNL     1       2.857  -0.017  23.193  0.00  0.00    +0.035 A 
ATOM     21  C   UNL     1       3.211  -1.289  23.641  0.00  0.00    +0.023 A 
ATOM     22  C   UNL     1       3.843   0.947  22.980  0.00  0.00    +0.023 A 
ATOM     23  C   UNL     1       4.551  -1.598  23.875  0.00  0.00    +0.002 A 
ATOM     24  C   UNL     1       5.183   0.638  23.214  0.00  0.00    +0.002 A 
ATOM     25  C   UNL     1       5.537  -0.635  23.661  0.00  0.00    +0.000 A 
ENDBRANCH   8  20
ENDBRANCH  11   7
BRANCH  10   3
ATOM      3  O   UNL     1      -3.807   2.870  22.675  0.00  0.00    -0.388 OA
ATOM     27  H   UNL     1      -3.528   3.173  21.795  0.00  0.00    +0.210 HD
ENDBRANCH  10   3
TORSDOF 4
ENDMDL
MODEL 2
REMARK VINA RESULT:      -3.7      1.772      3.907
REMARK  Name = 25314925
REMARK  4 active torsions:
REMARK  status: ('A' for Active; 'I' for Inactive)
REMARK    1  A    between atoms: O_3  and  C_10
REMARK    2  A    between atoms: N_6  and  C_9
REMARK    3  A    between atoms: N_7  and  C_11
REMARK    4  A    between atoms: N_8  and  C_20
REMARK                            x       y       z     vdW  Elec       q    Type
REMARK                         _______ _______ _______ _____ _____    ______ ____
ROOT
ATOM      1  O   UNL     1      -3.643   0.473  23.139  0.00  0.00    -0.342 OA
ATOM      2  O   UNL     1      -5.036  -0.304  24.822  0.00  0.00    -0.347 OA
ATOM      9  C   UNL     1      -3.129   1.057  25.422  0.00  0.00    +0.144 C 
ATOM     10  C   UNL     1      -2.248  -0.203  25.567  0.00  0.00    +0.159 C 
ATOM     11  C   UNL     1      -2.092  -0.999  24.252  0.00  0.00    +0.136 C 
ATOM     12  C   UNL     1      -3.330  -0.908  23.338  0.00  0.00    +0.170 C 
ATOM     13  C   UNL     1      -4.249   0.819  24.392  0.00  0.00    +0.270 C 
ATOM     14  C   UNL     1      -4.616  -1.392  23.983  0.00  0.00    +0.196 C 
ENDROOT
BRANCH   9   6
ATOM      4  O   UNL     1      -0.941   4.637  25.526  0.00  0.00    -0.377 OA
ATOM      6  N   UNL     1      -2.314   2.198  25.010  0.00  0.00    -0.288 NA
ATOM     15  C   UNL     1      -1.042   2.223  25.746  0.00  0.00    +0.113 C 
ATOM     16  C   UNL     1      -3.039   3.459  25.215  0.00  0.00    +0.113 C 
ATOM     17  C   UNL     1      -0.214   3.428  25.308  0.00  0.00    +0.175 C 
ATOM     18  C   UNL     1      -2.164   4.635  24.788  0.00  0.00    +0.175 C 
ENDBRANCH   9   6
BRANCH  11   7
ATOM      5  O   UNL     1       0.637  -1.320  25.063  0.00  0.00    -0.252 OA
ATOM      7  N   UNL     1      -0.919  -0.551  23.535  0.00  0.00    -0.291 N 
ATOM      8  N   UNL     1       1.308  -0.214  23.104  0.00  0.00    -0.269 N 
ATOM     19  C   UNL     1       0.382  -0.750  24.004  0.00  0.00    +0.304 C 
ATOM     26  H   UNL     1      -1.051  -0.001  22.691  0.00  0.00    +0.151 HD
ATOM     28  H   UNL     1       0.929   0.227  22.269  0.00  0.00    +0.156 HD
BRANCH   8  20
ATOM     20  C   UNL     1       2.718  -0.207  23.208  0.00  0.00    +0.035 A 
ATOM     21  C   UNL     1       3.388  -1.336  23.678  0.00  0.00    +0.023 A 
ATOM     22  C   UNL     1       3.438   0.931  22.844  0.00  0.00    +0.023 A 
ATOM     23  C   UNL     1       4.779  -1.328  23.783  0.00  0.00    +0.002 A 
ATOM     24  C   UNL     1       4.829   0.939  22.949  0.00  0.00    +0.002 A 
ATOM     25  C   UNL     1       5.500  -0.191  23.418  0.00  0.00    +0.000 A 
ENDBRANCH   8  20
ENDBRANCH  11   7
BRANCH  10   3
ATOM      3  O   UNL     1      -2.855  -1.052  26.550  0.00  0.00    -0.388 OA
ATOM     27  H   UNL     1      -3.611  -1.494  26.130  0.00  0.00    +0.210 HD
ENDBRANCH  10   3
TORSDOF 4
ENDMDL
MODEL 3
REMARK VINA RESULT:      -1.3      3.094      3.999
REMARK  Name = 25314925
REMARK  4 active torsions:
REMARK  status: ('A' for Active; 'I' for Inactive)
REMARK    1  A    between atoms: O_3  and  C_10
REMARK    2  A    between atoms: N_6  and  C_9
REMARK    3  A    between atoms: N_7  and  C_11
REMARK    4  A    between atoms: N_8  and  C_20
REMARK                            x       y       z     vdW  Elec       q    Type
REMARK                         _______ _______ _______ _____ _____    ______ ____
ROOT
ATOM      1  O   UNL     1      -3.603   2.360  25.427  0.00  0.00    -0.342 OA
ATOM      2  O   UNL     1      -4.913   2.813  23.569  0.00  0.00    -0.347 OA
ATOM      9  C   UNL     1      -3.507   0.845  23.553  0.00  0.00    +0.144 C 
ATOM     10  C   UNL     1      -2.346   1.654  22.934  0.00  0.00    +0.159 C 
ATOM     11  C   UNL     1      -1.847   2.804  23.836  0.00  0.00    +0.136 C 
ATOM     12  C   UNL     1      -2.961   3.417  24.709  0.00  0.00    +0.170 C 
ATOM     13  C   UNL     1      -4.409   1.759  24.405  0.00  0.00    +0.270 C 
ATOM     14  C   UNL     1      -4.135   3.968  23.921  0.00  0.00    +0.196 C 
ENDROOT
BRANCH   9   6
ATOM      4  O   UNL     1      -1.911  -2.853  24.733  0.00  0.00    -0.377 OA
ATOM      6  N   UNL     1      -2.982  -0.239  24.380  0.00  0.00    -0.288 NA
ATOM     15  C   UNL     1      -1.599  -0.561  24.000  0.00  0.00    +0.113 C 
ATOM     16  C   UNL     1      -3.825  -1.437  24.269  0.00  0.00    +0.113 C 
ATOM     17  C   UNL     1      -1.076  -1.703  24.868  0.00  0.00    +0.175 C 
ATOM     18  C   UNL     1      -3.250  -2.557  25.131  0.00  0.00    +0.175 C 
ENDBRANCH   9   6
BRANCH  11   7
ATOM      5  O   UNL     1      -1.197   3.746  26.462  0.00  0.00    -0.252 OA
ATOM      7  N   UNL     1      -0.763   2.344  24.676  0.00  0.00    -0.291 N 
ATOM      8  N   UNL     1       0.590   2.225  26.523  0.00  0.00    -0.269 N 
ATOM     19  C   UNL     1      -0.516   2.860  25.950  0.00  0.00    +0.304 C 
ATOM     26  H   UNL     1      -0.108   1.669  24.291  0.00  0.00    +0.151 HD
ATOM     28  H   UNL     1       1.045   1.508  25.962  0.00  0.00    +0.156 HD
BRANCH   8  20
ATOM     20  C   UNL     1       1.163   2.457  27.795  0.00  0.00    +0.035 A 
ATOM     21  C   UNL     1       2.462   2.955  27.894  0.00  0.00    +0.023 A 
ATOM     22  C   UNL     1       0.429   2.186  28.950  0.00  0.00    +0.023 A 
ATOM     23  C   UNL     1       3.028   3.182  29.149  0.00  0.00    +0.002 A 
ATOM     24  C   UNL     1       0.995   2.412  30.204  0.00  0.00    +0.002 A 
ATOM     25  C   UNL     1       2.294   2.911  30.304  0.00  0.00    +0.000 A 
ENDBRANCH   8  20
ENDBRANCH  11   7
BRANCH  10   3
ATOM      3  O   UNL     1      -2.810   2.208  21.695  0.00  0.00    -0.388 OA
ATOM     27  H   UNL     1      -2.068   2.690  21.293  0.00  0.00    +0.210 HD
ENDBRANCH  10   3
TORSDOF 4
ENDMDL
MODEL 4
REMARK VINA RESULT:      -0.9      1.595      2.245
REMARK  Name = 25314925
REMARK  4 active torsions:
REMARK  status: ('A' for Active; 'I' for Inactive)
REMARK    1  A    between atoms: O_3  and  C_10
REMARK    2  A    between atoms: N_6  and  C_9
REMARK    3  A    between atoms: N_7  and  C_11
REMARK    4  A    between atoms: N_8  and  C_20
REMARK                            x       y       z     vdW  Elec       q    Type
REMARK                         _______ _______ _______ _____ _____    ______ ____
ROOT
ATOM      1  O   UNL     1      -3.868   2.788  26.464  0.00  0.00    -0.342 OA
ATOM      2  O   UNL     1      -5.824   3.455  25.413  0.00  0.00    -0.347 OA
ATOM      9  C   UNL     1      -4.534   1.655  24.442  0.00  0.00    +0.144 C 
ATOM     10  C   UNL     1      -3.730   2.663  23.589  0.00  0.00    +0.159 C 
ATOM     11  C   UNL     1      -2.915   3.668  24.432  0.00  0.00    +0.136 C 
ATOM     12  C   UNL     1      -3.581   4.011  25.780  0.00  0.00    +0.170 C 
ATOM     13  C   UNL     1      -5.016   2.315  25.747  0.00  0.00    +0.270 C 
ATOM     14  C   UNL     1      -4.978   4.590  25.653  0.00  0.00    +0.196 C 
ENDROOT
BRANCH   9   6
ATOM      4  O   UNL     1      -3.299  -2.316  25.005  0.00  0.00    -0.377 OA
ATOM      6  N   UNL     1      -3.710   0.489  24.753  0.00  0.00    -0.288 NA
ATOM     15  C   UNL     1      -3.562  -0.375  23.574  0.00  0.00    +0.113 C 
ATOM     16  C   UNL     1      -4.287  -0.275  25.867  0.00  0.00    +0.113 C 
ATOM     17  C   UNL     1      -2.709  -1.591  23.926  0.00  0.00    +0.175 C 
ATOM     18  C   UNL     1      -3.417  -1.493  26.166  0.00  0.00    +0.175 C 
ENDBRANCH   9   6
BRANCH  11   7
ATOM      5  O   UNL     1      -1.367   2.054  22.641  0.00  0.00    -0.252 OA
ATOM      7  N   UNL     1      -1.580   3.160  24.660  0.00  0.00    -0.291 N 
ATOM      8  N   UNL     1       0.369   2.034  24.221  0.00  0.00    -0.269 N 
ATOM     19  C   UNL     1      -0.894   2.376  23.729  0.00  0.00    +0.304 C 
ATOM     26  H   UNL     1      -1.153   3.317  25.569  0.00  0.00    +0.151 HD
ATOM     28  H   UNL     1       0.608   2.384  25.147  0.00  0.00    +0.156 HD
BRANCH   8  20
ATOM     20  C   UNL     1       1.365   1.255  23.590  0.00  0.00    +0.035 A 
ATOM     21  C   UNL     1       2.646   1.775  23.406  0.00  0.00    +0.023 A 
ATOM     22  C   UNL     1       1.066  -0.035  23.149  0.00  0.00    +0.023 A 
ATOM     23  C   UNL     1       3.628   1.007  22.782  0.00  0.00    +0.002 A 
ATOM     24  C   UNL     1       2.049  -0.804  22.525  0.00  0.00    +0.002 A 
ATOM     25  C   UNL     1       3.330  -0.283  22.341  0.00  0.00    +0.000 A 
ENDBRANCH   8  20
ENDBRANCH  11   7
BRANCH  10   3
ATOM      3  O   UNL     1      -4.661   3.390  22.777  0.00  0.00    -0.388 OA
ATOM     27  H   UNL     1      -5.305   2.753  22.426  0.00  0.00    +0.210 HD
ENDBRANCH  10   3
TORSDOF 4
ENDMDL
