MODEL 1
REMARK VINA RESULT:      -2.3      0.000      0.000
REMARK  Name = 45783469
REMARK  11 active torsions:
REMARK  status: ('A' for Active; 'I' for Inactive)
REMARK    1  A    between atoms: O_2  and  C_22
REMARK    2  A    between atoms: O_2  and  C_27
REMARK    3  A    between atoms: O_3  and  C_29
REMARK    4  A    between atoms: O_3  and  C_30
REMARK    5  A    between atoms: N_4  and  C_13
REMARK    6  A    between atoms: N_8  and  C_26
REMARK    7  A    between atoms: N_8  and  C_28
REMARK    8  A    between atoms: C_9  and  C_14
REMARK    9  A    between atoms: C_13  and  C_15
REMARK   10  A    between atoms: C_18  and  C_21
REMARK   11  A    between atoms: C_28  and  C_29
REMARK                            x       y       z     vdW  Elec       q    Type
REMARK                         _______ _______ _______ _____ _____    ______ ____
ROOT
ATOM      1  O   UNL     1      -2.386   2.617  25.731  0.00  0.00    -0.336 OA
ATOM      5  N   UNL     1      -2.137   1.860  23.639  0.00  0.00    -0.190 NA
ATOM      6  N   UNL     1      -1.041   2.245  25.609  0.00  0.00    -0.056 NA
ATOM     14  C   UNL     1      -2.959   2.358  24.527  0.00  0.00    +0.245 A 
ATOM     18  C   UNL     1      -0.972   1.809  24.348  0.00  0.00    +0.204 A 
ENDROOT
BRANCH  18  21
ATOM      7  N   UNL     1       2.603   1.620  23.343  0.00  0.00    -0.240 NA
ATOM     21  C   UNL     1       0.242   1.314  23.766  0.00  0.00    +0.041 A 
ATOM     23  C   UNL     1       0.269   0.104  23.083  0.00  0.00    +0.016 A 
ATOM     24  C   UNL     1       1.425   2.029  23.868  0.00  0.00    +0.124 A 
ATOM     25  C   UNL     1       1.462  -0.349  22.529  0.00  0.00    +0.044 A 
ATOM     26  C   UNL     1       2.590   0.439  22.686  0.00  0.00    +0.119 A 
BRANCH  26   8
ATOM      8  N   UNL     1       3.797  -0.037  22.117  0.00  0.00    -0.327 N 
ATOM     31  H   UNL     1       3.710  -0.753  21.406  0.00  0.00    +0.148 HD
BRANCH   8  28
ATOM     28  C   UNL     1       5.079   0.449  22.512  0.00  0.00    +0.131 C 
BRANCH  28  29
ATOM     29  C   UNL     1       5.236   0.337  24.020  0.00  0.00    +0.178 C 
BRANCH  29   3
ATOM      3  O   UNL     1       5.660  -0.980  24.354  0.00  0.00    -0.381 OA
ATOM     30  C   UNL     1       4.672  -1.945  24.021  0.00  0.00    +0.194 C 
ENDBRANCH  29   3
ENDBRANCH  28  29
ENDBRANCH   8  28
ENDBRANCH  26   8
ENDBRANCH  18  21
BRANCH  14   9
ATOM      4  N   UNL     1      -5.261   1.948  25.380  0.00  0.00    -0.287 NA
ATOM      9  C   UNL     1      -4.433   2.680  24.399  0.00  0.00    +0.146 C 
ATOM     10  C   UNL     1      -4.742   4.166  24.658  0.00  0.00    +0.030 C 
ATOM     11  C   UNL     1      -5.797   4.168  25.755  0.00  0.00    +0.017 C 
ATOM     12  C   UNL     1      -6.424   2.793  25.649  0.00  0.00    +0.085 C 
BRANCH   4  13
ATOM     13  C   UNL     1      -5.643   0.617  24.929  0.00  0.00    +0.120 C 
BRANCH  13  15
ATOM     15  C   UNL     1      -4.471  -0.328  24.914  0.00  0.00    -0.033 A 
ATOM     16  C   UNL     1      -3.642  -0.430  26.031  0.00  0.00    +0.008 A 
ATOM     17  C   UNL     1      -4.213  -1.102  23.782  0.00  0.00    +0.008 A 
ATOM     19  C   UNL     1      -2.556  -1.305  26.017  0.00  0.00    +0.046 A 
ATOM     20  C   UNL     1      -3.128  -1.978  23.768  0.00  0.00    +0.046 A 
ATOM     22  C   UNL     1      -2.300  -2.080  24.885  0.00  0.00    +0.120 A 
BRANCH  22   2
ATOM      2  O   UNL     1      -1.241  -2.935  24.872  0.00  0.00    -0.495 OA
ATOM     27  C   UNL     1      -0.009  -2.452  25.407  0.00  0.00    +0.277 C 
ENDBRANCH  22   2
ENDBRANCH  13  15
ENDBRANCH   4  13
ENDBRANCH  14   9
TORSDOF 9
ENDMDL
MODEL 2
REMARK VINA RESULT:      -1.8     14.875     16.557
REMARK  Name = 45783469
REMARK  11 active torsions:
REMARK  status: ('A' for Active; 'I' for Inactive)
REMARK    1  A    between atoms: O_2  and  C_22
REMARK    2  A    between atoms: O_2  and  C_27
REMARK    3  A    between atoms: O_3  and  C_29
REMARK    4  A    between atoms: O_3  and  C_30
REMARK    5  A    between atoms: N_4  and  C_13
REMARK    6  A    between atoms: N_8  and  C_26
REMARK    7  A    between atoms: N_8  and  C_28
REMARK    8  A    between atoms: C_9  and  C_14
REMARK    9  A    between atoms: C_13  and  C_15
REMARK   10  A    between atoms: C_18  and  C_21
REMARK   11  A    between atoms: C_28  and  C_29
REMARK                            x       y       z     vdW  Elec       q    Type
REMARK                         _______ _______ _______ _____ _____    ______ ____
ROOT
ATOM      1  O   UNL     1      -7.115  -8.739   9.246  0.00  0.00    -0.336 OA
ATOM      5  N   UNL     1      -6.240  -9.816  11.004  0.00  0.00    -0.190 NA
ATOM      6  N   UNL     1      -5.734  -8.517   9.191  0.00  0.00    -0.056 NA
ATOM     14  C   UNL     1      -7.328  -9.512  10.343  0.00  0.00    +0.245 A 
ATOM     18  C   UNL     1      -5.287  -9.183  10.259  0.00  0.00    +0.204 A 
ENDROOT
BRANCH  18  21
ATOM      7  N   UNL     1      -2.168 -10.094  12.066  0.00  0.00    -0.240 NA
ATOM     21  C   UNL     1      -3.898  -9.235  10.612  0.00  0.00    +0.041 A 
ATOM     23  C   UNL     1      -2.948  -8.517   9.894  0.00  0.00    +0.016 A 
ATOM     24  C   UNL     1      -3.460 -10.002  11.680  0.00  0.00    +0.124 A 
ATOM     25  C   UNL     1      -1.608  -8.588  10.260  0.00  0.00    +0.044 A 
ATOM     26  C   UNL     1      -1.273  -9.384  11.344  0.00  0.00    +0.119 A 
BRANCH  26   8
ATOM      8  N   UNL     1       0.096  -9.445  11.704  0.00  0.00    -0.327 N 
ATOM     31  H   UNL     1       0.345 -10.119  12.419  0.00  0.00    +0.148 HD
BRANCH   8  28
ATOM     28  C   UNL     1       1.087  -8.608  11.109  0.00  0.00    +0.131 C 
BRANCH  28  29
ATOM     29  C   UNL     1       1.499  -7.518  12.084  0.00  0.00    +0.178 C 
BRANCH  29   3
ATOM      3  O   UNL     1       2.881  -7.228  11.912  0.00  0.00    -0.381 OA
ATOM     30  C   UNL     1       3.139  -5.834  12.023  0.00  0.00    +0.194 C 
ENDBRANCH  29   3
ENDBRANCH  28  29
ENDBRANCH   8  28
ENDBRANCH  26   8
ENDBRANCH  18  21
BRANCH  14   9
ATOM      4  N   UNL     1      -9.146  -9.668  12.036  0.00  0.00    -0.287 NA
ATOM      9  C   UNL     1      -8.764  -9.899  10.628  0.00  0.00    +0.146 C 
ATOM     10  C   UNL     1      -9.774  -9.074   9.809  0.00  0.00    +0.030 C 
ATOM     11  C   UNL     1     -10.720  -8.468  10.838  0.00  0.00    +0.017 C 
ATOM     12  C   UNL     1     -10.581  -9.387  12.034  0.00  0.00    +0.085 C 
BRANCH   4  13
ATOM     13  C   UNL     1      -8.806 -10.781  12.912  0.00  0.00    +0.120 C 
BRANCH  13  15
ATOM     15  C   UNL     1      -8.996 -10.432  14.364  0.00  0.00    -0.033 A 
ATOM     16  C   UNL     1     -10.221 -10.676  14.985  0.00  0.00    +0.008 A 
ATOM     17  C   UNL     1      -7.948  -9.863  15.088  0.00  0.00    +0.008 A 
ATOM     19  C   UNL     1     -10.397 -10.352  16.331  0.00  0.00    +0.046 A 
ATOM     20  C   UNL     1      -8.124  -9.540  16.433  0.00  0.00    +0.046 A 
ATOM     22  C   UNL     1      -9.348  -9.785  17.055  0.00  0.00    +0.120 A 
BRANCH  22   2
ATOM      2  O   UNL     1      -9.520  -9.470  18.368  0.00  0.00    -0.495 OA
ATOM     27  C   UNL     1     -10.110 -10.466  19.202  0.00  0.00    +0.277 C 
ENDBRANCH  22   2
ENDBRANCH  13  15
ENDBRANCH   4  13
ENDBRANCH  14   9
TORSDOF 9
ENDMDL
MODEL 3
REMARK VINA RESULT:      -0.0      1.591      3.753
REMARK  Name = 45783469
REMARK  11 active torsions:
REMARK  status: ('A' for Active; 'I' for Inactive)
REMARK    1  A    between atoms: O_2  and  C_22
REMARK    2  A    between atoms: O_2  and  C_27
REMARK    3  A    between atoms: O_3  and  C_29
REMARK    4  A    between atoms: O_3  and  C_30
REMARK    5  A    between atoms: N_4  and  C_13
REMARK    6  A    between atoms: N_8  and  C_26
REMARK    7  A    between atoms: N_8  and  C_28
REMARK    8  A    between atoms: C_9  and  C_14
REMARK    9  A    between atoms: C_13  and  C_15
REMARK   10  A    between atoms: C_18  and  C_21
REMARK   11  A    between atoms: C_28  and  C_29
REMARK                            x       y       z     vdW  Elec       q    Type
REMARK                         _______ _______ _______ _____ _____    ______ ____
ROOT
ATOM      1  O   UNL     1      -2.170   0.146  26.026  0.00  0.00    -0.336 OA
ATOM      5  N   UNL     1      -1.515  -0.796  24.102  0.00  0.00    -0.190 NA
ATOM      6  N   UNL     1      -0.906   0.676  25.743  0.00  0.00    -0.056 NA
ATOM     14  C   UNL     1      -2.454  -0.712  25.010  0.00  0.00    +0.245 A 
ATOM     18  C   UNL     1      -0.585   0.074  24.594  0.00  0.00    +0.204 A 
ENDROOT
BRANCH  18  21
ATOM      7  N   UNL     1       2.524   1.789  23.492  0.00  0.00    -0.240 NA
ATOM     21  C   UNL     1       0.654   0.316  23.914  0.00  0.00    +0.041 A 
ATOM     23  C   UNL     1       1.192  -0.629  23.047  0.00  0.00    +0.016 A 
ATOM     24  C   UNL     1       1.352   1.498  24.101  0.00  0.00    +0.124 A 
ATOM     25  C   UNL     1       2.396  -0.365  22.401  0.00  0.00    +0.044 A 
ATOM     26  C   UNL     1       3.016   0.848  22.656  0.00  0.00    +0.119 A 
BRANCH  26   8
ATOM      8  N   UNL     1       4.241   1.100  21.991  0.00  0.00    -0.327 N 
ATOM     31  H   UNL     1       4.204   1.733  21.200  0.00  0.00    +0.148 HD
BRANCH   8  28
ATOM     28  C   UNL     1       5.473   0.504  22.393  0.00  0.00    +0.131 C 
BRANCH  28  29
ATOM     29  C   UNL     1       5.584   0.510  23.909  0.00  0.00    +0.178 C 
BRANCH  29   3
ATOM      3  O   UNL     1       5.880  -0.803  24.367  0.00  0.00    -0.381 OA
ATOM     30  C   UNL     1       4.874  -1.729  23.981  0.00  0.00    +0.194 C 
ENDBRANCH  29   3
ENDBRANCH  28  29
ENDBRANCH   8  28
ENDBRANCH  26   8
ENDBRANCH  18  21
BRANCH  14   9
ATOM      4  N   UNL     1      -4.761  -0.908  24.098  0.00  0.00    -0.287 NA
ATOM      9  C   UNL     1      -3.788  -1.424  25.082  0.00  0.00    +0.146 C 
ATOM     10  C   UNL     1      -3.676  -2.928  24.768  0.00  0.00    +0.030 C 
ATOM     11  C   UNL     1      -4.666  -3.174  23.638  0.00  0.00    +0.017 C 
ATOM     12  C   UNL     1      -5.645  -2.025  23.767  0.00  0.00    +0.085 C 
BRANCH   4  13
ATOM     13  C   UNL     1      -5.499   0.253  24.577  0.00  0.00    +0.120 C 
BRANCH  13  15
ATOM     15  C   UNL     1      -4.643   1.490  24.606  0.00  0.00    -0.033 A 
ATOM     16  C   UNL     1      -4.779   2.410  25.645  0.00  0.00    +0.008 A 
ATOM     17  C   UNL     1      -3.711   1.717  23.592  0.00  0.00    +0.008 A 
ATOM     19  C   UNL     1      -3.985   3.557  25.672  0.00  0.00    +0.046 A 
ATOM     20  C   UNL     1      -2.916   2.863  23.619  0.00  0.00    +0.046 A 
ATOM     22  C   UNL     1      -3.053   3.782  24.658  0.00  0.00    +0.120 A 
BRANCH  22   2
ATOM      2  O   UNL     1      -2.276   4.900  24.685  0.00  0.00    -0.495 OA
ATOM     27  C   UNL     1      -0.889   4.721  24.966  0.00  0.00    +0.277 C 
ENDBRANCH  22   2
ENDBRANCH  13  15
ENDBRANCH   4  13
ENDBRANCH  14   9
TORSDOF 9
ENDMDL
MODEL 4
REMARK VINA RESULT:       1.5     14.045     15.696
REMARK  Name = 45783469
REMARK  11 active torsions:
REMARK  status: ('A' for Active; 'I' for Inactive)
REMARK    1  A    between atoms: O_2  and  C_22
REMARK    2  A    between atoms: O_2  and  C_27
REMARK    3  A    between atoms: O_3  and  C_29
REMARK    4  A    between atoms: O_3  and  C_30
REMARK    5  A    between atoms: N_4  and  C_13
REMARK    6  A    between atoms: N_8  and  C_26
REMARK    7  A    between atoms: N_8  and  C_28
REMARK    8  A    between atoms: C_9  and  C_14
REMARK    9  A    between atoms: C_13  and  C_15
REMARK   10  A    between atoms: C_18  and  C_21
REMARK   11  A    between atoms: C_28  and  C_29
REMARK                            x       y       z     vdW  Elec       q    Type
REMARK                         _______ _______ _______ _____ _____    ______ ____
ROOT
ATOM      1  O   UNL     1      -4.827  -9.187  10.182  0.00  0.00    -0.336 OA
ATOM      5  N   UNL     1      -3.505  -9.874  11.854  0.00  0.00    -0.190 NA
ATOM      6  N   UNL     1      -3.582  -8.582   9.968  0.00  0.00    -0.056 NA
ATOM     14  C   UNL     1      -4.695  -9.929  11.312  0.00  0.00    +0.245 A 
ATOM     18  C   UNL     1      -2.857  -9.035  10.995  0.00  0.00    +0.204 A 
ENDROOT
BRANCH  18  21
ATOM      7  N   UNL     1       0.835  -8.936  10.564  0.00  0.00    -0.240 NA
ATOM     21  C   UNL     1      -1.484  -8.669  11.192  0.00  0.00    +0.041 A 
ATOM     23  C   UNL     1      -1.124  -7.733  12.156  0.00  0.00    +0.016 A 
ATOM     24  C   UNL     1      -0.477  -9.236  10.429  0.00  0.00    +0.124 A 
ATOM     25  C   UNL     1       0.216  -7.399  12.324  0.00  0.00    +0.044 A 
ATOM     26  C   UNL     1       1.148  -8.023  11.510  0.00  0.00    +0.119 A 
BRANCH  26   8
ATOM      8  N   UNL     1       2.508  -7.671  11.694  0.00  0.00    -0.327 N 
ATOM     31  H   UNL     1       3.193  -8.382  11.466  0.00  0.00    +0.148 HD
BRANCH   8  28
ATOM     28  C   UNL     1       2.914  -6.392  12.177  0.00  0.00    +0.131 C 
BRANCH  28  29
ATOM     29  C   UNL     1       4.361  -6.445  12.637  0.00  0.00    +0.178 C 
BRANCH  29   3
ATOM      3  O   UNL     1       5.054  -7.449  11.905  0.00  0.00    -0.381 OA
ATOM     30  C   UNL     1       6.207  -7.900  12.602  0.00  0.00    +0.194 C 
ENDBRANCH  29   3
ENDBRANCH  28  29
ENDBRANCH   8  28
ENDBRANCH  26   8
ENDBRANCH  18  21
BRANCH  14   9
ATOM      4  N   UNL     1      -6.599 -10.058  12.911  0.00  0.00    -0.287 NA
ATOM      9  C   UNL     1      -5.921 -10.695  11.762  0.00  0.00    +0.146 C 
ATOM     10  C   UNL     1      -7.003 -10.781  10.670  0.00  0.00    +0.030 C 
ATOM     11  C   UNL     1      -8.266 -10.228  11.315  0.00  0.00    +0.017 C 
ATOM     12  C   UNL     1      -8.015 -10.405  12.798  0.00  0.00    +0.085 C 
BRANCH   4  13
ATOM     13  C   UNL     1      -6.038 -10.450  14.197  0.00  0.00    +0.120 C 
BRANCH  13  15
ATOM     15  C   UNL     1      -7.012 -10.235  15.323  0.00  0.00    -0.033 A 
ATOM     16  C   UNL     1      -6.607 -10.429  16.643  0.00  0.00    +0.008 A 
ATOM     17  C   UNL     1      -8.322  -9.842  15.046  0.00  0.00    +0.008 A 
ATOM     19  C   UNL     1      -7.511 -10.230  17.687  0.00  0.00    +0.046 A 
ATOM     20  C   UNL     1      -9.226  -9.642  16.090  0.00  0.00    +0.046 A 
ATOM     22  C   UNL     1      -8.820  -9.836  17.410  0.00  0.00    +0.120 A 
BRANCH  22   2
ATOM      2  O   UNL     1      -9.702  -9.640  18.429  0.00  0.00    -0.495 OA
ATOM     27  C   UNL     1      -9.768 -10.651  19.433  0.00  0.00    +0.277 C 
ENDBRANCH  22   2
ENDBRANCH  13  15
ENDBRANCH   4  13
ENDBRANCH  14   9
TORSDOF 9
ENDMDL
