MODEL 1
REMARK VINA RESULT:       2.8      0.000      0.000
REMARK  Name = 51136648
REMARK  10 active torsions:
REMARK  status: ('A' for Active; 'I' for Inactive)
REMARK    1  A    between atoms: O_2  and  C_19
REMARK    2  A    between atoms: O_5  and  C_29
REMARK    3  A    between atoms: O_5  and  C_32
REMARK    4  A    between atoms: C_9  and  C_14
REMARK    5  A    between atoms: C_10  and  C_15
REMARK    6  A    between atoms: C_14  and  C_16
REMARK    7  A    between atoms: C_15  and  C_19
REMARK    8  A    between atoms: C_17  and  C_21
REMARK    9  A    between atoms: C_26  and  C_30
REMARK   10  A    between atoms: C_27  and  C_31
REMARK                            x       y       z     vdW  Elec       q    Type
REMARK                         _______ _______ _______ _____ _____    ______ ____
ROOT
ATOM      1  O   UNL     1       0.097   4.378  23.506  0.00  0.00    -0.270 OA
ATOM      6  N   UNL     1       0.419   2.160  24.173  0.00  0.00    -0.297 N 
ATOM      9  C   UNL     1      -0.221  -0.226  24.206  0.00  0.00    +0.016 C 
ATOM     10  C   UNL     1       0.925  -0.551  23.212  0.00  0.00    +0.006 C 
ATOM     11  C   UNL     1       1.259   0.703  22.380  0.00  0.00    +0.023 C 
ATOM     12  C   UNL     1       0.094   1.022  25.044  0.00  0.00    +0.112 C 
ATOM     13  C   UNL     1       1.529   1.930  23.250  0.00  0.00    +0.108 C 
ATOM     17  C   UNL     1      -0.204   3.410  24.203  0.00  0.00    +0.252 C 
ENDROOT
BRANCH  17  21
ATOM      4  O   UNL     1      -2.518   3.686  27.013  0.00  0.00    -0.359 OA
ATOM      8  N   UNL     1      -3.377   4.083  25.995  0.00  0.00    -0.083 NA
ATOM     21  C   UNL     1      -1.325   3.605  25.131  0.00  0.00    +0.101 A 
ATOM     26  C   UNL     1      -1.299   3.405  26.487  0.00  0.00    +0.147 A 
ATOM     27  C   UNL     1      -2.642   4.028  24.882  0.00  0.00    +0.093 A 
ATOM     30  C   UNL     1      -0.267   2.966  27.435  0.00  0.00    +0.090 C 
ATOM     31  C   UNL     1      -3.249   4.389  23.589  0.00  0.00    +0.070 C 
ENDBRANCH  17  21
BRANCH   9  14
ATOM     14  C   UNL     1      -0.583  -1.404  25.109  0.00  0.00    +0.061 C 
BRANCH  14  16
ATOM      7  N   UNL     1      -2.152  -3.113  24.485  0.00  0.00    -0.287 NA
ATOM     16  C   UNL     1      -1.986  -1.872  24.802  0.00  0.00    +0.044 C 
ATOM     18  C   UNL     1      -3.098  -0.889  24.871  0.00  0.00    -0.001 A 
ATOM     20  C   UNL     1      -4.289  -1.238  24.221  0.00  0.00    -0.033 A 
ATOM     22  C   UNL     1      -4.358  -2.549  23.499  0.00  0.00    +0.059 C 
ATOM     23  C   UNL     1      -3.521  -3.580  24.246  0.00  0.00    +0.146 C 
ATOM     24  C   UNL     1      -2.984   0.335  25.531  0.00  0.00    +0.013 A 
ATOM     25  C   UNL     1      -5.360  -0.340  24.215  0.00  0.00    +0.050 A 
ATOM     28  C   UNL     1      -4.063   1.219  25.534  0.00  0.00    +0.046 A 
ATOM     29  C   UNL     1      -5.248   0.885  24.875  0.00  0.00    +0.120 A 
BRANCH  29   5
ATOM      5  O   UNL     1      -6.294   1.756  24.874  0.00  0.00    -0.495 OA
ATOM     32  C   UNL     1      -6.158   2.934  25.668  0.00  0.00    +0.277 C 
ENDBRANCH  29   5
ENDBRANCH  14  16
ENDBRANCH   9  14
BRANCH  10  15
ATOM     15  C   UNL     1       2.187  -1.115  23.876  0.00  0.00    +0.124 C 
BRANCH  15  19
ATOM      3  O   UNL     1       3.492  -0.083  22.096  0.00  0.00    -0.251 OA
ATOM     19  C   UNL     1       3.435  -0.671  23.165  0.00  0.00    +0.305 C 
BRANCH  19   2
ATOM      2  O   UNL     1       4.526  -1.022  23.894  0.00  0.00    -0.481 OA
ATOM     33  H   UNL     1       4.282  -1.316  24.797  0.00  0.00    +0.295 HD
ENDBRANCH  19   2
ENDBRANCH  15  19
ENDBRANCH  10  15
TORSDOF 7
ENDMDL
MODEL 2
REMARK VINA RESULT:       3.5      2.002      4.950
REMARK  Name = 51136648
REMARK  10 active torsions:
REMARK  status: ('A' for Active; 'I' for Inactive)
REMARK    1  A    between atoms: O_2  and  C_19
REMARK    2  A    between atoms: O_5  and  C_29
REMARK    3  A    between atoms: O_5  and  C_32
REMARK    4  A    between atoms: C_9  and  C_14
REMARK    5  A    between atoms: C_10  and  C_15
REMARK    6  A    between atoms: C_14  and  C_16
REMARK    7  A    between atoms: C_15  and  C_19
REMARK    8  A    between atoms: C_17  and  C_21
REMARK    9  A    between atoms: C_26  and  C_30
REMARK   10  A    between atoms: C_27  and  C_31
REMARK                            x       y       z     vdW  Elec       q    Type
REMARK                         _______ _______ _______ _____ _____    ______ ____
ROOT
ATOM      1  O   UNL     1      -1.639  -3.314  25.318  0.00  0.00    -0.270 OA
ATOM      6  N   UNL     1      -0.829  -1.539  24.029  0.00  0.00    -0.297 N 
ATOM      9  C   UNL     1      -0.174   0.824  23.730  0.00  0.00    +0.016 C 
ATOM     10  C   UNL     1       1.323   0.421  23.784  0.00  0.00    +0.006 C 
ATOM     11  C   UNL     1       1.477  -0.889  24.582  0.00  0.00    +0.023 C 
ATOM     12  C   UNL     1      -1.054  -0.329  23.226  0.00  0.00    +0.112 C 
ATOM     13  C   UNL     1       0.558  -1.998  24.071  0.00  0.00    +0.108 C 
ATOM     17  C   UNL     1      -1.819  -2.276  24.683  0.00  0.00    +0.252 C 
ENDROOT
BRANCH  17  21
ATOM      4  O   UNL     1      -5.354  -1.584  24.091  0.00  0.00    -0.359 OA
ATOM      8  N   UNL     1      -5.091  -0.564  24.999  0.00  0.00    -0.083 NA
ATOM     21  C   UNL     1      -3.200  -1.780  24.633  0.00  0.00    +0.101 A 
ATOM     26  C   UNL     1      -4.221  -2.301  23.882  0.00  0.00    +0.147 A 
ATOM     27  C   UNL     1      -3.799  -0.703  25.308  0.00  0.00    +0.093 A 
ATOM     30  C   UNL     1      -4.328  -3.424  22.941  0.00  0.00    +0.090 C 
ATOM     31  C   UNL     1      -3.174   0.231  26.261  0.00  0.00    +0.070 C 
ENDBRANCH  17  21
BRANCH   9  14
ATOM     14  C   UNL     1      -0.424   2.091  22.913  0.00  0.00    +0.061 C 
BRANCH  14  16
ATOM      7  N   UNL     1      -0.204   4.109  24.198  0.00  0.00    -0.287 NA
ATOM     16  C   UNL     1      -0.998   3.169  23.802  0.00  0.00    +0.044 C 
ATOM     18  C   UNL     1      -2.432   3.094  24.182  0.00  0.00    -0.001 A 
ATOM     20  C   UNL     1      -2.832   3.856  25.287  0.00  0.00    -0.033 A 
ATOM     22  C   UNL     1      -1.803   4.671  26.011  0.00  0.00    +0.059 C 
ATOM     23  C   UNL     1      -0.776   5.188  25.011  0.00  0.00    +0.146 C 
ATOM     24  C   UNL     1      -3.354   2.300  23.499  0.00  0.00    +0.013 A 
ATOM     25  C   UNL     1      -4.159   3.798  25.721  0.00  0.00    +0.050 A 
ATOM     28  C   UNL     1      -4.681   2.261  23.929  0.00  0.00    +0.046 A 
ATOM     29  C   UNL     1      -5.082   3.005  25.038  0.00  0.00    +0.120 A 
BRANCH  29   5
ATOM      5  O   UNL     1      -6.377   2.956  25.458  0.00  0.00    -0.495 OA
ATOM     32  C   UNL     1      -6.683   2.043  26.511  0.00  0.00    +0.277 C 
ENDBRANCH  29   5
ENDBRANCH  14  16
ENDBRANCH   9  14
BRANCH  10  15
ATOM     15  C   UNL     1       1.987   0.301  22.408  0.00  0.00    +0.124 C 
BRANCH  15  19
ATOM      3  O   UNL     1       4.118   0.826  23.465  0.00  0.00    -0.251 OA
ATOM     19  C   UNL     1       3.443   0.671  22.459  0.00  0.00    +0.305 C 
BRANCH  19   2
ATOM      2  O   UNL     1       3.924   0.812  21.197  0.00  0.00    -0.481 OA
ATOM     33  H   UNL     1       4.599   0.133  20.985  0.00  0.00    +0.295 HD
ENDBRANCH  19   2
ENDBRANCH  15  19
ENDBRANCH  10  15
TORSDOF 7
ENDMDL
MODEL 3
REMARK VINA RESULT:       4.1      2.261      5.229
REMARK  Name = 51136648
REMARK  10 active torsions:
REMARK  status: ('A' for Active; 'I' for Inactive)
REMARK    1  A    between atoms: O_2  and  C_19
REMARK    2  A    between atoms: O_5  and  C_29
REMARK    3  A    between atoms: O_5  and  C_32
REMARK    4  A    between atoms: C_9  and  C_14
REMARK    5  A    between atoms: C_10  and  C_15
REMARK    6  A    between atoms: C_14  and  C_16
REMARK    7  A    between atoms: C_15  and  C_19
REMARK    8  A    between atoms: C_17  and  C_21
REMARK    9  A    between atoms: C_26  and  C_30
REMARK   10  A    between atoms: C_27  and  C_31
REMARK                            x       y       z     vdW  Elec       q    Type
REMARK                         _______ _______ _______ _____ _____    ______ ____
ROOT
ATOM      1  O   UNL     1      -6.691   0.204  24.060  0.00  0.00    -0.270 OA
ATOM      6  N   UNL     1      -4.442  -0.359  24.364  0.00  0.00    -0.297 N 
ATOM      9  C   UNL     1      -2.523  -0.999  25.782  0.00  0.00    +0.016 C 
ATOM     10  C   UNL     1      -2.631  -2.461  25.275  0.00  0.00    +0.006 C 
ATOM     11  C   UNL     1      -4.076  -2.746  24.824  0.00  0.00    +0.023 C 
ATOM     12  C   UNL     1      -3.071  -0.001  24.751  0.00  0.00    +0.112 C 
ATOM     13  C   UNL     1      -4.595  -1.710  23.828  0.00  0.00    +0.108 C 
ATOM     17  C   UNL     1      -5.551   0.488  24.425  0.00  0.00    +0.252 C 
ENDROOT
BRANCH  17  21
ATOM      4  O   UNL     1      -5.476   3.580  26.365  0.00  0.00    -0.359 OA
ATOM      8  N   UNL     1      -4.741   4.005  25.265  0.00  0.00    -0.083 NA
ATOM     21  C   UNL     1      -5.366   1.834  24.982  0.00  0.00    +0.101 A 
ATOM     26  C   UNL     1      -5.843   2.285  26.185  0.00  0.00    +0.147 A 
ATOM     27  C   UNL     1      -4.688   2.945  24.454  0.00  0.00    +0.093 A 
ATOM     30  C   UNL     1      -6.633   1.678  27.264  0.00  0.00    +0.090 C 
ATOM     31  C   UNL     1      -3.972   3.046  23.170  0.00  0.00    +0.070 C 
ENDBRANCH  17  21
BRANCH   9  14
ATOM     14  C   UNL     1      -1.106  -0.615  26.205  0.00  0.00    +0.061 C 
BRANCH  14  16
ATOM      7  N   UNL     1       0.243  -0.548  24.219  0.00  0.00    -0.287 NA
ATOM     16  C   UNL     1      -0.424   0.137  25.087  0.00  0.00    +0.044 C 
ATOM     18  C   UNL     1      -0.544   1.617  25.045  0.00  0.00    -0.001 A 
ATOM     20  C   UNL     1       0.390   2.303  24.257  0.00  0.00    -0.033 A 
ATOM     22  C   UNL     1       1.439   1.514  23.533  0.00  0.00    +0.059 C 
ATOM     23  C   UNL     1       0.854   0.176  23.100  0.00  0.00    +0.146 C 
ATOM     24  C   UNL     1      -1.520   2.317  25.756  0.00  0.00    +0.013 A 
ATOM     25  C   UNL     1       0.356   3.699  24.205  0.00  0.00    +0.050 A 
ATOM     28  C   UNL     1      -1.557   3.710  25.686  0.00  0.00    +0.046 A 
ATOM     29  C   UNL     1      -0.620   4.400  24.916  0.00  0.00    +0.120 A 
BRANCH  29   5
ATOM      5  O   UNL     1      -0.656   5.760  24.859  0.00  0.00    -0.495 OA
ATOM     32  C   UNL     1      -1.943   6.377  24.891  0.00  0.00    +0.277 C 
ENDBRANCH  29   5
ENDBRANCH  14  16
ENDBRANCH   9  14
BRANCH  10  15
ATOM     15  C   UNL     1      -1.635  -2.812  24.164  0.00  0.00    +0.124 C 
BRANCH  15  19
ATOM      3  O   UNL     1      -3.254  -4.433  23.336  0.00  0.00    -0.251 OA
ATOM     19  C   UNL     1      -2.142  -3.930  23.295  0.00  0.00    +0.305 C 
BRANCH  19   2
ATOM      2  O   UNL     1      -1.168  -4.316  22.432  0.00  0.00    -0.481 OA
ATOM     33  H   UNL     1      -1.384  -5.168  21.996  0.00  0.00    +0.295 HD
ENDBRANCH  19   2
ENDBRANCH  15  19
ENDBRANCH  10  15
TORSDOF 7
ENDMDL
MODEL 4
REMARK VINA RESULT:       4.1      2.097      6.004
REMARK  Name = 51136648
REMARK  10 active torsions:
REMARK  status: ('A' for Active; 'I' for Inactive)
REMARK    1  A    between atoms: O_2  and  C_19
REMARK    2  A    between atoms: O_5  and  C_29
REMARK    3  A    between atoms: O_5  and  C_32
REMARK    4  A    between atoms: C_9  and  C_14
REMARK    5  A    between atoms: C_10  and  C_15
REMARK    6  A    between atoms: C_14  and  C_16
REMARK    7  A    between atoms: C_15  and  C_19
REMARK    8  A    between atoms: C_17  and  C_21
REMARK    9  A    between atoms: C_26  and  C_30
REMARK   10  A    between atoms: C_27  and  C_31
REMARK                            x       y       z     vdW  Elec       q    Type
REMARK                         _______ _______ _______ _____ _____    ______ ____
ROOT
ATOM      1  O   UNL     1       3.037  -2.488  24.543  0.00  0.00    -0.270 OA
ATOM      6  N   UNL     1       1.085  -1.205  24.426  0.00  0.00    -0.297 N 
ATOM      9  C   UNL     1      -0.934  -0.401  23.250  0.00  0.00    +0.016 C 
ATOM     10  C   UNL     1      -1.817  -1.333  24.120  0.00  0.00    +0.006 C 
ATOM     11  C   UNL     1      -0.978  -2.529  24.612  0.00  0.00    +0.023 C 
ATOM     12  C   UNL     1       0.361  -0.008  23.976  0.00  0.00    +0.112 C 
ATOM     13  C   UNL     1       0.318  -2.095  25.295  0.00  0.00    +0.108 C 
ATOM     17  C   UNL     1       2.416  -1.508  24.131  0.00  0.00    +0.252 C 
ENDROOT
BRANCH  17  21
ATOM      4  O   UNL     1       3.679   0.676  21.493  0.00  0.00    -0.359 OA
ATOM      8  N   UNL     1       4.752   0.769  22.373  0.00  0.00    -0.083 NA
ATOM     21  C   UNL     1       3.155  -0.602  23.243  0.00  0.00    +0.101 A 
ATOM     26  C   UNL     1       2.735  -0.143  22.023  0.00  0.00    +0.147 A 
ATOM     27  C   UNL     1       4.414  -0.002  23.410  0.00  0.00    +0.093 A 
ATOM     30  C   UNL     1       1.527  -0.351  21.213  0.00  0.00    +0.090 C 
ATOM     31  C   UNL     1       5.340  -0.136  24.548  0.00  0.00    +0.070 C 
ENDBRANCH  17  21
BRANCH   9  14
ATOM     14  C   UNL     1      -1.675   0.842  22.760  0.00  0.00    +0.061 C 
BRANCH  14  16
ATOM      7  N   UNL     1      -0.290   2.306  24.066  0.00  0.00    -0.287 NA
ATOM     16  C   UNL     1      -1.496   1.969  23.748  0.00  0.00    +0.044 C 
ATOM     18  C   UNL     1      -2.705   2.626  24.309  0.00  0.00    -0.001 A 
ATOM     20  C   UNL     1      -2.529   3.375  25.480  0.00  0.00    -0.033 A 
ATOM     22  C   UNL     1      -1.161   3.450  26.088  0.00  0.00    +0.059 C 
ATOM     23  C   UNL     1      -0.116   3.440  24.980  0.00  0.00    +0.146 C 
ATOM     24  C   UNL     1      -3.968   2.507  23.727  0.00  0.00    +0.013 A 
ATOM     25  C   UNL     1      -3.634   3.985  26.081  0.00  0.00    +0.050 A 
ATOM     28  C   UNL     1      -5.062   3.134  24.325  0.00  0.00    +0.046 A 
ATOM     29  C   UNL     1      -4.897   3.868  25.500  0.00  0.00    +0.120 A 
BRANCH  29   5
ATOM      5  O   UNL     1      -5.971   4.469  26.082  0.00  0.00    -0.495 OA
ATOM     32  C   UNL     1      -6.577   5.547  25.370  0.00  0.00    +0.277 C 
ENDBRANCH  29   5
ENDBRANCH  14  16
ENDBRANCH   9  14
BRANCH  10  15
ATOM     15  C   UNL     1      -2.499  -0.626  25.297  0.00  0.00    +0.124 C 
BRANCH  15  19
ATOM      3  O   UNL     1      -4.783   0.087  25.761  0.00  0.00    -0.251 OA
ATOM     19  C   UNL     1      -3.996  -0.622  25.152  0.00  0.00    +0.305 C 
BRANCH  19   2
ATOM      2  O   UNL     1      -4.368  -1.539  24.222  0.00  0.00    -0.481 OA
ATOM     33  H   UNL     1      -3.713  -2.266  24.144  0.00  0.00    +0.295 HD
ENDBRANCH  19   2
ENDBRANCH  15  19
ENDBRANCH  10  15
TORSDOF 7
ENDMDL
MODEL 5
REMARK VINA RESULT:       4.2      2.036      6.179
REMARK  Name = 51136648
REMARK  10 active torsions:
REMARK  status: ('A' for Active; 'I' for Inactive)
REMARK    1  A    between atoms: O_2  and  C_19
REMARK    2  A    between atoms: O_5  and  C_29
REMARK    3  A    between atoms: O_5  and  C_32
REMARK    4  A    between atoms: C_9  and  C_14
REMARK    5  A    between atoms: C_10  and  C_15
REMARK    6  A    between atoms: C_14  and  C_16
REMARK    7  A    between atoms: C_15  and  C_19
REMARK    8  A    between atoms: C_17  and  C_21
REMARK    9  A    between atoms: C_26  and  C_30
REMARK   10  A    between atoms: C_27  and  C_31
REMARK                            x       y       z     vdW  Elec       q    Type
REMARK                         _______ _______ _______ _____ _____    ______ ____
ROOT
ATOM      1  O   UNL     1      -6.056   4.128  25.493  0.00  0.00    -0.270 OA
ATOM      6  N   UNL     1      -4.855   2.247  24.795  0.00  0.00    -0.297 N 
ATOM      9  C   UNL     1      -3.273   0.392  25.195  0.00  0.00    +0.016 C 
ATOM     10  C   UNL     1      -4.455  -0.610  25.250  0.00  0.00    +0.006 C 
ATOM     11  C   UNL     1      -5.740   0.129  25.674  0.00  0.00    +0.023 C 
ATOM     12  C   UNL     1      -3.610   1.618  24.333  0.00  0.00    +0.112 C 
ATOM     13  C   UNL     1      -6.018   1.362  24.816  0.00  0.00    +0.108 C 
ATOM     17  C   UNL     1      -5.004   3.590  25.150  0.00  0.00    +0.252 C 
ENDROOT
BRANCH  17  21
ATOM      4  O   UNL     1      -1.922   5.448  25.757  0.00  0.00    -0.359 OA
ATOM      8  N   UNL     1      -2.218   5.943  24.492  0.00  0.00    -0.083 NA
ATOM     21  C   UNL     1      -3.814   4.449  25.131  0.00  0.00    +0.101 A 
ATOM     26  C   UNL     1      -2.879   4.559  26.126  0.00  0.00    +0.147 A 
ATOM     27  C   UNL     1      -3.352   5.331  24.140  0.00  0.00    +0.093 A 
ATOM     30  C   UNL     1      -2.715   3.940  27.448  0.00  0.00    +0.090 C 
ATOM     31  C   UNL     1      -3.962   5.627  22.832  0.00  0.00    +0.070 C 
ENDBRANCH  17  21
BRANCH   9  14
ATOM     14  C   UNL     1      -1.965  -0.248  24.732  0.00  0.00    +0.061 C 
BRANCH  14  16
ATOM      7  N   UNL     1      -0.965   1.638  25.833  0.00  0.00    -0.287 NA
ATOM     16  C   UNL     1      -0.821   0.715  24.940  0.00  0.00    +0.044 C 
ATOM     18  C   UNL     1       0.401   0.562  24.109  0.00  0.00    -0.001 A 
ATOM     20  C   UNL     1       1.260   1.667  24.043  0.00  0.00    -0.033 A 
ATOM     22  C   UNL     1       0.889   2.914  24.788  0.00  0.00    +0.059 C 
ATOM     23  C   UNL     1       0.170   2.535  26.076  0.00  0.00    +0.146 C 
ATOM     24  C   UNL     1       0.696  -0.607  23.408  0.00  0.00    +0.013 A 
ATOM     25  C   UNL     1       2.407   1.602  23.247  0.00  0.00    +0.050 A 
ATOM     28  C   UNL     1       1.852  -0.669  22.628  0.00  0.00    +0.046 A 
ATOM     29  C   UNL     1       2.704   0.433  22.545  0.00  0.00    +0.120 A 
BRANCH  29   5
ATOM      5  O   UNL     1       3.825   0.369  21.775  0.00  0.00    -0.495 OA
ATOM     32  C   UNL     1       5.062   0.142  22.449  0.00  0.00    +0.277 C 
ENDBRANCH  29   5
ENDBRANCH  14  16
ENDBRANCH   9  14
BRANCH  10  15
ATOM     15  C   UNL     1      -4.679  -1.385  23.946  0.00  0.00    +0.124 C 
BRANCH  15  19
ATOM      3  O   UNL     1      -4.084  -3.598  23.118  0.00  0.00    -0.251 OA
ATOM     19  C   UNL     1      -4.105  -2.772  24.018  0.00  0.00    +0.305 C 
BRANCH  19   2
ATOM      2  O   UNL     1      -3.594  -2.993  25.257  0.00  0.00    -0.481 OA
ATOM     33  H   UNL     1      -3.634  -3.941  25.505  0.00  0.00    +0.295 HD
ENDBRANCH  19   2
ENDBRANCH  15  19
ENDBRANCH  10  15
TORSDOF 7
ENDMDL
MODEL 6
REMARK VINA RESULT:       4.6      2.011      7.227
REMARK  Name = 51136648
REMARK  10 active torsions:
REMARK  status: ('A' for Active; 'I' for Inactive)
REMARK    1  A    between atoms: O_2  and  C_19
REMARK    2  A    between atoms: O_5  and  C_29
REMARK    3  A    between atoms: O_5  and  C_32
REMARK    4  A    between atoms: C_9  and  C_14
REMARK    5  A    between atoms: C_10  and  C_15
REMARK    6  A    between atoms: C_14  and  C_16
REMARK    7  A    between atoms: C_15  and  C_19
REMARK    8  A    between atoms: C_17  and  C_21
REMARK    9  A    between atoms: C_26  and  C_30
REMARK   10  A    between atoms: C_27  and  C_31
REMARK                            x       y       z     vdW  Elec       q    Type
REMARK                         _______ _______ _______ _____ _____    ______ ____
ROOT
ATOM      1  O   UNL     1      -4.381  -1.850  26.599  0.00  0.00    -0.270 OA
ATOM      6  N   UNL     1      -4.070   0.226  25.568  0.00  0.00    -0.297 N 
ATOM      9  C   UNL     1      -4.010   1.691  23.579  0.00  0.00    +0.016 C 
ATOM     10  C   UNL     1      -5.377   2.303  23.985  0.00  0.00    +0.006 C 
ATOM     11  C   UNL     1      -6.163   1.291  24.842  0.00  0.00    +0.023 C 
ATOM     12  C   UNL     1      -3.241   1.166  24.800  0.00  0.00    +0.112 C 
ATOM     13  C   UNL     1      -5.349   0.767  26.023  0.00  0.00    +0.108 C 
ATOM     17  C   UNL     1      -3.707  -1.077  25.918  0.00  0.00    +0.252 C 
ENDROOT
BRANCH  17  21
ATOM      4  O   UNL     1      -0.921  -2.788  24.296  0.00  0.00    -0.359 OA
ATOM      8  N   UNL     1      -0.193  -1.940  25.122  0.00  0.00    -0.083 NA
ATOM     21  C   UNL     1      -2.422  -1.595  25.433  0.00  0.00    +0.101 A 
ATOM     26  C   UNL     1      -2.247  -2.573  24.490  0.00  0.00    +0.147 A 
ATOM     27  C   UNL     1      -1.111  -1.237  25.790  0.00  0.00    +0.093 A 
ATOM     30  C   UNL     1      -3.163  -3.395  23.688  0.00  0.00    +0.090 C 
ATOM     31  C   UNL     1      -0.682  -0.226  26.772  0.00  0.00    +0.070 C 
ENDBRANCH  17  21
BRANCH   9  14
ATOM     14  C   UNL     1      -3.142   2.650  22.766  0.00  0.00    +0.061 C 
BRANCH  14  16
ATOM      7  N   UNL     1      -1.894   4.032  24.283  0.00  0.00    -0.287 NA
ATOM     16  C   UNL     1      -1.885   2.979  23.534  0.00  0.00    +0.044 C 
ATOM     18  C   UNL     1      -0.704   2.089  23.388  0.00  0.00    -0.001 A 
ATOM     20  C   UNL     1       0.533   2.613  23.784  0.00  0.00    -0.033 A 
ATOM     22  C   UNL     1       0.587   4.017  24.306  0.00  0.00    +0.059 C 
ATOM     23  C   UNL     1      -0.694   4.318  25.075  0.00  0.00    +0.146 C 
ATOM     24  C   UNL     1      -0.793   0.796  22.871  0.00  0.00    +0.013 A 
ATOM     25  C   UNL     1       1.689   1.841  23.635  0.00  0.00    +0.050 A 
ATOM     28  C   UNL     1       0.364   0.027  22.740  0.00  0.00    +0.046 A 
ATOM     29  C   UNL     1       1.602   0.548  23.119  0.00  0.00    +0.120 A 
BRANCH  29   5
ATOM      5  O   UNL     1       2.727  -0.205  22.980  0.00  0.00    -0.495 OA
ATOM     32  C   UNL     1       3.955   0.494  22.776  0.00  0.00    +0.277 C 
ENDBRANCH  29   5
ENDBRANCH  14  16
ENDBRANCH   9  14
BRANCH  10  15
ATOM     15  C   UNL     1      -5.268   3.654  24.701  0.00  0.00    +0.124 C 
BRANCH  15  19
ATOM      3  O   UNL     1      -5.784   3.034  27.000  0.00  0.00    -0.251 OA
ATOM     19  C   UNL     1      -5.007   3.484  26.172  0.00  0.00    +0.305 C 
BRANCH  19   2
ATOM      2  O   UNL     1      -3.752   3.910  26.466  0.00  0.00    -0.481 OA
ATOM     33  H   UNL     1      -3.512   3.722  27.399  0.00  0.00    +0.295 HD
ENDBRANCH  19   2
ENDBRANCH  15  19
ENDBRANCH  10  15
TORSDOF 7
ENDMDL
MODEL 7
REMARK VINA RESULT:       5.1      1.850      6.896
REMARK  Name = 51136648
REMARK  10 active torsions:
REMARK  status: ('A' for Active; 'I' for Inactive)
REMARK    1  A    between atoms: O_2  and  C_19
REMARK    2  A    between atoms: O_5  and  C_29
REMARK    3  A    between atoms: O_5  and  C_32
REMARK    4  A    between atoms: C_9  and  C_14
REMARK    5  A    between atoms: C_10  and  C_15
REMARK    6  A    between atoms: C_14  and  C_16
REMARK    7  A    between atoms: C_15  and  C_19
REMARK    8  A    between atoms: C_17  and  C_21
REMARK    9  A    between atoms: C_26  and  C_30
REMARK   10  A    between atoms: C_27  and  C_31
REMARK                            x       y       z     vdW  Elec       q    Type
REMARK                         _______ _______ _______ _____ _____    ______ ____
ROOT
ATOM      1  O   UNL     1      -5.679   0.214  25.254  0.00  0.00    -0.270 OA
ATOM      6  N   UNL     1      -3.681   1.409  25.027  0.00  0.00    -0.297 N 
ATOM      9  C   UNL     1      -1.787   2.265  23.692  0.00  0.00    +0.016 C 
ATOM     10  C   UNL     1      -2.420   3.681  23.695  0.00  0.00    +0.006 C 
ATOM     11  C   UNL     1      -3.946   3.565  23.876  0.00  0.00    +0.023 C 
ATOM     12  C   UNL     1      -2.216   1.451  24.921  0.00  0.00    +0.112 C 
ATOM     13  C   UNL     1      -4.330   2.717  25.088  0.00  0.00    +0.108 C 
ATOM     17  C   UNL     1      -4.456   0.250  25.120  0.00  0.00    +0.252 C 
ENDROOT
BRANCH  17  21
ATOM      4  O   UNL     1      -2.353  -2.715  25.454  0.00  0.00    -0.359 OA
ATOM      8  N   UNL     1      -3.184  -3.162  24.433  0.00  0.00    -0.083 NA
ATOM     21  C   UNL     1      -3.776  -1.049  25.041  0.00  0.00    +0.101 A 
ATOM     26  C   UNL     1      -2.715  -1.456  25.808  0.00  0.00    +0.147 A 
ATOM     27  C   UNL     1      -4.025  -2.150  24.204  0.00  0.00    +0.093 A 
ATOM     30  C   UNL     1      -1.932  -0.831  26.882  0.00  0.00    +0.090 C 
ATOM     31  C   UNL     1      -5.059  -2.284  23.164  0.00  0.00    +0.070 C 
ENDBRANCH  17  21
BRANCH   9  14
ATOM     14  C   UNL     1      -0.265   2.289  23.566  0.00  0.00    +0.061 C 
BRANCH  14  16
ATOM      7  N   UNL     1      -0.582  -0.091  23.595  0.00  0.00    -0.287 NA
ATOM     16  C   UNL     1       0.265   0.878  23.486  0.00  0.00    +0.044 C 
ATOM     18  C   UNL     1       1.724   0.672  23.295  0.00  0.00    -0.001 A 
ATOM     20  C   UNL     1       2.229  -0.597  23.609  0.00  0.00    -0.033 A 
ATOM     22  C   UNL     1       1.283  -1.641  24.123  0.00  0.00    +0.059 C 
ATOM     23  C   UNL     1      -0.075  -1.461  23.457  0.00  0.00    +0.146 C 
ATOM     24  C   UNL     1       2.576   1.680  22.840  0.00  0.00    +0.013 A 
ATOM     25  C   UNL     1       3.599  -0.843  23.489  0.00  0.00    +0.050 A 
ATOM     28  C   UNL     1       3.941   1.420  22.708  0.00  0.00    +0.046 A 
ATOM     29  C   UNL     1       4.452   0.163  23.035  0.00  0.00    +0.120 A 
BRANCH  29   5
ATOM      5  O   UNL     1       5.786  -0.081  22.912  0.00  0.00    -0.495 OA
ATOM     32  C   UNL     1       6.453  -0.626  24.050  0.00  0.00    +0.277 C 
ENDBRANCH  29   5
ENDBRANCH  14  16
ENDBRANCH   9  14
BRANCH  10  15
ATOM     15  C   UNL     1      -1.819   4.632  24.737  0.00  0.00    +0.124 C 
BRANCH  15  19
ATOM      3  O   UNL     1      -3.159   4.511  26.768  0.00  0.00    -0.251 OA
ATOM     19  C   UNL     1      -2.158   4.206  26.138  0.00  0.00    +0.305 C 
BRANCH  19   2
ATOM      2  O   UNL     1      -1.172   3.410  26.626  0.00  0.00    -0.481 OA
ATOM     33  H   UNL     1      -1.422   2.462  26.601  0.00  0.00    +0.295 HD
ENDBRANCH  19   2
ENDBRANCH  15  19
ENDBRANCH  10  15
TORSDOF 7
ENDMDL
MODEL 8
REMARK VINA RESULT:       5.7      1.870      6.711
REMARK  Name = 51136648
REMARK  10 active torsions:
REMARK  status: ('A' for Active; 'I' for Inactive)
REMARK    1  A    between atoms: O_2  and  C_19
REMARK    2  A    between atoms: O_5  and  C_29
REMARK    3  A    between atoms: O_5  and  C_32
REMARK    4  A    between atoms: C_9  and  C_14
REMARK    5  A    between atoms: C_10  and  C_15
REMARK    6  A    between atoms: C_14  and  C_16
REMARK    7  A    between atoms: C_15  and  C_19
REMARK    8  A    between atoms: C_17  and  C_21
REMARK    9  A    between atoms: C_26  and  C_30
REMARK   10  A    between atoms: C_27  and  C_31
REMARK                            x       y       z     vdW  Elec       q    Type
REMARK                         _______ _______ _______ _____ _____    ______ ____
ROOT
ATOM      1  O   UNL     1      -0.262  -1.989  24.828  0.00  0.00    -0.270 OA
ATOM      6  N   UNL     1      -2.062  -0.505  24.985  0.00  0.00    -0.297 N 
ATOM      9  C   UNL     1      -3.820   0.913  23.983  0.00  0.00    +0.016 C 
ATOM     10  C   UNL     1      -4.892  -0.141  24.364  0.00  0.00    +0.006 C 
ATOM     11  C   UNL     1      -4.236  -1.531  24.472  0.00  0.00    +0.023 C 
ATOM     12  C   UNL     1      -2.611   0.857  24.928  0.00  0.00    +0.112 C 
ATOM     13  C   UNL     1      -3.017  -1.534  25.392  0.00  0.00    +0.108 C 
ATOM     17  C   UNL     1      -0.733  -0.856  24.736  0.00  0.00    +0.252 C 
ENDROOT
BRANCH  17  21
ATOM      4  O   UNL     1       1.369   2.095  24.298  0.00  0.00    -0.359 OA
ATOM      8  N   UNL     1       1.733   1.407  23.146  0.00  0.00    -0.083 NA
ATOM     21  C   UNL     1       0.197   0.199  24.316  0.00  0.00    +0.101 A 
ATOM     26  C   UNL     1       0.455   1.366  24.987  0.00  0.00    +0.147 A 
ATOM     27  C   UNL     1       1.020   0.278  23.180  0.00  0.00    +0.093 A 
ATOM     30  C   UNL     1      -0.037   1.955  26.238  0.00  0.00    +0.090 C 
ATOM     31  C   UNL     1       1.160  -0.704  22.090  0.00  0.00    +0.070 C 
ENDBRANCH  17  21
BRANCH   9  14
ATOM     14  C   UNL     1      -4.377   2.333  23.902  0.00  0.00    +0.061 C 
BRANCH  14  16
ATOM      7  N   UNL     1      -4.023   3.502  25.971  0.00  0.00    -0.287 NA
ATOM     16  C   UNL     1      -3.568   3.251  24.787  0.00  0.00    +0.044 C 
ATOM     18  C   UNL     1      -2.304   3.824  24.258  0.00  0.00    -0.001 A 
ATOM     20  C   UNL     1      -1.791   4.945  24.924  0.00  0.00    -0.033 A 
ATOM     22  C   UNL     1      -2.547   5.492  26.098  0.00  0.00    +0.059 C 
ATOM     23  C   UNL     1      -3.207   4.345  26.851  0.00  0.00    +0.146 C 
ATOM     24  C   UNL     1      -1.646   3.300  23.144  0.00  0.00    +0.013 A 
ATOM     25  C   UNL     1      -0.626   5.555  24.452  0.00  0.00    +0.050 A 
ATOM     28  C   UNL     1      -0.474   3.906  22.689  0.00  0.00    +0.046 A 
ATOM     29  C   UNL     1       0.033   5.032  23.339  0.00  0.00    +0.120 A 
BRANCH  29   5
ATOM      5  O   UNL     1       1.171   5.624  22.884  0.00  0.00    -0.495 OA
ATOM     32  C   UNL     1       1.252   5.884  21.482  0.00  0.00    +0.277 C 
ENDBRANCH  29   5
ENDBRANCH  14  16
ENDBRANCH   9  14
BRANCH  10  15
ATOM     15  C   UNL     1      -5.670   0.194  25.641  0.00  0.00    +0.124 C 
BRANCH  15  19
ATOM      3  O   UNL     1      -7.186   1.719  24.494  0.00  0.00    -0.251 OA
ATOM     19  C   UNL     1      -6.514   1.427  25.471  0.00  0.00    +0.305 C 
BRANCH  19   2
ATOM      2  O   UNL     1      -6.427   2.198  26.586  0.00  0.00    -0.481 OA
ATOM     33  H   UNL     1      -6.604   1.682  27.401  0.00  0.00    +0.295 HD
ENDBRANCH  19   2
ENDBRANCH  15  19
ENDBRANCH  10  15
TORSDOF 7
ENDMDL
MODEL 9
REMARK VINA RESULT:       6.4      2.399      6.770
REMARK  Name = 51136648
REMARK  10 active torsions:
REMARK  status: ('A' for Active; 'I' for Inactive)
REMARK    1  A    between atoms: O_2  and  C_19
REMARK    2  A    between atoms: O_5  and  C_29
REMARK    3  A    between atoms: O_5  and  C_32
REMARK    4  A    between atoms: C_9  and  C_14
REMARK    5  A    between atoms: C_10  and  C_15
REMARK    6  A    between atoms: C_14  and  C_16
REMARK    7  A    between atoms: C_15  and  C_19
REMARK    8  A    between atoms: C_17  and  C_21
REMARK    9  A    between atoms: C_26  and  C_30
REMARK   10  A    between atoms: C_27  and  C_31
REMARK                            x       y       z     vdW  Elec       q    Type
REMARK                         _______ _______ _______ _____ _____    ______ ____
ROOT
ATOM      1  O   UNL     1      -4.852  -1.268  26.625  0.00  0.00    -0.270 OA
ATOM      6  N   UNL     1      -4.048   0.532  25.367  0.00  0.00    -0.297 N 
ATOM      9  C   UNL     1      -3.725   1.735  23.233  0.00  0.00    +0.016 C 
ATOM     10  C   UNL     1      -4.834   2.745  23.630  0.00  0.00    +0.006 C 
ATOM     11  C   UNL     1      -5.807   2.079  24.622  0.00  0.00    +0.023 C 
ATOM     12  C   UNL     1      -3.047   1.124  24.469  0.00  0.00    +0.112 C 
ATOM     13  C   UNL     1      -5.090   1.453  25.817  0.00  0.00    +0.108 C 
ATOM     17  C   UNL     1      -4.040  -0.783  25.837  0.00  0.00    +0.252 C 
ENDROOT
BRANCH  17  21
ATOM      4  O   UNL     1      -1.951  -3.310  24.233  0.00  0.00    -0.359 OA
ATOM      8  N   UNL     1      -0.984  -2.721  25.040  0.00  0.00    -0.083 NA
ATOM     21  C   UNL     1      -2.988  -1.687  25.355  0.00  0.00    +0.101 A 
ATOM     26  C   UNL     1      -3.140  -2.686  24.430  0.00  0.00    +0.147 A 
ATOM     27  C   UNL     1      -1.627  -1.755  25.699  0.00  0.00    +0.093 A 
ATOM     30  C   UNL     1      -4.276  -3.190  23.648  0.00  0.00    +0.090 C 
ATOM     31  C   UNL     1      -0.891  -0.914  26.660  0.00  0.00    +0.070 C 
ENDBRANCH  17  21
BRANCH   9  14
ATOM     14  C   UNL     1      -2.684   2.330  22.286  0.00  0.00    +0.061 C 
BRANCH  14  16
ATOM      7  N   UNL     1      -0.789   0.949  21.764  0.00  0.00    -0.287 NA
ATOM     16  C   UNL     1      -1.319   1.770  22.609  0.00  0.00    +0.044 C 
ATOM     18  C   UNL     1      -0.659   2.181  23.875  0.00  0.00    -0.001 A 
ATOM     20  C   UNL     1       0.393   1.375  24.328  0.00  0.00    -0.033 A 
ATOM     22  C   UNL     1       0.767   0.163  23.529  0.00  0.00    +0.059 C 
ATOM     23  C   UNL     1       0.562   0.453  22.048  0.00  0.00    +0.146 C 
ATOM     24  C   UNL     1      -1.056   3.303  24.604  0.00  0.00    +0.013 A 
ATOM     25  C   UNL     1       1.029   1.684  25.533  0.00  0.00    +0.050 A 
ATOM     28  C   UNL     1      -0.405   3.613  25.798  0.00  0.00    +0.046 A 
ATOM     29  C   UNL     1       0.633   2.805  26.264  0.00  0.00    +0.120 A 
BRANCH  29   5
ATOM      5  O   UNL     1       1.259   3.109  27.434  0.00  0.00    -0.495 OA
ATOM     32  C   UNL     1       0.923   2.318  28.574  0.00  0.00    +0.277 C 
ENDBRANCH  29   5
ENDBRANCH  14  16
ENDBRANCH   9  14
BRANCH  10  15
ATOM     15  C   UNL     1      -4.302   4.067  24.193  0.00  0.00    +0.124 C 
BRANCH  15  19
ATOM      3  O   UNL     1      -5.997   4.665  25.839  0.00  0.00    -0.251 OA
ATOM     19  C   UNL     1      -4.850   4.347  25.566  0.00  0.00    +0.305 C 
BRANCH  19   2
ATOM      2  O   UNL     1      -3.868   4.192  26.491  0.00  0.00    -0.481 OA
ATOM     33  H   UNL     1      -3.856   3.285  26.862  0.00  0.00    +0.295 HD
ENDBRANCH  19   2
ENDBRANCH  15  19
ENDBRANCH  10  15
TORSDOF 7
ENDMDL
