MODEL 1
REMARK VINA RESULT:       9.0      0.000      0.000
REMARK  Name = 44716364
REMARK  14 active torsions:
REMARK  status: ('A' for Active; 'I' for Inactive)
REMARK    1  A    between atoms: O_1  and  C_17
REMARK    2  A    between atoms: O_1  and  C_22
REMARK    3  A    between atoms: O_3  and  C_25
REMARK    4  A    between atoms: O_3  and  C_35
REMARK    5  A    between atoms: O_4  and  C_28
REMARK    6  A    between atoms: O_4  and  C_36
REMARK    7  A    between atoms: N_6  and  C_20
REMARK    8  A    between atoms: N_8  and  C_27
REMARK    9  A    between atoms: C_10  and  C_16
REMARK   10  A    between atoms: C_11  and  C_17
REMARK   11  A    between atoms: C_19  and  C_21
REMARK   12  A    between atoms: C_31  and  C_34
REMARK   13  A    between atoms: C_34  and  C_37
REMARK   14  A    between atoms: C_34  and  C_38
REMARK                            x       y       z     vdW  Elec       q    Type
REMARK                         _______ _______ _______ _____ _____    ______ ____
ROOT
ATOM      5  N   UNL     1      -5.419   2.763  26.124  0.00  0.00    -0.296 NA
ATOM      9  C   UNL     1      -5.294   1.195  24.049  0.00  0.00    +0.002 C 
ATOM     10  C   UNL     1      -4.351   0.684  25.172  0.00  0.00    +0.055 C 
ATOM     11  C   UNL     1      -5.198   3.567  24.893  0.00  0.00    +0.095 C 
ATOM     12  C   UNL     1      -4.917   2.647  23.685  0.00  0.00    +0.026 C 
ATOM     13  C   UNL     1      -6.718   1.233  24.645  0.00  0.00    +0.019 C 
ATOM     14  C   UNL     1      -4.326   1.770  26.285  0.00  0.00    +0.094 C 
ATOM     15  C   UNL     1      -6.694   2.025  25.964  0.00  0.00    +0.085 C 
ENDROOT
BRANCH  10  16
ATOM      6  N   UNL     1      -2.579  -1.088  24.774  0.00  0.00    -0.270 N 
ATOM      7  N   UNL     1      -1.302  -1.284  24.402  0.00  0.00    -0.171 NA
ATOM     16  C   UNL     1      -2.953   0.224  24.783  0.00  0.00    +0.044 A 
ATOM     18  C   UNL     1      -1.845   0.934  24.392  0.00  0.00    +0.053 A 
ATOM     19  C   UNL     1      -0.860  -0.046  24.170  0.00  0.00    +0.093 A 
ATOM     20  C   UNL     1      -3.398  -2.227  25.115  0.00  0.00    +0.172 C 
BRANCH  19  21
ATOM     21  C   UNL     1       0.497   0.178  23.741  0.00  0.00    +0.006 A 
ATOM     23  C   UNL     1       1.369  -0.901  23.594  0.00  0.00    +0.059 A 
ATOM     24  C   UNL     1       0.939   1.474  23.475  0.00  0.00    +0.014 A 
ATOM     25  C   UNL     1       2.682  -0.684  23.179  0.00  0.00    +0.162 A 
ATOM     26  C   UNL     1       2.253   1.691  23.061  0.00  0.00    +0.050 A 
ATOM     28  C   UNL     1       3.125   0.612  22.913  0.00  0.00    +0.162 A 
BRANCH  25   3
ATOM      3  O   UNL     1       3.525  -1.746  23.039  0.00  0.00    -0.491 OA
ATOM     35  C   UNL     1       4.540  -1.901  24.028  0.00  0.00    +0.277 C 
ENDBRANCH  25   3
BRANCH  28   4
ATOM      4  O   UNL     1       4.406   0.837  22.508  0.00  0.00    -0.491 OA
ATOM     36  C   UNL     1       5.412   0.852  23.519  0.00  0.00    +0.277 C 
ENDBRANCH  28   4
ENDBRANCH  19  21
ENDBRANCH  10  16
BRANCH  11  17
ATOM     17  C   UNL     1      -4.106   4.621  25.073  0.00  0.00    +0.252 C 
BRANCH  17   1
ATOM      1  O   UNL     1      -3.044   4.320  24.189  0.00  0.00    -0.449 OA
BRANCH   1  22
ATOM      2  O   UNL     1      -0.792   4.716  24.232  0.00  0.00    -0.226 OA
ATOM      8  N   UNL     1      -1.861   3.487  25.914  0.00  0.00    -0.251 N 
ATOM     22  C   UNL     1      -1.787   4.216  24.743  0.00  0.00    +0.405 C 
ATOM     39  H   UNL     1      -2.784   3.153  26.178  0.00  0.00    +0.158 HD
BRANCH   8  27
ATOM     27  C   UNL     1      -0.808   3.146  26.794  0.00  0.00    +0.036 A 
ATOM     29  C   UNL     1       0.462   2.873  26.288  0.00  0.00    +0.024 A 
ATOM     30  C   UNL     1      -1.040   3.082  28.167  0.00  0.00    +0.024 A 
ATOM     31  C   UNL     1       1.269   2.473  28.530  0.00  0.00    -0.045 A 
ATOM     32  C   UNL     1       1.501   2.537  27.155  0.00  0.00    +0.006 A 
ATOM     33  C   UNL     1      -0.001   2.746  29.035  0.00  0.00    +0.006 A 
BRANCH  31  34
ATOM     34  C   UNL     1       2.380   2.114  29.458  0.00  0.00    +0.013 C 
ATOM     37  C   UNL     1       1.900   1.937  30.910  0.00  0.00    +0.012 C 
ATOM     38  C   UNL     1       3.538   3.130  29.410  0.00  0.00    +0.012 C 
ENDBRANCH  31  34
ENDBRANCH   8  27
ENDBRANCH   1  22
ENDBRANCH  17   1
ENDBRANCH  11  17
TORSDOF 9
ENDMDL
MODEL 2
REMARK VINA RESULT:      12.2      2.828      4.700
REMARK  Name = 44716364
REMARK  14 active torsions:
REMARK  status: ('A' for Active; 'I' for Inactive)
REMARK    1  A    between atoms: O_1  and  C_17
REMARK    2  A    between atoms: O_1  and  C_22
REMARK    3  A    between atoms: O_3  and  C_25
REMARK    4  A    between atoms: O_3  and  C_35
REMARK    5  A    between atoms: O_4  and  C_28
REMARK    6  A    between atoms: O_4  and  C_36
REMARK    7  A    between atoms: N_6  and  C_20
REMARK    8  A    between atoms: N_8  and  C_27
REMARK    9  A    between atoms: C_10  and  C_16
REMARK   10  A    between atoms: C_11  and  C_17
REMARK   11  A    between atoms: C_19  and  C_21
REMARK   12  A    between atoms: C_31  and  C_34
REMARK   13  A    between atoms: C_34  and  C_37
REMARK   14  A    between atoms: C_34  and  C_38
REMARK                            x       y       z     vdW  Elec       q    Type
REMARK                         _______ _______ _______ _____ _____    ______ ____
ROOT
ATOM      5  N   UNL     1      -4.870   5.152  25.084  0.00  0.00    -0.296 NA
ATOM      9  C   UNL     1      -3.095   3.892  26.513  0.00  0.00    +0.002 C 
ATOM     10  C   UNL     1      -2.508   4.266  25.124  0.00  0.00    +0.055 C 
ATOM     11  C   UNL     1      -5.459   3.906  25.643  0.00  0.00    +0.095 C 
ATOM     12  C   UNL     1      -4.370   3.044  26.318  0.00  0.00    +0.026 C 
ATOM     13  C   UNL     1      -3.527   5.213  27.184  0.00  0.00    +0.019 C 
ATOM     14  C   UNL     1      -3.676   4.827  24.264  0.00  0.00    +0.094 C 
ATOM     15  C   UNL     1      -4.434   5.998  26.220  0.00  0.00    +0.085 C 
ENDROOT
BRANCH  10  16
ATOM      6  N   UNL     1      -2.165   2.556  23.280  0.00  0.00    -0.270 N 
ATOM      7  N   UNL     1      -1.296   1.666  22.771  0.00  0.00    -0.171 NA
ATOM     16  C   UNL     1      -1.697   3.214  24.380  0.00  0.00    +0.044 A 
ATOM     18  C   UNL     1      -0.436   2.719  24.607  0.00  0.00    +0.053 A 
ATOM     19  C   UNL     1      -0.243   1.770  23.585  0.00  0.00    +0.093 A 
ATOM     20  C   UNL     1      -3.452   2.727  22.649  0.00  0.00    +0.172 C 
BRANCH  19  21
ATOM     21  C   UNL     1       0.929   0.959  23.373  0.00  0.00    +0.006 A 
ATOM     23  C   UNL     1       2.193   1.550  23.363  0.00  0.00    +0.059 A 
ATOM     24  C   UNL     1       0.799  -0.415  23.176  0.00  0.00    +0.014 A 
ATOM     25  C   UNL     1       3.327   0.765  23.158  0.00  0.00    +0.162 A 
ATOM     26  C   UNL     1       1.934  -1.200  22.970  0.00  0.00    +0.050 A 
ATOM     28  C   UNL     1       3.197  -0.610  22.962  0.00  0.00    +0.162 A 
BRANCH  25   3
ATOM      3  O   UNL     1       4.556   1.353  23.150  0.00  0.00    -0.491 OA
ATOM     35  C   UNL     1       5.563   0.761  23.967  0.00  0.00    +0.277 C 
ENDBRANCH  25   3
BRANCH  28   4
ATOM      4  O   UNL     1       4.298  -1.388  22.759  0.00  0.00    -0.491 OA
ATOM     36  C   UNL     1       4.775  -2.138  23.874  0.00  0.00    +0.277 C 
ENDBRANCH  28   4
ENDBRANCH  19  21
ENDBRANCH  10  16
BRANCH  11  17
ATOM     17  C   UNL     1      -6.246   3.114  24.598  0.00  0.00    +0.252 C 
BRANCH  17   1
ATOM      1  O   UNL     1      -6.872   2.023  25.243  0.00  0.00    -0.449 OA
BRANCH   1  22
ATOM      2  O   UNL     1      -6.131   0.532  26.812  0.00  0.00    -0.226 OA
ATOM      8  N   UNL     1      -5.170   0.660  24.680  0.00  0.00    -0.251 N 
ATOM     22  C   UNL     1      -6.050   1.011  25.687  0.00  0.00    +0.405 C 
ATOM     39  H   UNL     1      -5.258   1.175  23.808  0.00  0.00    +0.158 HD
BRANCH   8  27
ATOM     27  C   UNL     1      -4.161  -0.329  24.713  0.00  0.00    +0.036 A 
ATOM     29  C   UNL     1      -4.365  -1.553  24.076  0.00  0.00    +0.024 A 
ATOM     30  C   UNL     1      -2.963  -0.082  25.381  0.00  0.00    +0.024 A 
ATOM     31  C   UNL     1      -2.170  -2.282  24.776  0.00  0.00    -0.045 A 
ATOM     32  C   UNL     1      -3.369  -2.530  24.107  0.00  0.00    +0.006 A 
ATOM     33  C   UNL     1      -1.967  -1.058  25.412  0.00  0.00    +0.006 A 
BRANCH  31  34
ATOM     34  C   UNL     1      -1.105  -3.325  24.808  0.00  0.00    +0.013 C 
ATOM     37  C   UNL     1       0.172  -2.842  25.522  0.00  0.00    +0.012 C 
ATOM     38  C   UNL     1      -0.752  -3.850  23.404  0.00  0.00    +0.012 C 
ENDBRANCH  31  34
ENDBRANCH   8  27
ENDBRANCH   1  22
ENDBRANCH  17   1
ENDBRANCH  11  17
TORSDOF 9
ENDMDL
