MODEL 1
REMARK VINA RESULT:      -5.1      0.000      0.000
REMARK  Name = 51137242
REMARK  4 active torsions:
REMARK  status: ('A' for Active; 'I' for Inactive)
REMARK    1  A    between atoms: N_3  and  C_11
REMARK    2  A    between atoms: C_7  and  C_12
REMARK    3  A    between atoms: C_11  and  C_13
REMARK    4  A    between atoms: C_17  and  C_21
REMARK                            x       y       z     vdW  Elec       q    Type
REMARK                         _______ _______ _______ _____ _____    ______ ____
ROOT
ATOM      3  N   UNL     1      -9.934  -9.745  15.271  0.00  0.00    -0.297 NA
ATOM      7  C   UNL     1      -8.422  -9.152  13.579  0.00  0.00    +0.092 C 
ATOM      8  C   UNL     1      -8.555 -10.002  14.851  0.00  0.00    +0.097 C 
ATOM      9  C   UNL     1      -9.863  -9.004  13.058  0.00  0.00    +0.029 C 
ATOM     10  C   UNL     1     -10.719  -9.795  14.038  0.00  0.00    +0.085 C 
ENDROOT
BRANCH   7  12
ATOM      2  O   UNL     1      -6.149  -9.318  12.685  0.00  0.00    -0.420 OA
ATOM      4  N   UNL     1      -7.647 -10.587  11.612  0.00  0.00    -0.112 NA
ATOM      6  N   UNL     1      -6.417 -10.776  11.009  0.00  0.00    -0.107 NA
ATOM     12  C   UNL     1      -7.443  -9.730  12.584  0.00  0.00    +0.222 A 
ATOM     17  C   UNL     1      -5.573 -10.016  11.667  0.00  0.00    +0.248 A 
BRANCH  17  21
ATOM      1 CL   UNL     1       0.260  -9.167  10.906  0.00  0.00    -0.084 Cl
ATOM     21  C   UNL     1      -4.167  -9.812  11.483  0.00  0.00    +0.039 A 
ATOM     23  C   UNL     1      -3.256 -10.389  12.368  0.00  0.00    +0.014 A 
ATOM     24  C   UNL     1      -3.708  -9.035  10.419  0.00  0.00    +0.014 A 
ATOM     25  C   UNL     1      -1.887 -10.189  12.190  0.00  0.00    +0.021 A 
ATOM     26  C   UNL     1      -2.339  -8.835  10.241  0.00  0.00    +0.021 A 
ATOM     27  C   UNL     1      -1.428  -9.413  11.125  0.00  0.00    +0.041 A 
ENDBRANCH  17  21
ENDBRANCH   7  12
BRANCH   3  11
ATOM     11  C   UNL     1     -10.398 -10.703  16.263  0.00  0.00    +0.121 C 
BRANCH  11  13
ATOM      5  N   UNL     1      -9.032 -10.518  19.674  0.00  0.00    -0.360 N 
ATOM     13  C   UNL     1      -9.585 -10.639  17.528  0.00  0.00    -0.008 A 
ATOM     14  C   UNL     1      -8.165 -10.654  17.624  0.00  0.00    +0.004 A 
ATOM     15  C   UNL     1     -10.089 -10.554  18.805  0.00  0.00    +0.088 A 
ATOM     16  C   UNL     1      -7.844 -10.576  18.981  0.00  0.00    +0.047 A 
ATOM     18  C   UNL     1      -7.118 -10.726  16.683  0.00  0.00    +0.010 A 
ATOM     19  C   UNL     1      -6.524 -10.567  19.446  0.00  0.00    +0.026 A 
ATOM     20  C   UNL     1      -5.794 -10.717  17.134  0.00  0.00    +0.001 A 
ATOM     22  C   UNL     1      -5.503 -10.640  18.495  0.00  0.00    +0.002 A 
ATOM     28  H   UNL     1      -9.111 -10.456  20.681  0.00  0.00    +0.165 HD
ENDBRANCH  11  13
ENDBRANCH   3  11
TORSDOF 4
ENDMDL
MODEL 2
REMARK VINA RESULT:      -4.2      2.267      4.200
REMARK  Name = 51137242
REMARK  4 active torsions:
REMARK  status: ('A' for Active; 'I' for Inactive)
REMARK    1  A    between atoms: N_3  and  C_11
REMARK    2  A    between atoms: C_7  and  C_12
REMARK    3  A    between atoms: C_11  and  C_13
REMARK    4  A    between atoms: C_17  and  C_21
REMARK                            x       y       z     vdW  Elec       q    Type
REMARK                         _______ _______ _______ _____ _____    ______ ____
ROOT
ATOM      3  N   UNL     1      -7.625  -9.570  11.366  0.00  0.00    -0.297 NA
ATOM      7  C   UNL     1      -5.375  -9.007  11.021  0.00  0.00    +0.092 C 
ATOM      8  C   UNL     1      -6.338  -9.589  12.064  0.00  0.00    +0.097 C 
ATOM      9  C   UNL     1      -6.047  -9.296   9.667  0.00  0.00    +0.029 C 
ATOM     10  C   UNL     1      -7.328 -10.043  10.014  0.00  0.00    +0.085 C 
ENDROOT
BRANCH   7  12
ATOM      2  O   UNL     1      -2.968  -8.620  11.257  0.00  0.00    -0.420 OA
ATOM      4  N   UNL     1      -3.542 -10.781  11.194  0.00  0.00    -0.112 NA
ATOM      6  N   UNL     1      -2.168 -10.708  11.328  0.00  0.00    -0.107 NA
ATOM     12  C   UNL     1      -3.966  -9.540  11.157  0.00  0.00    +0.222 A 
ATOM     17  C   UNL     1      -1.878  -9.429  11.361  0.00  0.00    +0.248 A 
BRANCH  17  21
ATOM      1 CL   UNL     1       3.364  -6.673  11.880  0.00  0.00    -0.084 Cl
ATOM     21  C   UNL     1      -0.614  -8.765  11.486  0.00  0.00    +0.039 A 
ATOM     23  C   UNL     1      -0.423  -7.812  12.486  0.00  0.00    +0.014 A 
ATOM     24  C   UNL     1       0.426  -9.071  10.607  0.00  0.00    +0.014 A 
ATOM     25  C   UNL     1       0.808  -7.164  12.608  0.00  0.00    +0.021 A 
ATOM     26  C   UNL     1       1.655  -8.424  10.729  0.00  0.00    +0.021 A 
ATOM     27  C   UNL     1       1.847  -7.472  11.729  0.00  0.00    +0.041 A 
ENDBRANCH  17  21
ENDBRANCH   7  12
BRANCH   3  11
ATOM     11  C   UNL     1      -8.629 -10.386  12.031  0.00  0.00    +0.121 C 
BRANCH  11  13
ATOM      5  N   UNL     1     -10.718  -8.411  14.328  0.00  0.00    -0.360 N 
ATOM     13  C   UNL     1      -9.288  -9.650  13.167  0.00  0.00    -0.008 A 
ATOM     14  C   UNL     1      -8.823  -9.575  14.510  0.00  0.00    +0.004 A 
ATOM     15  C   UNL     1     -10.453  -8.923  13.087  0.00  0.00    +0.088 A 
ATOM     16  C   UNL     1      -9.738  -8.792  15.218  0.00  0.00    +0.047 A 
ATOM     18  C   UNL     1      -7.709 -10.100  15.194  0.00  0.00    +0.010 A 
ATOM     19  C   UNL     1      -9.594  -8.507  16.580  0.00  0.00    +0.026 A 
ATOM     20  C   UNL     1      -7.552  -9.823  16.557  0.00  0.00    +0.001 A 
ATOM     22  C   UNL     1      -8.481  -9.039  17.238  0.00  0.00    +0.002 A 
ATOM     28  H   UNL     1     -11.515  -7.835  14.560  0.00  0.00    +0.165 HD
ENDBRANCH  11  13
ENDBRANCH   3  11
TORSDOF 4
ENDMDL
MODEL 3
REMARK VINA RESULT:      -2.6     14.312     16.061
REMARK  Name = 51137242
REMARK  4 active torsions:
REMARK  status: ('A' for Active; 'I' for Inactive)
REMARK    1  A    between atoms: N_3  and  C_11
REMARK    2  A    between atoms: C_7  and  C_12
REMARK    3  A    between atoms: C_11  and  C_13
REMARK    4  A    between atoms: C_17  and  C_21
REMARK                            x       y       z     vdW  Elec       q    Type
REMARK                         _______ _______ _______ _____ _____    ______ ____
ROOT
ATOM      3  N   UNL     1      -4.179  -1.010  24.490  0.00  0.00    -0.297 NA
ATOM      7  C   UNL     1      -1.858  -0.990  24.155  0.00  0.00    +0.092 C 
ATOM      8  C   UNL     1      -3.174  -0.430  23.596  0.00  0.00    +0.097 C 
ATOM      9  C   UNL     1      -2.163  -1.301  25.630  0.00  0.00    +0.029 C 
ATOM     10  C   UNL     1      -3.612  -0.879  25.832  0.00  0.00    +0.085 C 
ENDROOT
BRANCH   7  12
ATOM      2  O   UNL     1       0.539  -0.648  23.793  0.00  0.00    -0.420 OA
ATOM      4  N   UNL     1      -0.653   1.243  23.844  0.00  0.00    -0.112 NA
ATOM      6  N   UNL     1       0.671   1.579  23.636  0.00  0.00    -0.107 NA
ATOM     12  C   UNL     1      -0.683  -0.066  23.930  0.00  0.00    +0.222 A 
ATOM     17  C   UNL     1       1.331   0.445  23.613  0.00  0.00    +0.248 A 
BRANCH  17  21
ATOM      1 CL   UNL     1       7.128  -0.634  22.862  0.00  0.00    -0.084 Cl
ATOM     21  C   UNL     1       2.728   0.185  23.431  0.00  0.00    +0.039 A 
ATOM     23  C   UNL     1       3.265  -1.044  23.815  0.00  0.00    +0.014 A 
ATOM     24  C   UNL     1       3.553   1.161  22.871  0.00  0.00    +0.014 A 
ATOM     25  C   UNL     1       4.626  -1.297  23.639  0.00  0.00    +0.021 A 
ATOM     26  C   UNL     1       4.913   0.908  22.695  0.00  0.00    +0.021 A 
ATOM     27  C   UNL     1       5.450  -0.321  23.078  0.00  0.00    +0.041 A 
ENDBRANCH  17  21
ENDBRANCH   7  12
BRANCH   3  11
ATOM     11  C   UNL     1      -5.473  -0.356  24.368  0.00  0.00    +0.121 C 
BRANCH  11  13
ATOM      5  N   UNL     1      -6.000   2.589  26.510  0.00  0.00    -0.360 N 
ATOM     13  C   UNL     1      -5.497   0.975  25.072  0.00  0.00    -0.008 A 
ATOM     14  C   UNL     1      -4.744   2.131  24.724  0.00  0.00    +0.004 A 
ATOM     15  C   UNL     1      -6.260   1.289  26.173  0.00  0.00    +0.088 A 
ATOM     16  C   UNL     1      -5.078   3.130  25.642  0.00  0.00    +0.047 A 
ATOM     18  C   UNL     1      -3.807   2.425  23.714  0.00  0.00    +0.010 A 
ATOM     19  C   UNL     1      -4.520   4.412  25.599  0.00  0.00    +0.026 A 
ATOM     20  C   UNL     1      -3.240   3.703  23.659  0.00  0.00    +0.001 A 
ATOM     22  C   UNL     1      -3.592   4.680  24.589  0.00  0.00    +0.002 A 
ATOM     28  H   UNL     1      -6.424   3.084  27.283  0.00  0.00    +0.165 HD
ENDBRANCH  11  13
ENDBRANCH   3  11
TORSDOF 4
ENDMDL
MODEL 4
REMARK VINA RESULT:      -1.7     14.656     16.346
REMARK  Name = 51137242
REMARK  4 active torsions:
REMARK  status: ('A' for Active; 'I' for Inactive)
REMARK    1  A    between atoms: N_3  and  C_11
REMARK    2  A    between atoms: C_7  and  C_12
REMARK    3  A    between atoms: C_11  and  C_13
REMARK    4  A    between atoms: C_17  and  C_21
REMARK                            x       y       z     vdW  Elec       q    Type
REMARK                         _______ _______ _______ _____ _____    ______ ____
ROOT
ATOM      3  N   UNL     1      -3.367  -0.675  25.409  0.00  0.00    -0.297 NA
ATOM      7  C   UNL     1      -1.527  -1.326  24.108  0.00  0.00    +0.092 C 
ATOM      8  C   UNL     1      -2.752  -0.400  24.108  0.00  0.00    +0.097 C 
ATOM      9  C   UNL     1      -1.213  -1.555  25.597  0.00  0.00    +0.029 C 
ATOM     10  C   UNL     1      -2.249  -0.732  26.350  0.00  0.00    +0.085 C 
ENDROOT
BRANCH   7  12
ATOM      2  O   UNL     1       0.867  -0.892  23.834  0.00  0.00    -0.420 OA
ATOM      4  N   UNL     1      -0.387  -0.201  22.116  0.00  0.00    -0.112 NA
ATOM      6  N   UNL     1       0.931   0.104  21.831  0.00  0.00    -0.107 NA
ATOM     12  C   UNL     1      -0.377  -0.781  23.293  0.00  0.00    +0.222 A 
ATOM     17  C   UNL     1       1.627  -0.318  22.861  0.00  0.00    +0.248 A 
BRANCH  17  21
ATOM      1 CL   UNL     1       7.474  -0.107  23.909  0.00  0.00    -0.084 Cl
ATOM     21  C   UNL     1       3.037  -0.267  23.114  0.00  0.00    +0.039 A 
ATOM     23  C   UNL     1       3.761   0.882  22.798  0.00  0.00    +0.014 A 
ATOM     24  C   UNL     1       3.685  -1.367  23.676  0.00  0.00    +0.014 A 
ATOM     25  C   UNL     1       5.134   0.932  23.043  0.00  0.00    +0.021 A 
ATOM     26  C   UNL     1       5.057  -1.318  23.922  0.00  0.00    +0.021 A 
ATOM     27  C   UNL     1       5.782  -0.168  23.607  0.00  0.00    +0.041 A 
ENDBRANCH  17  21
ENDBRANCH   7  12
BRANCH   3  11
ATOM     11  C   UNL     1      -4.353   0.329  25.779  0.00  0.00    +0.121 C 
BRANCH  11  13
ATOM      5  N   UNL     1      -4.274   3.548  23.998  0.00  0.00    -0.360 N 
ATOM     13  C   UNL     1      -4.054   1.666  25.154  0.00  0.00    -0.008 A 
ATOM     14  C   UNL     1      -2.838   2.398  25.260  0.00  0.00    +0.004 A 
ATOM     15  C   UNL     1      -4.916   2.399  24.371  0.00  0.00    +0.088 A 
ATOM     16  C   UNL     1      -3.002   3.575  24.526  0.00  0.00    +0.047 A 
ATOM     18  C   UNL     1      -1.610   2.172  25.913  0.00  0.00    +0.010 A 
ATOM     19  C   UNL     1      -1.996   4.540  24.412  0.00  0.00    +0.026 A 
ATOM     20  C   UNL     1      -0.595   3.129  25.808  0.00  0.00    +0.001 A 
ATOM     22  C   UNL     1      -0.787   4.295  25.069  0.00  0.00    +0.002 A 
ATOM     28  H   UNL     1      -4.673   4.273  23.418  0.00  0.00    +0.165 HD
ENDBRANCH  11  13
ENDBRANCH   3  11
TORSDOF 4
ENDMDL
MODEL 5
REMARK VINA RESULT:      -1.5     14.512     16.263
REMARK  Name = 51137242
REMARK  4 active torsions:
REMARK  status: ('A' for Active; 'I' for Inactive)
REMARK    1  A    between atoms: N_3  and  C_11
REMARK    2  A    between atoms: C_7  and  C_12
REMARK    3  A    between atoms: C_11  and  C_13
REMARK    4  A    between atoms: C_17  and  C_21
REMARK                            x       y       z     vdW  Elec       q    Type
REMARK                         _______ _______ _______ _____ _____    ______ ____
ROOT
ATOM      3  N   UNL     1      -2.752   3.498  25.661  0.00  0.00    -0.297 NA
ATOM      7  C   UNL     1      -0.677   2.877  24.764  0.00  0.00    +0.092 C 
ATOM      8  C   UNL     1      -1.803   2.383  25.682  0.00  0.00    +0.097 C 
ATOM      9  C   UNL     1      -1.352   3.904  23.838  0.00  0.00    +0.029 C 
ATOM     10  C   UNL     1      -2.815   3.914  24.260  0.00  0.00    +0.085 C 
ENDROOT
BRANCH   7  12
ATOM      2  O   UNL     1       1.394   1.716  24.164  0.00  0.00    -0.420 OA
ATOM      4  N   UNL     1      -0.454   0.780  23.319  0.00  0.00    -0.112 NA
ATOM      6  N   UNL     1       0.632   0.030  22.906  0.00  0.00    -0.107 NA
ATOM     12  C   UNL     1       0.038   1.752  24.050  0.00  0.00    +0.222 A 
ATOM     17  C   UNL     1       1.689   0.613  23.422  0.00  0.00    +0.248 A 
BRANCH  17  21
ATOM      1 CL   UNL     1       7.450  -0.794  23.027  0.00  0.00    -0.084 Cl
ATOM     21  C   UNL     1       3.078   0.273  23.326  0.00  0.00    +0.039 A 
ATOM     23  C   UNL     1       3.518  -0.986  23.734  0.00  0.00    +0.014 A 
ATOM     24  C   UNL     1       3.990   1.203  22.826  0.00  0.00    +0.014 A 
ATOM     25  C   UNL     1       4.870  -1.316  23.642  0.00  0.00    +0.021 A 
ATOM     26  C   UNL     1       5.342   0.873  22.734  0.00  0.00    +0.021 A 
ATOM     27  C   UNL     1       5.782  -0.387  23.141  0.00  0.00    +0.041 A 
ENDBRANCH  17  21
ENDBRANCH   7  12
BRANCH   3  11
ATOM     11  C   UNL     1      -4.057   3.125  26.187  0.00  0.00    +0.121 C 
BRANCH  11  13
ATOM      5  N   UNL     1      -6.046   0.713  24.247  0.00  0.00    -0.360 N 
ATOM     13  C   UNL     1      -4.651   1.961  25.441  0.00  0.00    -0.008 A 
ATOM     14  C   UNL     1      -4.063   0.676  25.268  0.00  0.00    +0.004 A 
ATOM     15  C   UNL     1      -5.870   1.951  24.802  0.00  0.00    +0.088 A 
ATOM     16  C   UNL     1      -4.959  -0.088  24.516  0.00  0.00    +0.047 A 
ATOM     18  C   UNL     1      -2.851   0.088  25.681  0.00  0.00    +0.010 A 
ATOM     19  C   UNL     1      -4.701  -1.415  24.155  0.00  0.00    +0.026 A 
ATOM     20  C   UNL     1      -2.581  -1.239  25.327  0.00  0.00    +0.001 A 
ATOM     22  C   UNL     1      -3.493  -1.977  24.575  0.00  0.00    +0.002 A 
ATOM     28  H   UNL     1      -6.857   0.426  23.717  0.00  0.00    +0.165 HD
ENDBRANCH  11  13
ENDBRANCH   3  11
TORSDOF 4
ENDMDL
MODEL 6
REMARK VINA RESULT:      -1.4     14.186     16.092
REMARK  Name = 51137242
REMARK  4 active torsions:
REMARK  status: ('A' for Active; 'I' for Inactive)
REMARK    1  A    between atoms: N_3  and  C_11
REMARK    2  A    between atoms: C_7  and  C_12
REMARK    3  A    between atoms: C_11  and  C_13
REMARK    4  A    between atoms: C_17  and  C_21
REMARK                            x       y       z     vdW  Elec       q    Type
REMARK                         _______ _______ _______ _____ _____    ______ ____
ROOT
ATOM      3  N   UNL     1      -5.403   0.915  24.893  0.00  0.00    -0.297 NA
ATOM      7  C   UNL     1      -4.077  -1.003  24.642  0.00  0.00    +0.092 C 
ATOM      8  C   UNL     1      -4.452   0.317  23.954  0.00  0.00    +0.097 C 
ATOM      9  C   UNL     1      -4.340  -0.750  26.137  0.00  0.00    +0.029 C 
ATOM     10  C   UNL     1      -4.817   0.694  26.215  0.00  0.00    +0.085 C 
ENDROOT
BRANCH   7  12
ATOM      2  O   UNL     1      -1.764  -0.493  24.021  0.00  0.00    -0.420 OA
ATOM      4  N   UNL     1      -2.184  -2.677  24.260  0.00  0.00    -0.112 NA
ATOM      6  N   UNL     1      -0.854  -2.534  23.911  0.00  0.00    -0.107 NA
ATOM     12  C   UNL     1      -2.675  -1.461  24.312  0.00  0.00    +0.222 A 
ATOM     17  C   UNL     1      -0.653  -1.243  23.782  0.00  0.00    +0.248 A 
BRANCH  17  21
ATOM      1 CL   UNL     1       4.262   1.774  22.342  0.00  0.00    -0.084 Cl
ATOM     21  C   UNL     1       0.532  -0.516  23.435  0.00  0.00    +0.039 A 
ATOM     23  C   UNL     1       0.893   0.618  24.162  0.00  0.00    +0.014 A 
ATOM     24  C   UNL     1       1.325  -0.942  22.369  0.00  0.00    +0.014 A 
ATOM     25  C   UNL     1       2.047   1.327  23.824  0.00  0.00    +0.021 A 
ATOM     26  C   UNL     1       2.478  -0.234  22.031  0.00  0.00    +0.021 A 
ATOM     27  C   UNL     1       2.840   0.899  22.759  0.00  0.00    +0.041 A 
ENDBRANCH  17  21
ENDBRANCH   7  12
BRANCH   3  11
ATOM     11  C   UNL     1      -5.640   2.324  24.621  0.00  0.00    +0.121 C 
BRANCH  11  13
ATOM      5  N   UNL     1      -3.442   4.657  26.427  0.00  0.00    -0.360 N 
ATOM     13  C   UNL     1      -4.542   3.195  25.171  0.00  0.00    -0.008 A 
ATOM     14  C   UNL     1      -3.208   3.285  24.684  0.00  0.00    +0.004 A 
ATOM     15  C   UNL     1      -4.654   4.051  26.243  0.00  0.00    +0.088 A 
ATOM     16  C   UNL     1      -2.539   4.210  25.489  0.00  0.00    +0.047 A 
ATOM     18  C   UNL     1      -2.503   2.667  23.632  0.00  0.00    +0.010 A 
ATOM     19  C   UNL     1      -1.195   4.549  25.293  0.00  0.00    +0.026 A 
ATOM     20  C   UNL     1      -1.159   2.997  23.424  0.00  0.00    +0.001 A 
ATOM     22  C   UNL     1      -0.516   3.923  24.244  0.00  0.00    +0.002 A 
ATOM     28  H   UNL     1      -3.237   5.337  27.147  0.00  0.00    +0.165 HD
ENDBRANCH  11  13
ENDBRANCH   3  11
TORSDOF 4
ENDMDL
