MODEL 1
REMARK VINA RESULT:       0.3      0.000      0.000
REMARK  Name = 75366945
REMARK  7 active torsions:
REMARK  status: ('A' for Active; 'I' for Inactive)
REMARK    1  A    between atoms: O_3  and  C_10
REMARK    2  A    between atoms: N_6  and  C_12
REMARK    3  A    between atoms: N_7  and  C_20
REMARK    4  A    between atoms: C_9  and  C_20
REMARK    5  A    between atoms: C_11  and  C_21
REMARK    6  A    between atoms: C_21  and  C_23
REMARK    7  A    between atoms: C_25  and  C_26
REMARK                            x       y       z     vdW  Elec       q    Type
REMARK                         _______ _______ _______ _____ _____    ______ ____
ROOT
ATOM      2  O   UNL     1      -3.581  -0.767  23.114  0.00  0.00    -0.369 OA
ATOM      9  C   UNL     1      -4.406  -1.637  23.901  0.00  0.00    +0.164 C 
ATOM     10  C   UNL     1      -3.558  -2.583  24.761  0.00  0.00    +0.145 C 
ATOM     11  C   UNL     1      -2.632   0.006  23.854  0.00  0.00    +0.125 C 
ATOM     13  C   UNL     1      -2.477  -1.845  25.545  0.00  0.00    +0.036 C 
ATOM     14  C   UNL     1      -1.689  -0.906  24.637  0.00  0.00    +0.034 C 
ENDROOT
BRANCH  10   3
ATOM      3  O   UNL     1      -2.908  -3.526  23.903  0.00  0.00    -0.389 OA
ATOM     34  H   UNL     1      -3.098  -3.267  22.985  0.00  0.00    +0.210 HD
ENDBRANCH  10   3
BRANCH   9  20
ATOM     20  C   UNL     1      -5.424  -0.842  24.717  0.00  0.00    +0.140 C 
BRANCH  20   7
ATOM      4  O   UNL     1      -5.765   1.974  24.245  0.00  0.00    -0.253 OA
ATOM      6  N   UNL     1      -4.272   2.413  25.968  0.00  0.00    -0.297 N 
ATOM      7  N   UNL     1      -4.789   0.228  25.425  0.00  0.00    -0.297 N 
ATOM     22  C   UNL     1      -5.010   1.579  25.132  0.00  0.00    +0.300 C 
ATOM     32  H   UNL     1      -3.622   1.980  26.616  0.00  0.00    +0.151 HD
ATOM     33  H   UNL     1      -4.136  -0.005  26.166  0.00  0.00    +0.150 HD
BRANCH   6  12
ATOM     12  C   UNL     1      -4.313   3.857  25.882  0.00  0.00    +0.074 C 
ATOM     15  C   UNL     1      -4.242   4.324  24.424  0.00  0.00    +0.022 C 
ATOM     16  C   UNL     1      -3.200   4.490  26.724  0.00  0.00    +0.022 C 
ATOM     17  C   UNL     1      -2.854   4.122  23.813  0.00  0.00    +0.002 C 
ATOM     18  C   UNL     1      -1.816   4.289  26.109  0.00  0.00    +0.002 C 
ATOM     19  C   UNL     1      -1.766   4.772  24.662  0.00  0.00    +0.000 C 
ENDBRANCH   6  12
ENDBRANCH  20   7
ENDBRANCH   9  20
BRANCH  11  21
ATOM     21  C   UNL     1      -1.860   0.860  22.857  0.00  0.00    +0.090 C 
BRANCH  21  23
ATOM      5  O   UNL     1       1.418   1.651  24.131  0.00  0.00    -0.354 OA
ATOM      8  N   UNL     1       0.049   1.869  24.039  0.00  0.00    -0.083 NA
ATOM     23  C   UNL     1      -0.395   0.930  23.199  0.00  0.00    +0.087 A 
ATOM     24  C   UNL     1       0.638   0.101  22.732  0.00  0.00    +0.076 A 
ATOM     25  C   UNL     1       1.757   0.595  23.347  0.00  0.00    +0.167 A 
BRANCH  25  26
ATOM      1  F   UNL     1       7.154  -0.754  23.323  0.00  0.00    -0.205 F 
ATOM     26  C   UNL     1       3.148   0.247  23.340  0.00  0.00    +0.020 A 
ATOM     27  C   UNL     1       3.549  -1.031  23.729  0.00  0.00    +0.014 A 
ATOM     28  C   UNL     1       4.100   1.187  22.945  0.00  0.00    +0.014 A 
ATOM     29  C   UNL     1       4.902  -1.369  23.723  0.00  0.00    +0.039 A 
ATOM     30  C   UNL     1       5.454   0.849  22.939  0.00  0.00    +0.039 A 
ATOM     31  C   UNL     1       5.855  -0.429  23.328  0.00  0.00    +0.123 A 
ENDBRANCH  25  26
ENDBRANCH  21  23
ENDBRANCH  11  21
TORSDOF 7
ENDMDL
MODEL 2
REMARK VINA RESULT:       1.6      1.905      4.618
REMARK  Name = 75366945
REMARK  7 active torsions:
REMARK  status: ('A' for Active; 'I' for Inactive)
REMARK    1  A    between atoms: O_3  and  C_10
REMARK    2  A    between atoms: N_6  and  C_12
REMARK    3  A    between atoms: N_7  and  C_20
REMARK    4  A    between atoms: C_9  and  C_20
REMARK    5  A    between atoms: C_11  and  C_21
REMARK    6  A    between atoms: C_21  and  C_23
REMARK    7  A    between atoms: C_25  and  C_26
REMARK                            x       y       z     vdW  Elec       q    Type
REMARK                         _______ _______ _______ _____ _____    ______ ____
ROOT
ATOM      2  O   UNL     1      -4.371   3.017  26.095  0.00  0.00    -0.369 OA
ATOM      9  C   UNL     1      -5.695   3.238  25.592  0.00  0.00    +0.164 C 
ATOM     10  C   UNL     1      -5.888   4.694  25.148  0.00  0.00    +0.145 C 
ATOM     11  C   UNL     1      -3.313   3.371  25.200  0.00  0.00    +0.125 C 
ATOM     13  C   UNL     1      -4.767   5.175  24.231  0.00  0.00    +0.036 C 
ATOM     14  C   UNL     1      -3.399   4.849  24.823  0.00  0.00    +0.034 C 
ENDROOT
BRANCH  10   3
ATOM      3  O   UNL     1      -5.893   5.531  26.308  0.00  0.00    -0.389 OA
ATOM     34  H   UNL     1      -5.126   6.127  26.244  0.00  0.00    +0.210 HD
ENDBRANCH  10   3
BRANCH   9  20
ATOM     20  C   UNL     1      -6.045   2.230  24.498  0.00  0.00    +0.140 C 
BRANCH  20   7
ATOM      4  O   UNL     1      -5.484  -0.095  26.093  0.00  0.00    -0.253 OA
ATOM      6  N   UNL     1      -3.670  -0.563  24.721  0.00  0.00    -0.297 N 
ATOM      7  N   UNL     1      -4.979   1.295  24.303  0.00  0.00    -0.297 N 
ATOM     22  C   UNL     1      -4.773   0.183  25.128  0.00  0.00    +0.300 C 
ATOM     32  H   UNL     1      -3.109  -0.200  23.957  0.00  0.00    +0.151 HD
ATOM     33  H   UNL     1      -4.331   1.455  23.537  0.00  0.00    +0.150 HD
BRANCH   6  12
ATOM     12  C   UNL     1      -3.233  -1.764  25.398  0.00  0.00    +0.074 C 
ATOM     15  C   UNL     1      -2.407  -1.425  26.643  0.00  0.00    +0.022 C 
ATOM     16  C   UNL     1      -2.456  -2.679  24.446  0.00  0.00    +0.022 C 
ATOM     17  C   UNL     1      -1.024  -0.873  26.294  0.00  0.00    +0.002 C 
ATOM     18  C   UNL     1      -1.073  -2.126  24.102  0.00  0.00    +0.002 C 
ATOM     19  C   UNL     1      -0.265  -1.807  25.357  0.00  0.00    +0.000 C 
ENDBRANCH   6  12
ENDBRANCH  20   7
ENDBRANCH   9  20
BRANCH  11  21
ATOM     21  C   UNL     1      -1.997   3.065  25.903  0.00  0.00    +0.090 C 
BRANCH  21  23
ATOM      5  O   UNL     1      -0.369   1.120  23.342  0.00  0.00    -0.354 OA
ATOM      8  N   UNL     1      -1.499   1.659  23.945  0.00  0.00    -0.083 NA
ATOM     23  C   UNL     1      -1.037   2.338  24.999  0.00  0.00    +0.087 A 
ATOM     24  C   UNL     1       0.361   2.262  25.111  0.00  0.00    +0.076 A 
ATOM     25  C   UNL     1       0.733   1.486  24.045  0.00  0.00    +0.167 A 
BRANCH  25  26
ATOM      1  F   UNL     1       5.589  -0.388  22.085  0.00  0.00    -0.205 F 
ATOM     26  C   UNL     1       1.984   1.003  23.539  0.00  0.00    +0.020 A 
ATOM     27  C   UNL     1       2.231  -0.369  23.483  0.00  0.00    +0.014 A 
ATOM     28  C   UNL     1       2.955   1.905  23.104  0.00  0.00    +0.014 A 
ATOM     29  C   UNL     1       3.449  -0.839  22.992  0.00  0.00    +0.039 A 
ATOM     30  C   UNL     1       4.173   1.435  22.612  0.00  0.00    +0.039 A 
ATOM     31  C   UNL     1       4.421   0.064  22.556  0.00  0.00    +0.123 A 
ENDBRANCH  25  26
ENDBRANCH  21  23
ENDBRANCH  11  21
TORSDOF 7
ENDMDL
MODEL 3
REMARK VINA RESULT:       1.7      2.030      4.951
REMARK  Name = 75366945
REMARK  7 active torsions:
REMARK  status: ('A' for Active; 'I' for Inactive)
REMARK    1  A    between atoms: O_3  and  C_10
REMARK    2  A    between atoms: N_6  and  C_12
REMARK    3  A    between atoms: N_7  and  C_20
REMARK    4  A    between atoms: C_9  and  C_20
REMARK    5  A    between atoms: C_11  and  C_21
REMARK    6  A    between atoms: C_21  and  C_23
REMARK    7  A    between atoms: C_25  and  C_26
REMARK                            x       y       z     vdW  Elec       q    Type
REMARK                         _______ _______ _______ _____ _____    ______ ____
ROOT
ATOM      2  O   UNL     1      -3.792   2.727  25.710  0.00  0.00    -0.369 OA
ATOM      9  C   UNL     1      -5.023   2.144  25.265  0.00  0.00    +0.164 C 
ATOM     10  C   UNL     1      -6.232   2.954  25.752  0.00  0.00    +0.145 C 
ATOM     11  C   UNL     1      -3.603   4.099  25.352  0.00  0.00    +0.125 C 
ATOM     13  C   UNL     1      -6.088   4.446  25.461  0.00  0.00    +0.036 C 
ATOM     14  C   UNL     1      -4.728   4.963  25.919  0.00  0.00    +0.034 C 
ENDROOT
BRANCH  10   3
ATOM      3  O   UNL     1      -6.351   2.796  27.169  0.00  0.00    -0.389 OA
ATOM     34  H   UNL     1      -7.293   2.656  27.371  0.00  0.00    +0.210 HD
ENDBRANCH  10   3
BRANCH   9  20
ATOM     20  C   UNL     1      -5.018   1.933  23.752  0.00  0.00    +0.140 C 
BRANCH  20   7
ATOM      4  O   UNL     1      -4.358  -0.185  25.582  0.00  0.00    -0.253 OA
ATOM      6  N   UNL     1      -3.702  -1.496  23.780  0.00  0.00    -0.297 N 
ATOM      7  N   UNL     1      -4.494   0.644  23.417  0.00  0.00    -0.297 N 
ATOM     22  C   UNL     1      -4.198  -0.336  24.371  0.00  0.00    +0.300 C 
ATOM     32  H   UNL     1      -3.539  -1.485  22.779  0.00  0.00    +0.151 HD
ATOM     33  H   UNL     1      -4.315   0.436  22.439  0.00  0.00    +0.150 HD
BRANCH   6  12
ATOM     12  C   UNL     1      -3.316  -2.666  24.537  0.00  0.00    +0.074 C 
ATOM     15  C   UNL     1      -2.969  -2.297  25.984  0.00  0.00    +0.022 C 
ATOM     16  C   UNL     1      -2.157  -3.403  23.858  0.00  0.00    +0.022 C 
ATOM     17  C   UNL     1      -1.645  -1.538  26.091  0.00  0.00    +0.002 C 
ATOM     18  C   UNL     1      -0.836  -2.643  23.969  0.00  0.00    +0.002 C 
ATOM     19  C   UNL     1      -0.505  -2.297  25.419  0.00  0.00    +0.000 C 
ENDBRANCH   6  12
ENDBRANCH  20   7
ENDBRANCH   9  20
BRANCH  11  21
ATOM     21  C   UNL     1      -2.252   4.535  25.904  0.00  0.00    +0.090 C 
BRANCH  21  23
ATOM      5  O   UNL     1       0.423   2.119  25.870  0.00  0.00    -0.354 OA
ATOM      8  N   UNL     1      -0.487   2.937  26.529  0.00  0.00    -0.083 NA
ATOM     23  C   UNL     1      -1.164   3.554  25.557  0.00  0.00    +0.087 A 
ATOM     24  C   UNL     1      -0.728   3.170  24.277  0.00  0.00    +0.076 A 
ATOM     25  C   UNL     1       0.270   2.267  24.530  0.00  0.00    +0.167 A 
BRANCH  25  26
ATOM      1  F   UNL     1       3.665  -0.790  21.356  0.00  0.00    -0.205 F 
ATOM     26  C   UNL     1       1.145   1.479  23.713  0.00  0.00    +0.020 A 
ATOM     27  C   UNL     1       2.488   1.833  23.585  0.00  0.00    +0.014 A 
ATOM     28  C   UNL     1       0.653   0.357  23.043  0.00  0.00    +0.014 A 
ATOM     29  C   UNL     1       3.340   1.067  22.790  0.00  0.00    +0.039 A 
ATOM     30  C   UNL     1       1.505  -0.409  22.247  0.00  0.00    +0.039 A 
ATOM     31  C   UNL     1       2.848  -0.055  22.120  0.00  0.00    +0.123 A 
ENDBRANCH  25  26
ENDBRANCH  21  23
ENDBRANCH  11  21
TORSDOF 7
ENDMDL
MODEL 4
REMARK VINA RESULT:       2.2      2.572      7.560
REMARK  Name = 75366945
REMARK  7 active torsions:
REMARK  status: ('A' for Active; 'I' for Inactive)
REMARK    1  A    between atoms: O_3  and  C_10
REMARK    2  A    between atoms: N_6  and  C_12
REMARK    3  A    between atoms: N_7  and  C_20
REMARK    4  A    between atoms: C_9  and  C_20
REMARK    5  A    between atoms: C_11  and  C_21
REMARK    6  A    between atoms: C_21  and  C_23
REMARK    7  A    between atoms: C_25  and  C_26
REMARK                            x       y       z     vdW  Elec       q    Type
REMARK                         _______ _______ _______ _____ _____    ______ ____
ROOT
ATOM      2  O   UNL     1      -2.534   3.349  24.691  0.00  0.00    -0.369 OA
ATOM      9  C   UNL     1      -1.137   3.667  24.667  0.00  0.00    +0.164 C 
ATOM     10  C   UNL     1      -0.910   5.185  24.694  0.00  0.00    +0.145 C 
ATOM     11  C   UNL     1      -3.268   3.907  25.784  0.00  0.00    +0.125 C 
ATOM     13  C   UNL     1      -1.704   5.872  25.800  0.00  0.00    +0.036 C 
ATOM     14  C   UNL     1      -3.165   5.431  25.779  0.00  0.00    +0.034 C 
ENDROOT
BRANCH  10   3
ATOM      3  O   UNL     1      -1.336   5.735  23.444  0.00  0.00    -0.389 OA
ATOM     34  H   UNL     1      -1.248   5.038  22.771  0.00  0.00    +0.210 HD
ENDBRANCH  10   3
BRANCH   9  20
ATOM     20  C   UNL     1      -0.386   2.933  25.777  0.00  0.00    +0.140 C 
BRANCH  20   7
ATOM      4  O   UNL     1       0.029   1.359  23.407  0.00  0.00    -0.253 OA
ATOM      6  N   UNL     1       2.299   1.283  23.891  0.00  0.00    -0.297 N 
ATOM      7  N   UNL     1       0.861   2.419  25.298  0.00  0.00    -0.297 N 
ATOM     22  C   UNL     1       0.979   1.657  24.130  0.00  0.00    +0.300 C 
ATOM     32  H   UNL     1       2.993   1.519  24.593  0.00  0.00    +0.151 HD
ATOM     33  H   UNL     1       1.699   2.604  25.841  0.00  0.00    +0.150 HD
BRANCH   6  12
ATOM     12  C   UNL     1       2.702   0.491  22.750  0.00  0.00    +0.074 C 
ATOM     15  C   UNL     1       2.647  -1.007  23.071  0.00  0.00    +0.022 C 
ATOM     16  C   UNL     1       4.094   0.903  22.259  0.00  0.00    +0.022 C 
ATOM     17  C   UNL     1       3.760  -1.441  24.026  0.00  0.00    +0.002 C 
ATOM     18  C   UNL     1       5.204   0.465  23.213  0.00  0.00    +0.002 C 
ATOM     19  C   UNL     1       5.135  -1.031  23.509  0.00  0.00    +0.000 C 
ENDBRANCH   6  12
ENDBRANCH  20   7
ENDBRANCH   9  20
BRANCH  11  21
ATOM     21  C   UNL     1      -4.717   3.460  25.640  0.00  0.00    +0.090 C 
BRANCH  21  23
ATOM      5  O   UNL     1      -5.746   0.170  24.586  0.00  0.00    -0.354 OA
ATOM      8  N   UNL     1      -6.014   1.481  24.961  0.00  0.00    -0.083 NA
ATOM     23  C   UNL     1      -4.817   2.023  25.202  0.00  0.00    +0.087 A 
ATOM     24  C   UNL     1      -3.768   1.110  24.999  0.00  0.00    +0.076 A 
ATOM     25  C   UNL     1      -4.405  -0.039  24.613  0.00  0.00    +0.167 A 
BRANCH  25  26
ATOM      1  F   UNL     1      -2.726  -5.146  23.183  0.00  0.00    -0.205 F 
ATOM     26  C   UNL     1      -3.972  -1.355  24.245  0.00  0.00    +0.020 A 
ATOM     27  C   UNL     1      -2.688  -1.786  24.577  0.00  0.00    +0.014 A 
ATOM     28  C   UNL     1      -4.837  -2.206  23.555  0.00  0.00    +0.014 A 
ATOM     29  C   UNL     1      -2.267  -3.066  24.218  0.00  0.00    +0.039 A 
ATOM     30  C   UNL     1      -4.415  -3.486  23.196  0.00  0.00    +0.039 A 
ATOM     31  C   UNL     1      -3.131  -3.917  23.527  0.00  0.00    +0.123 A 
ENDBRANCH  25  26
ENDBRANCH  21  23
ENDBRANCH  11  21
TORSDOF 7
ENDMDL
MODEL 5
REMARK VINA RESULT:       2.4      2.036      4.527
REMARK  Name = 75366945
REMARK  7 active torsions:
REMARK  status: ('A' for Active; 'I' for Inactive)
REMARK    1  A    between atoms: O_3  and  C_10
REMARK    2  A    between atoms: N_6  and  C_12
REMARK    3  A    between atoms: N_7  and  C_20
REMARK    4  A    between atoms: C_9  and  C_20
REMARK    5  A    between atoms: C_11  and  C_21
REMARK    6  A    between atoms: C_21  and  C_23
REMARK    7  A    between atoms: C_25  and  C_26
REMARK                            x       y       z     vdW  Elec       q    Type
REMARK                         _______ _______ _______ _____ _____    ______ ____
ROOT
ATOM      2  O   UNL     1      -0.726   2.851  24.141  0.00  0.00    -0.369 OA
ATOM      9  C   UNL     1      -0.791   3.566  25.381  0.00  0.00    +0.164 C 
ATOM     10  C   UNL     1      -2.068   4.412  25.471  0.00  0.00    +0.145 C 
ATOM     11  C   UNL     1      -1.853   2.017  23.858  0.00  0.00    +0.125 C 
ATOM     13  C   UNL     1      -3.321   3.611  25.128  0.00  0.00    +0.036 C 
ATOM     14  C   UNL     1      -3.137   2.843  23.822  0.00  0.00    +0.034 C 
ENDROOT
BRANCH  10   3
ATOM      3  O   UNL     1      -1.971   5.492  24.538  0.00  0.00    -0.389 OA
ATOM     34  H   UNL     1      -2.358   6.279  24.959  0.00  0.00    +0.210 HD
ENDBRANCH  10   3
BRANCH   9  20
ATOM     20  C   UNL     1      -0.615   2.624  26.570  0.00  0.00    +0.140 C 
BRANCH  20   7
ATOM      4  O   UNL     1      -2.533   0.485  26.462  0.00  0.00    -0.253 OA
ATOM      6  N   UNL     1      -0.877  -0.919  25.638  0.00  0.00    -0.297 N 
ATOM      7  N   UNL     1      -0.378   1.283  26.131  0.00  0.00    -0.297 N 
ATOM     22  C   UNL     1      -1.371   0.296  26.108  0.00  0.00    +0.300 C 
ATOM     32  H   UNL     1       0.117  -0.984  25.445  0.00  0.00    +0.151 HD
ATOM     33  H   UNL     1       0.560   1.031  25.834  0.00  0.00    +0.150 HD
BRANCH   6  12
ATOM     12  C   UNL     1      -1.691  -2.108  25.512  0.00  0.00    +0.074 C 
ATOM     15  C   UNL     1      -1.947  -2.448  24.040  0.00  0.00    +0.022 C 
ATOM     16  C   UNL     1      -3.006  -1.958  26.285  0.00  0.00    +0.022 C 
ATOM     17  C   UNL     1      -2.913  -1.467  23.374  0.00  0.00    +0.002 C 
ATOM     18  C   UNL     1      -3.970  -0.980  25.615  0.00  0.00    +0.002 C 
ATOM     19  C   UNL     1      -4.218  -1.345  24.154  0.00  0.00    +0.000 C 
ENDBRANCH   6  12
ENDBRANCH  20   7
ENDBRANCH   9  20
BRANCH  11  21
ATOM     21  C   UNL     1      -1.601   1.345  22.515  0.00  0.00    +0.090 C 
BRANCH  21  23
ATOM      5  O   UNL     1       1.373  -0.539  21.741  0.00  0.00    -0.354 OA
ATOM      8  N   UNL     1       0.043  -0.199  21.528  0.00  0.00    -0.083 NA
ATOM     23  C   UNL     1      -0.226   0.734  22.445  0.00  0.00    +0.087 A 
ATOM     24  C   UNL     1       0.884   1.019  23.257  0.00  0.00    +0.076 A 
ATOM     25  C   UNL     1       1.863   0.193  22.773  0.00  0.00    +0.167 A 
BRANCH  25  26
ATOM      1  F   UNL     1       7.187  -0.741  24.089  0.00  0.00    -0.205 F 
ATOM     26  C   UNL     1       3.235  -0.048  23.111  0.00  0.00    +0.020 A 
ATOM     27  C   UNL     1       3.621  -1.289  23.619  0.00  0.00    +0.014 A 
ATOM     28  C   UNL     1       4.185   0.959  22.934  0.00  0.00    +0.014 A 
ATOM     29  C   UNL     1       4.956  -1.523  23.949  0.00  0.00    +0.039 A 
ATOM     30  C   UNL     1       5.520   0.724  23.265  0.00  0.00    +0.039 A 
ATOM     31  C   UNL     1       5.906  -0.516  23.772  0.00  0.00    +0.123 A 
ENDBRANCH  25  26
ENDBRANCH  21  23
ENDBRANCH  11  21
TORSDOF 7
ENDMDL
MODEL 6
REMARK VINA RESULT:       2.9      3.422      7.284
REMARK  Name = 75366945
REMARK  7 active torsions:
REMARK  status: ('A' for Active; 'I' for Inactive)
REMARK    1  A    between atoms: O_3  and  C_10
REMARK    2  A    between atoms: N_6  and  C_12
REMARK    3  A    between atoms: N_7  and  C_20
REMARK    4  A    between atoms: C_9  and  C_20
REMARK    5  A    between atoms: C_11  and  C_21
REMARK    6  A    between atoms: C_21  and  C_23
REMARK    7  A    between atoms: C_25  and  C_26
REMARK                            x       y       z     vdW  Elec       q    Type
REMARK                         _______ _______ _______ _____ _____    ______ ____
ROOT
ATOM      2  O   UNL     1       0.973   0.969  22.932  0.00  0.00    -0.369 OA
ATOM      9  C   UNL     1       1.381  -0.389  22.726  0.00  0.00    +0.164 C 
ATOM     10  C   UNL     1       2.775  -0.462  22.089  0.00  0.00    +0.145 C 
ATOM     11  C   UNL     1       1.876   1.766  23.703  0.00  0.00    +0.125 C 
ATOM     13  C   UNL     1       3.795   0.408  22.818  0.00  0.00    +0.036 C 
ATOM     14  C   UNL     1       3.251   1.817  23.039  0.00  0.00    +0.034 C 
ENDROOT
BRANCH  10   3
ATOM      3  O   UNL     1       2.689   0.004  20.740  0.00  0.00    -0.389 OA
ATOM     34  H   UNL     1       1.801  -0.218  20.408  0.00  0.00    +0.210 HD
ENDBRANCH  10   3
BRANCH   9  20
ATOM     20  C   UNL     1       1.274  -1.199  24.017  0.00  0.00    +0.140 C 
BRANCH  20   7
ATOM      4  O   UNL     1      -1.171  -2.631  24.507  0.00  0.00    -0.253 OA
ATOM      6  N   UNL     1      -1.914  -0.858  25.809  0.00  0.00    -0.297 N 
ATOM      7  N   UNL     1       0.166  -0.756  24.808  0.00  0.00    -0.297 N 
ATOM     22  C   UNL     1      -0.993  -1.518  24.998  0.00  0.00    +0.300 C 
ATOM     32  H   UNL     1      -1.697   0.090  26.098  0.00  0.00    +0.151 HD
ATOM     33  H   UNL     1       0.218   0.161  25.241  0.00  0.00    +0.150 HD
BRANCH   6  12
ATOM     12  C   UNL     1      -3.199  -1.420  26.166  0.00  0.00    +0.074 C 
ATOM     15  C   UNL     1      -3.251  -2.919  25.852  0.00  0.00    +0.022 C 
ATOM     16  C   UNL     1      -4.340  -0.666  25.474  0.00  0.00    +0.022 C 
ATOM     17  C   UNL     1      -3.316  -3.199  24.349  0.00  0.00    +0.002 C 
ATOM     18  C   UNL     1      -4.404  -0.950  23.974  0.00  0.00    +0.002 C 
ATOM     19  C   UNL     1      -4.467  -2.448  23.686  0.00  0.00    +0.000 C 
ENDBRANCH   6  12
ENDBRANCH  20   7
ENDBRANCH   9  20
BRANCH  11  21
ATOM     21  C   UNL     1       1.275   3.162  23.814  0.00  0.00    +0.090 C 
BRANCH  21  23
ATOM      5  O   UNL     1      -1.634   3.360  25.933  0.00  0.00    -0.354 OA
ATOM      8  N   UNL     1      -0.273   3.511  25.696  0.00  0.00    -0.083 NA
ATOM     23  C   UNL     1      -0.100   3.130  24.427  0.00  0.00    +0.087 A 
ATOM     24  C   UNL     1      -1.303   2.730  23.821  0.00  0.00    +0.076 A 
ATOM     25  C   UNL     1      -2.237   2.894  24.810  0.00  0.00    +0.167 A 
BRANCH  25  26
ATOM      1  F   UNL     1      -7.729   2.091  25.167  0.00  0.00    -0.205 F 
ATOM     26  C   UNL     1      -3.652   2.688  24.902  0.00  0.00    +0.020 A 
ATOM     27  C   UNL     1      -4.311   2.897  26.114  0.00  0.00    +0.014 A 
ATOM     28  C   UNL     1      -4.371   2.277  23.779  0.00  0.00    +0.014 A 
ATOM     29  C   UNL     1      -5.687   2.696  26.203  0.00  0.00    +0.039 A 
ATOM     30  C   UNL     1      -5.749   2.075  23.869  0.00  0.00    +0.039 A 
ATOM     31  C   UNL     1      -6.407   2.284  25.081  0.00  0.00    +0.123 A 
ENDBRANCH  25  26
ENDBRANCH  21  23
ENDBRANCH  11  21
TORSDOF 7
ENDMDL
MODEL 7
REMARK VINA RESULT:       4.2      3.388      7.435
REMARK  Name = 75366945
REMARK  7 active torsions:
REMARK  status: ('A' for Active; 'I' for Inactive)
REMARK    1  A    between atoms: O_3  and  C_10
REMARK    2  A    between atoms: N_6  and  C_12
REMARK    3  A    between atoms: N_7  and  C_20
REMARK    4  A    between atoms: C_9  and  C_20
REMARK    5  A    between atoms: C_11  and  C_21
REMARK    6  A    between atoms: C_21  and  C_23
REMARK    7  A    between atoms: C_25  and  C_26
REMARK                            x       y       z     vdW  Elec       q    Type
REMARK                         _______ _______ _______ _____ _____    ______ ____
ROOT
ATOM      2  O   UNL     1       2.923  -0.027  22.689  0.00  0.00    -0.369 OA
ATOM      9  C   UNL     1       3.552  -1.259  23.064  0.00  0.00    +0.164 C 
ATOM     10  C   UNL     1       5.011  -1.035  23.485  0.00  0.00    +0.145 C 
ATOM     11  C   UNL     1       2.965   1.005  23.678  0.00  0.00    +0.125 C 
ATOM     13  C   UNL     1       5.155   0.093  24.502  0.00  0.00    +0.036 C 
ATOM     14  C   UNL     1       4.410   1.342  24.042  0.00  0.00    +0.034 C 
ENDROOT
BRANCH  10   3
ATOM      3  O   UNL     1       5.773  -0.680  22.329  0.00  0.00    -0.389 OA
ATOM     34  H   UNL     1       6.382   0.035  22.585  0.00  0.00    +0.210 HD
ENDBRANCH  10   3
BRANCH   9  20
ATOM     20  C   UNL     1       2.733  -1.996  24.122  0.00  0.00    +0.140 C 
BRANCH  20   7
ATOM      4  O   UNL     1       0.658  -2.804  25.941  0.00  0.00    -0.253 OA
ATOM      6  N   UNL     1      -0.808  -1.362  24.863  0.00  0.00    -0.297 N 
ATOM      7  N   UNL     1       1.380  -1.528  24.140  0.00  0.00    -0.297 N 
ATOM     22  C   UNL     1       0.427  -1.974  25.063  0.00  0.00    +0.300 C 
ATOM     32  H   UNL     1      -0.908  -0.749  24.061  0.00  0.00    +0.151 HD
ATOM     33  H   UNL     1       1.094  -0.851  23.440  0.00  0.00    +0.150 HD
BRANCH   6  12
ATOM     12  C   UNL     1      -1.970  -1.641  25.678  0.00  0.00    +0.074 C 
ATOM     15  C   UNL     1      -2.619  -2.970  25.276  0.00  0.00    +0.022 C 
ATOM     16  C   UNL     1      -2.978  -0.488  25.611  0.00  0.00    +0.022 C 
ATOM     17  C   UNL     1      -3.331  -2.888  23.926  0.00  0.00    +0.002 C 
ATOM     18  C   UNL     1      -3.689  -0.411  24.261  0.00  0.00    +0.002 C 
ATOM     19  C   UNL     1      -4.337  -1.742  23.888  0.00  0.00    +0.000 C 
ENDBRANCH   6  12
ENDBRANCH  20   7
ENDBRANCH   9  20
BRANCH  11  21
ATOM     21  C   UNL     1       2.252   2.221  23.103  0.00  0.00    +0.090 C 
BRANCH  21  23
ATOM      5  O   UNL     1      -1.247   1.432  23.462  0.00  0.00    -0.354 OA
ATOM      8  N   UNL     1       0.046   1.130  23.051  0.00  0.00    -0.083 NA
ATOM     23  C   UNL     1       0.775   2.194  23.398  0.00  0.00    +0.087 A 
ATOM     24  C   UNL     1       0.004   3.188  24.023  0.00  0.00    +0.076 A 
ATOM     25  C   UNL     1      -1.259   2.660  24.039  0.00  0.00    +0.167 A 
BRANCH  25  26
ATOM      1  F   UNL     1      -6.204   4.405  25.897  0.00  0.00    -0.205 F 
ATOM     26  C   UNL     1      -2.533   3.111  24.518  0.00  0.00    +0.020 A 
ATOM     27  C   UNL     1      -2.626   3.768  25.745  0.00  0.00    +0.014 A 
ATOM     28  C   UNL     1      -3.681   2.891  23.756  0.00  0.00    +0.014 A 
ATOM     29  C   UNL     1      -3.865   4.205  26.210  0.00  0.00    +0.039 A 
ATOM     30  C   UNL     1      -4.922   3.328  24.222  0.00  0.00    +0.039 A 
ATOM     31  C   UNL     1      -5.014   3.985  25.449  0.00  0.00    +0.123 A 
ENDBRANCH  25  26
ENDBRANCH  21  23
ENDBRANCH  11  21
TORSDOF 7
ENDMDL
