MODEL 1
REMARK VINA RESULT:       2.2      0.000      0.000
REMARK  Name = 26742362
REMARK  10 active torsions:
REMARK  status: ('A' for Active; 'I' for Inactive)
REMARK    1  A    between atoms: O_2  and  C_25
REMARK    2  A    between atoms: O_2  and  C_36
REMARK    3  A    between atoms: O_3  and  C_34
REMARK    4  A    between atoms: N_6  and  C_16
REMARK    5  A    between atoms: C_10  and  C_17
REMARK    6  A    between atoms: C_11  and  C_16
REMARK    7  A    between atoms: C_19  and  C_22
REMARK    8  A    between atoms: C_20  and  C_24
REMARK    9  A    between atoms: C_21  and  C_23
REMARK   10  A    between atoms: C_27  and  C_34
REMARK                            x       y       z     vdW  Elec       q    Type
REMARK                         _______ _______ _______ _____ _____    ______ ____
ROOT
ATOM      5  N   UNL     1      -2.681  -2.241  23.685  0.00  0.00    -0.297 NA
ATOM      9  C   UNL     1      -2.962  -1.351  26.116  0.00  0.00    +0.002 C 
ATOM     10  C   UNL     1      -4.002  -0.690  25.171  0.00  0.00    +0.055 C 
ATOM     11  C   UNL     1      -1.365  -1.803  24.221  0.00  0.00    +0.074 C 
ATOM     12  C   UNL     1      -1.541  -1.084  25.575  0.00  0.00    +0.024 C 
ATOM     13  C   UNL     1      -3.197  -2.875  26.041  0.00  0.00    +0.019 C 
ATOM     14  C   UNL     1      -3.644  -1.113  23.717  0.00  0.00    +0.094 C 
ATOM     15  C   UNL     1      -3.196  -3.316  24.567  0.00  0.00    +0.085 C 
ENDROOT
BRANCH  10  17
ATOM      7  N   UNL     1      -5.489   1.205  25.600  0.00  0.00    -0.237 NA
ATOM      8  N   UNL     1      -4.717   3.486  25.529  0.00  0.00    -0.232 NA
ATOM     17  C   UNL     1      -4.236   0.809  25.295  0.00  0.00    +0.050 A 
ATOM     18  C   UNL     1      -3.184   1.681  25.095  0.00  0.00    +0.052 A 
ATOM     19  C   UNL     1      -3.486   3.021  25.227  0.00  0.00    +0.078 A 
ATOM     20  C   UNL     1      -5.657   2.537  25.700  0.00  0.00    +0.127 A 
ATOM     24  C   UNL     1      -7.029   3.013  26.034  0.00  0.00    +0.088 C 
BRANCH  19  22
ATOM     22  C   UNL     1      -2.476   4.035  25.041  0.00  0.00    +0.042 A 
ATOM     25  C   UNL     1      -1.132   3.688  24.901  0.00  0.00    +0.129 A 
ATOM     26  C   UNL     1      -2.858   5.375  25.004  0.00  0.00    +0.013 A 
ATOM     29  C   UNL     1      -0.170   4.682  24.723  0.00  0.00    +0.046 A 
ATOM     30  C   UNL     1      -1.897   6.370  24.825  0.00  0.00    +0.001 A 
ATOM     33  C   UNL     1      -0.552   6.024  24.686  0.00  0.00    +0.004 A 
BRANCH  25   2
ATOM      2  O   UNL     1      -0.729   2.385  24.934  0.00  0.00    -0.494 OA
ATOM     36  C   UNL     1       0.095   1.990  26.027  0.00  0.00    +0.277 C 
ENDBRANCH  25   2
ENDBRANCH  19  22
ENDBRANCH  10  17
BRANCH  11  16
ATOM     16  C   UNL     1      -0.582  -0.950  23.221  0.00  0.00    +0.123 C 
BRANCH  16   6
ATOM      1  O   UNL     1       1.624  -0.434  21.456  0.00  0.00    -0.270 OA
ATOM      6  N   UNL     1       0.801  -0.885  23.578  0.00  0.00    -0.310 N 
ATOM     21  C   UNL     1       1.812  -0.628  22.654  0.00  0.00    +0.245 C 
ATOM     37  H   UNL     1       1.048  -1.028  24.554  0.00  0.00    +0.149 HD
BRANCH  21  23
ATOM     23  C   UNL     1       3.201  -0.619  23.180  0.00  0.00    +0.051 A 
ATOM     27  C   UNL     1       3.934   0.565  23.272  0.00  0.00    +0.071 A 
ATOM     28  C   UNL     1       3.772  -1.825  23.585  0.00  0.00    +0.014 A 
ATOM     31  C   UNL     1       5.237   0.542  23.769  0.00  0.00    +0.016 A 
ATOM     32  C   UNL     1       5.075  -1.848  24.082  0.00  0.00    +0.001 A 
ATOM     35  C   UNL     1       5.808  -0.665  24.175  0.00  0.00    +0.001 A 
BRANCH  27  34
ATOM      4  O   UNL     1       3.925   2.667  22.131  0.00  0.00    -0.245 OA
ATOM     34  C   UNL     1       3.366   1.840  22.857  0.00  0.00    +0.338 C 
BRANCH  34   3
ATOM      3  O   UNL     1       2.119   2.042  23.362  0.00  0.00    -0.477 OA
ATOM     38  H   UNL     1       2.105   2.769  24.020  0.00  0.00    +0.295 HD
ENDBRANCH  34   3
ENDBRANCH  27  34
ENDBRANCH  21  23
ENDBRANCH  16   6
ENDBRANCH  11  16
TORSDOF 8
ENDMDL
MODEL 2
REMARK VINA RESULT:       4.5      2.331      6.387
REMARK  Name = 26742362
REMARK  10 active torsions:
REMARK  status: ('A' for Active; 'I' for Inactive)
REMARK    1  A    between atoms: O_2  and  C_25
REMARK    2  A    between atoms: O_2  and  C_36
REMARK    3  A    between atoms: O_3  and  C_34
REMARK    4  A    between atoms: N_6  and  C_16
REMARK    5  A    between atoms: C_10  and  C_17
REMARK    6  A    between atoms: C_11  and  C_16
REMARK    7  A    between atoms: C_19  and  C_22
REMARK    8  A    between atoms: C_20  and  C_24
REMARK    9  A    between atoms: C_21  and  C_23
REMARK   10  A    between atoms: C_27  and  C_34
REMARK                            x       y       z     vdW  Elec       q    Type
REMARK                         _______ _______ _______ _____ _____    ______ ____
ROOT
ATOM      5  N   UNL     1      -2.528  -2.696  25.844  0.00  0.00    -0.297 NA
ATOM      9  C   UNL     1      -2.048  -2.140  23.346  0.00  0.00    +0.002 C 
ATOM     10  C   UNL     1      -0.795  -1.851  24.217  0.00  0.00    +0.055 C 
ATOM     11  C   UNL     1      -3.611  -1.838  25.297  0.00  0.00    +0.074 C 
ATOM     12  C   UNL     1      -3.244  -1.328  23.887  0.00  0.00    +0.024 C 
ATOM     13  C   UNL     1      -2.389  -3.633  23.537  0.00  0.00    +0.019 C 
ATOM     14  C   UNL     1      -1.218  -2.011  25.706  0.00  0.00    +0.094 C 
ATOM     15  C   UNL     1      -2.486  -3.942  25.041  0.00  0.00    +0.085 C 
ENDROOT
BRANCH  10  17
ATOM      7  N   UNL     1       1.189  -0.673  23.405  0.00  0.00    -0.237 NA
ATOM      8  N   UNL     1       1.390   1.726  23.505  0.00  0.00    -0.232 NA
ATOM     17  C   UNL     1      -0.031  -0.558  23.970  0.00  0.00    +0.050 A 
ATOM     18  C   UNL     1      -0.600   0.648  24.327  0.00  0.00    +0.052 A 
ATOM     19  C   UNL     1       0.164   1.768  24.068  0.00  0.00    +0.078 A 
ATOM     20  C   UNL     1       1.834   0.491  23.203  0.00  0.00    +0.127 A 
ATOM     24  C   UNL     1       3.186   0.404  22.581  0.00  0.00    +0.088 C 
BRANCH  19  22
ATOM     22  C   UNL     1      -0.316   3.089  24.395  0.00  0.00    +0.042 A 
ATOM     25  C   UNL     1      -0.975   3.333  25.599  0.00  0.00    +0.129 A 
ATOM     26  C   UNL     1      -0.115   4.129  23.487  0.00  0.00    +0.013 A 
ATOM     29  C   UNL     1      -1.432   4.617  25.897  0.00  0.00    +0.046 A 
ATOM     30  C   UNL     1      -0.570   5.413  23.784  0.00  0.00    +0.001 A 
ATOM     33  C   UNL     1      -1.230   5.657  24.989  0.00  0.00    +0.004 A 
BRANCH  25   2
ATOM      2  O   UNL     1      -1.187   2.336  26.506  0.00  0.00    -0.494 OA
ATOM     36  C   UNL     1      -0.136   2.069  27.430  0.00  0.00    +0.277 C 
ENDBRANCH  25   2
ENDBRANCH  19  22
ENDBRANCH  10  17
BRANCH  11  16
ATOM     16  C   UNL     1      -3.978  -0.690  26.240  0.00  0.00    +0.123 C 
BRANCH  16   6
ATOM      1  O   UNL     1      -5.906   0.633  24.572  0.00  0.00    -0.270 OA
ATOM      6  N   UNL     1      -3.821   0.574  25.591  0.00  0.00    -0.310 N 
ATOM     21  C   UNL     1      -4.812   1.147  24.795  0.00  0.00    +0.245 C 
ATOM     37  H   UNL     1      -2.946   1.074  25.725  0.00  0.00    +0.149 HD
BRANCH  21  23
ATOM     23  C   UNL     1      -4.484   2.453  24.169  0.00  0.00    +0.051 A 
ATOM     27  C   UNL     1      -4.927   3.654  24.723  0.00  0.00    +0.071 A 
ATOM     28  C   UNL     1      -3.719   2.463  23.003  0.00  0.00    +0.014 A 
ATOM     31  C   UNL     1      -4.604   4.865  24.112  0.00  0.00    +0.016 A 
ATOM     32  C   UNL     1      -3.396   3.675  22.391  0.00  0.00    +0.001 A 
ATOM     35  C   UNL     1      -3.838   4.876  22.946  0.00  0.00    +0.001 A 
BRANCH  27  34
ATOM      4  O   UNL     1      -5.737   2.795  26.804  0.00  0.00    -0.245 OA
ATOM     34  C   UNL     1      -5.728   3.676  25.940  0.00  0.00    +0.338 C 
BRANCH  34   3
ATOM      3  O   UNL     1      -6.491   4.797  26.038  0.00  0.00    -0.477 OA
ATOM     38  H   UNL     1      -6.054   5.574  25.630  0.00  0.00    +0.295 HD
ENDBRANCH  34   3
ENDBRANCH  27  34
ENDBRANCH  21  23
ENDBRANCH  16   6
ENDBRANCH  11  16
TORSDOF 8
ENDMDL
MODEL 3
REMARK VINA RESULT:       4.8      1.780      6.204
REMARK  Name = 26742362
REMARK  10 active torsions:
REMARK  status: ('A' for Active; 'I' for Inactive)
REMARK    1  A    between atoms: O_2  and  C_25
REMARK    2  A    between atoms: O_2  and  C_36
REMARK    3  A    between atoms: O_3  and  C_34
REMARK    4  A    between atoms: N_6  and  C_16
REMARK    5  A    between atoms: C_10  and  C_17
REMARK    6  A    between atoms: C_11  and  C_16
REMARK    7  A    between atoms: C_19  and  C_22
REMARK    8  A    between atoms: C_20  and  C_24
REMARK    9  A    between atoms: C_21  and  C_23
REMARK   10  A    between atoms: C_27  and  C_34
REMARK                            x       y       z     vdW  Elec       q    Type
REMARK                         _______ _______ _______ _____ _____    ______ ____
ROOT
ATOM      5  N   UNL     1      -4.045  -1.829  25.686  0.00  0.00    -0.297 NA
ATOM      9  C   UNL     1      -2.392  -1.903  23.674  0.00  0.00    +0.002 C 
ATOM     10  C   UNL     1      -1.634  -1.574  24.990  0.00  0.00    +0.055 C 
ATOM     11  C   UNL     1      -4.564  -0.995  24.570  0.00  0.00    +0.074 C 
ATOM     12  C   UNL     1      -3.507  -0.858  23.454  0.00  0.00    +0.024 C 
ATOM     13  C   UNL     1      -3.084  -3.266  23.889  0.00  0.00    +0.019 C 
ATOM     14  C   UNL     1      -2.703  -1.349  26.098  0.00  0.00    +0.094 C 
ATOM     15  C   UNL     1      -3.907  -3.219  25.187  0.00  0.00    +0.085 C 
ENDROOT
BRANCH  10  17
ATOM      7  N   UNL     1      -0.841   0.623  25.716  0.00  0.00    -0.237 NA
ATOM      8  N   UNL     1       1.243   1.556  24.946  0.00  0.00    -0.232 NA
ATOM     17  C   UNL     1      -0.591  -0.466  24.960  0.00  0.00    +0.050 A 
ATOM     18  C   UNL     1       0.539  -0.616  24.181  0.00  0.00    +0.052 A 
ATOM     19  C   UNL     1       1.430   0.437  24.214  0.00  0.00    +0.078 A 
ATOM     20  C   UNL     1       0.104   1.581  25.663  0.00  0.00    +0.127 A 
ATOM     24  C   UNL     1      -0.139   2.802  26.484  0.00  0.00    +0.088 C 
BRANCH  19  22
ATOM     22  C   UNL     1       2.650   0.406  23.443  0.00  0.00    +0.042 A 
ATOM     25  C   UNL     1       2.616   0.254  22.057  0.00  0.00    +0.129 A 
ATOM     26  C   UNL     1       3.873   0.528  24.102  0.00  0.00    +0.013 A 
ATOM     29  C   UNL     1       3.806   0.226  21.329  0.00  0.00    +0.046 A 
ATOM     30  C   UNL     1       5.063   0.500  23.375  0.00  0.00    +0.001 A 
ATOM     33  C   UNL     1       5.030   0.348  21.988  0.00  0.00    +0.004 A 
BRANCH  25   2
ATOM      2  O   UNL     1       1.435   0.132  21.386  0.00  0.00    -0.494 OA
ATOM     36  C   UNL     1       0.964  -1.191  21.142  0.00  0.00    +0.277 C 
ENDBRANCH  25   2
ENDBRANCH  19  22
ENDBRANCH  10  17
BRANCH  11  16
ATOM     16  C   UNL     1      -5.068   0.369  25.048  0.00  0.00    +0.123 C 
BRANCH  16   6
ATOM      1  O   UNL     1      -5.428   3.213  24.889  0.00  0.00    -0.270 OA
ATOM      6  N   UNL     1      -4.038   1.356  24.952  0.00  0.00    -0.310 N 
ATOM     21  C   UNL     1      -4.302   2.723  24.878  0.00  0.00    +0.245 C 
ATOM     37  H   UNL     1      -3.073   1.038  24.942  0.00  0.00    +0.149 HD
BRANCH  21  23
ATOM     23  C   UNL     1      -3.122   3.617  24.755  0.00  0.00    +0.051 A 
ATOM     27  C   UNL     1      -2.185   3.445  23.737  0.00  0.00    +0.071 A 
ATOM     28  C   UNL     1      -2.962   4.645  25.684  0.00  0.00    +0.014 A 
ATOM     31  C   UNL     1      -1.086   4.300  23.648  0.00  0.00    +0.016 A 
ATOM     32  C   UNL     1      -1.863   5.501  25.595  0.00  0.00    +0.001 A 
ATOM     35  C   UNL     1      -0.926   5.329  24.576  0.00  0.00    +0.001 A 
BRANCH  27  34
ATOM      4  O   UNL     1      -3.331   2.168  22.070  0.00  0.00    -0.245 OA
ATOM     34  C   UNL     1      -2.325   2.380  22.752  0.00  0.00    +0.338 C 
BRANCH  34   3
ATOM      3  O   UNL     1      -1.204   1.616  22.652  0.00  0.00    -0.477 OA
ATOM     38  H   UNL     1      -1.183   1.107  21.814  0.00  0.00    +0.295 HD
ENDBRANCH  34   3
ENDBRANCH  27  34
ENDBRANCH  21  23
ENDBRANCH  16   6
ENDBRANCH  11  16
TORSDOF 8
ENDMDL
MODEL 4
REMARK VINA RESULT:       5.0      2.465      6.411
REMARK  Name = 26742362
REMARK  10 active torsions:
REMARK  status: ('A' for Active; 'I' for Inactive)
REMARK    1  A    between atoms: O_2  and  C_25
REMARK    2  A    between atoms: O_2  and  C_36
REMARK    3  A    between atoms: O_3  and  C_34
REMARK    4  A    between atoms: N_6  and  C_16
REMARK    5  A    between atoms: C_10  and  C_17
REMARK    6  A    between atoms: C_11  and  C_16
REMARK    7  A    between atoms: C_19  and  C_22
REMARK    8  A    between atoms: C_20  and  C_24
REMARK    9  A    between atoms: C_21  and  C_23
REMARK   10  A    between atoms: C_27  and  C_34
REMARK                            x       y       z     vdW  Elec       q    Type
REMARK                         _______ _______ _______ _____ _____    ______ ____
ROOT
ATOM      5  N   UNL     1      -4.896   4.045  24.246  0.00  0.00    -0.297 NA
ATOM      9  C   UNL     1      -3.719   4.076  26.569  0.00  0.00    +0.002 C 
ATOM     10  C   UNL     1      -2.672   4.186  25.427  0.00  0.00    +0.055 C 
ATOM     11  C   UNL     1      -5.384   2.914  25.079  0.00  0.00    +0.074 C 
ATOM     12  C   UNL     1      -4.554   2.793  26.374  0.00  0.00    +0.024 C 
ATOM     13  C   UNL     1      -4.682   5.273  26.406  0.00  0.00    +0.019 C 
ATOM     14  C   UNL     1      -3.423   3.957  24.084  0.00  0.00    +0.094 C 
ATOM     15  C   UNL     1      -5.210   5.305  24.961  0.00  0.00    +0.085 C 
ENDROOT
BRANCH  10  17
ATOM      7  N   UNL     1      -0.756   3.372  26.712  0.00  0.00    -0.237 NA
ATOM      8  N   UNL     1       0.873   1.863  25.775  0.00  0.00    -0.232 NA
ATOM     17  C   UNL     1      -1.406   3.347  25.530  0.00  0.00    +0.050 A 
ATOM     18  C   UNL     1      -0.984   2.614  24.439  0.00  0.00    +0.052 A 
ATOM     19  C   UNL     1       0.173   1.884  24.621  0.00  0.00    +0.078 A 
ATOM     20  C   UNL     1       0.359   2.618  26.765  0.00  0.00    +0.127 A 
ATOM     24  C   UNL     1       1.105   2.622  28.055  0.00  0.00    +0.088 C 
BRANCH  19  22
ATOM     22  C   UNL     1       0.720   1.077  23.557  0.00  0.00    +0.042 A 
ATOM     25  C   UNL     1      -0.115   0.377  22.688  0.00  0.00    +0.129 A 
ATOM     26  C   UNL     1       2.105   1.001  23.406  0.00  0.00    +0.013 A 
ATOM     29  C   UNL     1       0.433  -0.398  21.665  0.00  0.00    +0.046 A 
ATOM     30  C   UNL     1       2.654   0.227  22.384  0.00  0.00    +0.001 A 
ATOM     33  C   UNL     1       1.818  -0.473  21.514  0.00  0.00    +0.004 A 
BRANCH  25   2
ATOM      2  O   UNL     1      -1.473   0.432  22.812  0.00  0.00    -0.494 OA
ATOM     36  C   UNL     1      -2.172   1.277  21.901  0.00  0.00    +0.277 C 
ENDBRANCH  25   2
ENDBRANCH  19  22
ENDBRANCH  10  17
BRANCH  11  16
ATOM     16  C   UNL     1      -5.428   1.595  24.304  0.00  0.00    +0.123 C 
BRANCH  16   6
ATOM      1  O   UNL     1      -5.020  -0.606  26.102  0.00  0.00    -0.270 OA
ATOM      6  N   UNL     1      -4.219   0.855  24.487  0.00  0.00    -0.310 N 
ATOM     21  C   UNL     1      -4.107  -0.205  25.385  0.00  0.00    +0.245 C 
ATOM     37  H   UNL     1      -3.411   1.117  23.929  0.00  0.00    +0.149 HD
BRANCH  21  23
ATOM     23  C   UNL     1      -2.774  -0.855  25.477  0.00  0.00    +0.051 A 
ATOM     27  C   UNL     1      -2.503  -2.050  24.810  0.00  0.00    +0.071 A 
ATOM     28  C   UNL     1      -1.785  -0.247  26.250  0.00  0.00    +0.014 A 
ATOM     31  C   UNL     1      -1.243  -2.637  24.917  0.00  0.00    +0.016 A 
ATOM     32  C   UNL     1      -0.524  -0.835  26.356  0.00  0.00    +0.001 A 
ATOM     35  C   UNL     1      -0.252  -2.029  25.689  0.00  0.00    +0.001 A 
BRANCH  27  34
ATOM      4  O   UNL     1      -3.743  -3.921  23.984  0.00  0.00    -0.245 OA
ATOM     34  C   UNL     1      -3.516  -2.708  23.996  0.00  0.00    +0.338 C 
BRANCH  34   3
ATOM      3  O   UNL     1      -4.212  -1.831  23.224  0.00  0.00    -0.477 OA
ATOM     38  H   UNL     1      -5.135  -1.722  23.536  0.00  0.00    +0.295 HD
ENDBRANCH  34   3
ENDBRANCH  27  34
ENDBRANCH  21  23
ENDBRANCH  16   6
ENDBRANCH  11  16
TORSDOF 8
ENDMDL
