MODEL 1
REMARK VINA RESULT:       2.4      0.000      0.000
REMARK  Name = 45784004
REMARK  11 active torsions:
REMARK  status: ('A' for Active; 'I' for Inactive)
REMARK    1  A    between atoms: N_2  and  C_13
REMARK    2  A    between atoms: C_8  and  C_12
REMARK    3  A    between atoms: C_9  and  C_13
REMARK    4  A    between atoms: C_11  and  C_16
REMARK    5  A    between atoms: C_12  and  C_17
REMARK    6  A    between atoms: C_12  and  C_18
REMARK    7  A    between atoms: C_15  and  C_21
REMARK    8  A    between atoms: C_16  and  C_24
REMARK    9  A    between atoms: C_26  and  C_27
REMARK   10  A    between atoms: C_27  and  C_28
REMARK   11  A    between atoms: C_28  and  C_32
REMARK                            x       y       z     vdW  Elec       q    Type
REMARK                         _______ _______ _______ _____ _____    ______ ____
ROOT
ATOM      8  C   UNL     1      -3.061  -0.326  25.213  0.00  0.00    +0.000 C 
ATOM      9  C   UNL     1      -3.485  -0.210  23.730  0.00  0.00    +0.029 C 
ATOM     10  C   UNL     1      -3.449   0.944  25.984  0.00  0.00    +0.012 C 
ATOM     11  C   UNL     1      -4.956   1.271  25.904  0.00  0.00    +0.024 C 
ATOM     14  C   UNL     1      -4.872   0.357  23.566  0.00  0.00    -0.023 C 
ATOM     15  C   UNL     1      -5.550   1.011  24.527  0.00  0.00    -0.073 C 
ATOM     21  C   UNL     1      -6.965   1.461  24.284  0.00  0.00    +0.039 C 
ENDROOT
BRANCH   8  12
ATOM     12  C   UNL     1      -3.660  -1.578  25.868  0.00  0.00    -0.013 C 
ATOM     17  C   UNL     1      -3.497  -2.787  24.952  0.00  0.00    +0.007 C 
ATOM     18  C   UNL     1      -3.006  -1.834  27.223  0.00  0.00    +0.007 C 
ENDBRANCH   8  12
BRANCH   9  13
ATOM     13  C   UNL     1      -2.495   0.638  22.924  0.00  0.00    +0.092 C 
BRANCH  13   2
ATOM      2  N   UNL     1      -1.140   0.494  23.456  0.00  0.00    -0.299 NA
ATOM      3  N   UNL     1       1.693   0.153  23.317  0.00  0.00    -0.297 N 
ATOM      6  N   UNL     1       3.507  -1.254  23.745  0.00  0.00    -0.223 NA
ATOM      7  N   UNL     1       3.841   1.031  23.055  0.00  0.00    -0.223 NA
ATOM     19  C   UNL     1      -0.282   1.586  22.981  0.00  0.00    +0.103 C 
ATOM     20  C   UNL     1      -0.566  -0.799  23.061  0.00  0.00    +0.103 C 
ATOM     22  C   UNL     1       1.125   1.479  23.575  0.00  0.00    +0.123 C 
ATOM     23  C   UNL     1       0.831  -0.985  23.659  0.00  0.00    +0.123 C 
ATOM     25  C   UNL     1       3.078  -0.032  23.374  0.00  0.00    +0.218 A 
ATOM     29  C   UNL     1       4.848  -1.397  23.789  0.00  0.00    +0.116 A 
ATOM     30  C   UNL     1       5.172   0.818  23.121  0.00  0.00    +0.116 A 
ATOM     31  C   UNL     1       5.738  -0.387  23.486  0.00  0.00    +0.039 A 
ENDBRANCH  13   2
ENDBRANCH   9  13
BRANCH  11  16
ATOM     16  C   UNL     1      -5.170   2.712  26.382  0.00  0.00    +0.105 C 
BRANCH  16  24
ATOM      1  O   UNL     1      -3.094   3.932  25.987  0.00  0.00    -0.425 OA
ATOM      4  N   UNL     1      -4.702   4.353  24.489  0.00  0.00    -0.112 NA
ATOM      5  N   UNL     1      -3.592   5.102  24.147  0.00  0.00    -0.112 NA
ATOM     24  C   UNL     1      -4.366   3.685  25.568  0.00  0.00    +0.218 A 
ATOM     26  C   UNL     1      -2.679   4.826  25.048  0.00  0.00    +0.217 A 
BRANCH  26  27
ATOM     27  C   UNL     1      -1.307   5.333  25.175  0.00  0.00    +0.097 C 
BRANCH  27  28
ATOM     28  C   UNL     1      -0.240   4.221  25.071  0.00  0.00    +0.006 C 
ATOM     32  C   UNL     1      -0.421   3.132  26.117  0.00  0.00    +0.004 C 
ENDBRANCH  27  28
ENDBRANCH  26  27
ENDBRANCH  16  24
ENDBRANCH  11  16
TORSDOF 7
ENDMDL
MODEL 2
REMARK VINA RESULT:       3.0      1.840      3.272
REMARK  Name = 45784004
REMARK  11 active torsions:
REMARK  status: ('A' for Active; 'I' for Inactive)
REMARK    1  A    between atoms: N_2  and  C_13
REMARK    2  A    between atoms: C_8  and  C_12
REMARK    3  A    between atoms: C_9  and  C_13
REMARK    4  A    between atoms: C_11  and  C_16
REMARK    5  A    between atoms: C_12  and  C_17
REMARK    6  A    between atoms: C_12  and  C_18
REMARK    7  A    between atoms: C_15  and  C_21
REMARK    8  A    between atoms: C_16  and  C_24
REMARK    9  A    between atoms: C_26  and  C_27
REMARK   10  A    between atoms: C_27  and  C_28
REMARK   11  A    between atoms: C_28  and  C_32
REMARK                            x       y       z     vdW  Elec       q    Type
REMARK                         _______ _______ _______ _____ _____    ______ ____
ROOT
ATOM      8  C   UNL     1      -4.594   1.410  25.576  0.00  0.00    +0.000 C 
ATOM      9  C   UNL     1      -3.885   0.370  24.677  0.00  0.00    +0.029 C 
ATOM     10  C   UNL     1      -3.767   2.702  25.658  0.00  0.00    +0.012 C 
ATOM     11  C   UNL     1      -3.474   3.329  24.278  0.00  0.00    +0.024 C 
ATOM     14  C   UNL     1      -3.336   0.976  23.411  0.00  0.00    -0.023 C 
ATOM     15  C   UNL     1      -3.156   2.294  23.209  0.00  0.00    -0.073 C 
ATOM     21  C   UNL     1      -2.681   2.799  21.874  0.00  0.00    +0.039 C 
ENDROOT
BRANCH   8  12
ATOM     12  C   UNL     1      -6.020   1.695  25.083  0.00  0.00    -0.013 C 
ATOM     17  C   UNL     1      -6.569   0.492  24.322  0.00  0.00    +0.007 C 
ATOM     18  C   UNL     1      -6.927   2.051  26.257  0.00  0.00    +0.007 C 
ENDBRANCH   8  12
BRANCH   9  13
ATOM     13  C   UNL     1      -2.755  -0.346  25.425  0.00  0.00    +0.092 C 
BRANCH  13   2
ATOM      2  N   UNL     1      -1.578  -0.489  24.567  0.00  0.00    -0.299 NA
ATOM      3  N   UNL     1       1.195  -0.341  23.901  0.00  0.00    -0.297 N 
ATOM      6  N   UNL     1       2.833   0.704  22.604  0.00  0.00    -0.223 NA
ATOM      7  N   UNL     1       3.347  -1.249  23.920  0.00  0.00    -0.223 NA
ATOM     19  C   UNL     1      -0.621  -1.429  25.162  0.00  0.00    +0.103 C 
ATOM     20  C   UNL     1      -0.934   0.814  24.356  0.00  0.00    +0.103 C 
ATOM     22  C   UNL     1       0.591  -1.631  24.247  0.00  0.00    +0.123 C 
ATOM     23  C   UNL     1       0.265   0.685  23.413  0.00  0.00    +0.123 C 
ATOM     25  C   UNL     1       2.520  -0.293  23.455  0.00  0.00    +0.218 A 
ATOM     29  C   UNL     1       4.118   0.720  22.194  0.00  0.00    +0.116 A 
ATOM     30  C   UNL     1       4.616  -1.173  23.468  0.00  0.00    +0.116 A 
ATOM     31  C   UNL     1       5.063  -0.201  22.596  0.00  0.00    +0.039 A 
ENDBRANCH  13   2
ENDBRANCH   9  13
BRANCH  11  16
ATOM     16  C   UNL     1      -2.366   4.377  24.442  0.00  0.00    +0.105 C 
BRANCH  16  24
ATOM      1  O   UNL     1      -1.321   3.286  26.359  0.00  0.00    -0.425 OA
ATOM      4  N   UNL     1       0.078   3.686  24.659  0.00  0.00    -0.112 NA
ATOM      5  N   UNL     1       0.795   3.070  25.667  0.00  0.00    -0.112 NA
ATOM     24  C   UNL     1      -1.152   3.791  25.106  0.00  0.00    +0.218 A 
ATOM     26  C   UNL     1      -0.061   2.855  26.638  0.00  0.00    +0.217 A 
BRANCH  26  27
ATOM     27  C   UNL     1       0.151   2.228  27.949  0.00  0.00    +0.097 C 
BRANCH  27  28
ATOM     28  C   UNL     1       1.511   2.594  28.582  0.00  0.00    +0.006 C 
ATOM     32  C   UNL     1       1.598   2.211  30.051  0.00  0.00    +0.004 C 
ENDBRANCH  27  28
ENDBRANCH  26  27
ENDBRANCH  16  24
ENDBRANCH  11  16
TORSDOF 7
ENDMDL
MODEL 3
REMARK VINA RESULT:       3.2      1.862      2.393
REMARK  Name = 45784004
REMARK  11 active torsions:
REMARK  status: ('A' for Active; 'I' for Inactive)
REMARK    1  A    between atoms: N_2  and  C_13
REMARK    2  A    between atoms: C_8  and  C_12
REMARK    3  A    between atoms: C_9  and  C_13
REMARK    4  A    between atoms: C_11  and  C_16
REMARK    5  A    between atoms: C_12  and  C_17
REMARK    6  A    between atoms: C_12  and  C_18
REMARK    7  A    between atoms: C_15  and  C_21
REMARK    8  A    between atoms: C_16  and  C_24
REMARK    9  A    between atoms: C_26  and  C_27
REMARK   10  A    between atoms: C_27  and  C_28
REMARK   11  A    between atoms: C_28  and  C_32
REMARK                            x       y       z     vdW  Elec       q    Type
REMARK                         _______ _______ _______ _____ _____    ______ ____
ROOT
ATOM      8  C   UNL     1      -2.924   0.192  24.409  0.00  0.00    +0.000 C 
ATOM      9  C   UNL     1      -3.337   0.907  23.101  0.00  0.00    +0.029 C 
ATOM     10  C   UNL     1      -2.519   1.218  25.478  0.00  0.00    +0.012 C 
ATOM     11  C   UNL     1      -3.626   2.251  25.784  0.00  0.00    +0.024 C 
ATOM     14  C   UNL     1      -4.222   2.102  23.348  0.00  0.00    -0.023 C 
ATOM     15  C   UNL     1      -4.373   2.709  24.540  0.00  0.00    -0.073 C 
ATOM     21  C   UNL     1      -5.349   3.843  24.694  0.00  0.00    +0.039 C 
ENDROOT
BRANCH   8  12
ATOM     12  C   UNL     1      -4.041  -0.729  24.919  0.00  0.00    -0.013 C 
ATOM     17  C   UNL     1      -4.406  -1.761  23.857  0.00  0.00    +0.007 C 
ATOM     18  C   UNL     1      -3.616  -1.414  26.214  0.00  0.00    +0.007 C 
ENDBRANCH   8  12
BRANCH   9  13
ATOM     13  C   UNL     1      -2.115   1.343  22.286  0.00  0.00    +0.092 C 
BRANCH  13   2
ATOM      2  N   UNL     1      -0.877   0.954  22.962  0.00  0.00    -0.299 NA
ATOM      3  N   UNL     1       1.911   0.368  23.161  0.00  0.00    -0.297 N 
ATOM      6  N   UNL     1       3.535  -1.272  23.516  0.00  0.00    -0.223 NA
ATOM      7  N   UNL     1       4.126   1.062  23.418  0.00  0.00    -0.223 NA
ATOM     19  C   UNL     1       0.116   2.031  22.876  0.00  0.00    +0.103 C 
ATOM     20  C   UNL     1      -0.333  -0.276  22.371  0.00  0.00    +0.103 C 
ATOM     22  C   UNL     1       1.397   1.659  23.628  0.00  0.00    +0.123 C 
ATOM     23  C   UNL     1       0.932  -0.725  23.108  0.00  0.00    +0.123 C 
ATOM     25  C   UNL     1       3.253   0.037  23.375  0.00  0.00    +0.218 A 
ATOM     29  C   UNL     1       4.838  -1.555  23.721  0.00  0.00    +0.116 A 
ATOM     30  C   UNL     1       5.411   0.707  23.627  0.00  0.00    +0.116 A 
ATOM     31  C   UNL     1       5.830  -0.598  23.787  0.00  0.00    +0.039 A 
ENDBRANCH  13   2
ENDBRANCH   9  13
BRANCH  11  16
ATOM     16  C   UNL     1      -3.006   3.414  26.568  0.00  0.00    +0.105 C 
BRANCH  16  24
ATOM      1  O   UNL     1      -0.794   2.887  27.454  0.00  0.00    -0.425 OA
ATOM      4  N   UNL     1      -0.764   3.901  25.460  0.00  0.00    -0.112 NA
ATOM      5  N   UNL     1       0.544   3.663  25.838  0.00  0.00    -0.112 NA
ATOM     24  C   UNL     1      -1.510   3.432  26.432  0.00  0.00    +0.218 A 
ATOM     26  C   UNL     1       0.478   3.070  27.007  0.00  0.00    +0.217 A 
BRANCH  26  27
ATOM     27  C   UNL     1       1.562   2.588  27.873  0.00  0.00    +0.097 C 
BRANCH  27  28
ATOM     28  C   UNL     1       1.184   2.590  29.370  0.00  0.00    +0.006 C 
ATOM     32  C   UNL     1       2.194   1.848  30.233  0.00  0.00    +0.004 C 
ENDBRANCH  27  28
ENDBRANCH  26  27
ENDBRANCH  16  24
ENDBRANCH  11  16
TORSDOF 7
ENDMDL
MODEL 4
REMARK VINA RESULT:       4.2      2.159      4.652
REMARK  Name = 45784004
REMARK  11 active torsions:
REMARK  status: ('A' for Active; 'I' for Inactive)
REMARK    1  A    between atoms: N_2  and  C_13
REMARK    2  A    between atoms: C_8  and  C_12
REMARK    3  A    between atoms: C_9  and  C_13
REMARK    4  A    between atoms: C_11  and  C_16
REMARK    5  A    between atoms: C_12  and  C_17
REMARK    6  A    between atoms: C_12  and  C_18
REMARK    7  A    between atoms: C_15  and  C_21
REMARK    8  A    between atoms: C_16  and  C_24
REMARK    9  A    between atoms: C_26  and  C_27
REMARK   10  A    between atoms: C_27  and  C_28
REMARK   11  A    between atoms: C_28  and  C_32
REMARK                            x       y       z     vdW  Elec       q    Type
REMARK                         _______ _______ _______ _____ _____    ______ ____
ROOT
ATOM      8  C   UNL     1      -3.472   3.416  23.968  0.00  0.00    +0.000 C 
ATOM      9  C   UNL     1      -3.390   3.728  25.481  0.00  0.00    +0.029 C 
ATOM     10  C   UNL     1      -4.057   2.016  23.739  0.00  0.00    +0.012 C 
ATOM     11  C   UNL     1      -5.449   1.822  24.379  0.00  0.00    +0.024 C 
ATOM     14  C   UNL     1      -4.635   3.318  26.225  0.00  0.00    -0.023 C 
ATOM     15  C   UNL     1      -5.572   2.479  25.746  0.00  0.00    -0.073 C 
ATOM     21  C   UNL     1      -6.821   2.205  26.539  0.00  0.00    +0.039 C 
ENDROOT
BRANCH   8  12
ATOM     12  C   UNL     1      -4.280   4.486  23.221  0.00  0.00    -0.013 C 
ATOM     17  C   UNL     1      -3.683   5.868  23.461  0.00  0.00    +0.007 C 
ATOM     18  C   UNL     1      -4.328   4.170  21.729  0.00  0.00    +0.007 C 
ENDBRANCH   8  12
BRANCH   9  13
ATOM     13  C   UNL     1      -2.172   3.061  26.130  0.00  0.00    +0.092 C 
BRANCH  13   2
ATOM      2  N   UNL     1      -1.244   2.576  25.109  0.00  0.00    -0.299 NA
ATOM      3  N   UNL     1       1.154   1.375  24.125  0.00  0.00    -0.297 N 
ATOM      6  N   UNL     1       3.156   1.693  22.966  0.00  0.00    -0.223 NA
ATOM      7  N   UNL     1       2.409  -0.515  23.575  0.00  0.00    -0.223 NA
ATOM     19  C   UNL     1      -1.017   1.135  25.264  0.00  0.00    +0.103 C 
ATOM     20  C   UNL     1       0.035   3.294  25.193  0.00  0.00    +0.103 C 
ATOM     22  C   UNL     1      -0.091   0.602  24.167  0.00  0.00    +0.123 C 
ATOM     23  C   UNL     1       0.995   2.835  24.093  0.00  0.00    +0.123 C 
ATOM     25  C   UNL     1       2.293   0.825  23.528  0.00  0.00    +0.218 A 
ATOM     29  C   UNL     1       4.243   1.129  22.399  0.00  0.00    +0.116 A 
ATOM     30  C   UNL     1       3.518  -1.012  22.988  0.00  0.00    +0.116 A 
ATOM     31  C   UNL     1       4.479  -0.230  22.379  0.00  0.00    +0.039 A 
ENDBRANCH  13   2
ENDBRANCH   9  13
BRANCH  11  16
ATOM     16  C   UNL     1      -5.771   0.323  24.407  0.00  0.00    +0.105 C 
BRANCH  16  24
ATOM      1  O   UNL     1      -4.100  -1.437  24.162  0.00  0.00    -0.425 OA
ATOM      4  N   UNL     1      -4.039  -0.386  26.136  0.00  0.00    -0.112 NA
ATOM      5  N   UNL     1      -3.047  -1.349  26.134  0.00  0.00    -0.112 NA
ATOM     24  C   UNL     1      -4.627  -0.473  24.966  0.00  0.00    +0.218 A 
ATOM     26  C   UNL     1      -3.119  -1.937  24.963  0.00  0.00    +0.217 A 
BRANCH  26  27
ATOM     27  C   UNL     1      -2.306  -3.030  24.414  0.00  0.00    +0.097 C 
BRANCH  27  28
ATOM     28  C   UNL     1      -0.841  -2.619  24.151  0.00  0.00    +0.006 C 
ATOM     32  C   UNL     1      -0.021  -2.516  25.427  0.00  0.00    +0.004 C 
ENDBRANCH  27  28
ENDBRANCH  26  27
ENDBRANCH  16  24
ENDBRANCH  11  16
TORSDOF 7
ENDMDL
MODEL 5
REMARK VINA RESULT:       4.8      2.002      6.494
REMARK  Name = 45784004
REMARK  11 active torsions:
REMARK  status: ('A' for Active; 'I' for Inactive)
REMARK    1  A    between atoms: N_2  and  C_13
REMARK    2  A    between atoms: C_8  and  C_12
REMARK    3  A    between atoms: C_9  and  C_13
REMARK    4  A    between atoms: C_11  and  C_16
REMARK    5  A    between atoms: C_12  and  C_17
REMARK    6  A    between atoms: C_12  and  C_18
REMARK    7  A    between atoms: C_15  and  C_21
REMARK    8  A    between atoms: C_16  and  C_24
REMARK    9  A    between atoms: C_26  and  C_27
REMARK   10  A    between atoms: C_27  and  C_28
REMARK   11  A    between atoms: C_28  and  C_32
REMARK                            x       y       z     vdW  Elec       q    Type
REMARK                         _______ _______ _______ _____ _____    ______ ____
ROOT
ATOM      8  C   UNL     1      -2.345   4.627  25.690  0.00  0.00    +0.000 C 
ATOM      9  C   UNL     1      -3.678   4.380  24.946  0.00  0.00    +0.029 C 
ATOM     10  C   UNL     1      -1.575   3.310  25.865  0.00  0.00    +0.012 C 
ATOM     11  C   UNL     1      -1.292   2.585  24.531  0.00  0.00    +0.024 C 
ATOM     14  C   UNL     1      -3.520   3.456  23.765  0.00  0.00    -0.023 C 
ATOM     15  C   UNL     1      -2.459   2.656  23.556  0.00  0.00    -0.073 C 
ATOM     21  C   UNL     1      -2.363   1.836  22.298  0.00  0.00    +0.039 C 
ENDROOT
BRANCH   8  12
ATOM     12  C   UNL     1      -1.489   5.678  24.971  0.00  0.00    -0.013 C 
ATOM     17  C   UNL     1      -0.234   5.035  24.390  0.00  0.00    +0.007 C 
ATOM     18  C   UNL     1      -2.300   6.365  23.876  0.00  0.00    +0.007 C 
ENDBRANCH   8  12
BRANCH   9  13
ATOM     13  C   UNL     1      -4.754   3.821  25.883  0.00  0.00    +0.092 C 
BRANCH  13   2
ATOM      2  N   UNL     1      -4.816   2.363  25.786  0.00  0.00    -0.299 NA
ATOM      3  N   UNL     1      -4.078  -0.219  24.812  0.00  0.00    -0.297 N 
ATOM      6  N   UNL     1      -4.725  -2.090  23.573  0.00  0.00    -0.223 NA
ATOM      7  N   UNL     1      -2.688  -2.095  24.861  0.00  0.00    -0.223 NA
ATOM     19  C   UNL     1      -3.528   1.768  26.161  0.00  0.00    +0.103 C 
ATOM     20  C   UNL     1      -5.177   1.952  24.423  0.00  0.00    +0.103 C 
ATOM     22  C   UNL     1      -3.595   0.238  26.118  0.00  0.00    +0.123 C 
ATOM     23  C   UNL     1      -5.301   0.430  24.324  0.00  0.00    +0.123 C 
ATOM     25  C   UNL     1      -3.818  -1.529  24.396  0.00  0.00    +0.218 A 
ATOM     29  C   UNL     1      -4.443  -3.353  23.192  0.00  0.00    +0.116 A 
ATOM     30  C   UNL     1      -2.469  -3.358  24.440  0.00  0.00    +0.116 A 
ATOM     31  C   UNL     1      -3.320  -4.044  23.597  0.00  0.00    +0.039 A 
ENDBRANCH  13   2
ENDBRANCH   9  13
BRANCH  11  16
ATOM     16  C   UNL     1      -0.859   1.146  24.837  0.00  0.00    +0.105 C 
BRANCH  16  24
ATOM      1  O   UNL     1       1.402   1.444  23.969  0.00  0.00    -0.425 OA
ATOM      4  N   UNL     1       0.309  -0.302  23.095  0.00  0.00    -0.112 NA
ATOM      5  N   UNL     1       1.565  -0.254  22.521  0.00  0.00    -0.112 NA
ATOM     24  C   UNL     1       0.258   0.706  23.934  0.00  0.00    +0.218 A 
ATOM     26  C   UNL     1       2.167   0.780  23.059  0.00  0.00    +0.217 A 
BRANCH  26  27
ATOM     27  C   UNL     1       3.519   1.302  22.823  0.00  0.00    +0.097 C 
BRANCH  27  28
ATOM     28  C   UNL     1       4.604   0.203  22.844  0.00  0.00    +0.006 C 
ATOM     32  C   UNL     1       5.474   0.259  24.090  0.00  0.00    +0.004 C 
ENDBRANCH  27  28
ENDBRANCH  26  27
ENDBRANCH  16  24
ENDBRANCH  11  16
TORSDOF 7
ENDMDL
MODEL 6
REMARK VINA RESULT:       5.1      1.592      4.344
REMARK  Name = 45784004
REMARK  11 active torsions:
REMARK  status: ('A' for Active; 'I' for Inactive)
REMARK    1  A    between atoms: N_2  and  C_13
REMARK    2  A    between atoms: C_8  and  C_12
REMARK    3  A    between atoms: C_9  and  C_13
REMARK    4  A    between atoms: C_11  and  C_16
REMARK    5  A    between atoms: C_12  and  C_17
REMARK    6  A    between atoms: C_12  and  C_18
REMARK    7  A    between atoms: C_15  and  C_21
REMARK    8  A    between atoms: C_16  and  C_24
REMARK    9  A    between atoms: C_26  and  C_27
REMARK   10  A    between atoms: C_27  and  C_28
REMARK   11  A    between atoms: C_28  and  C_32
REMARK                            x       y       z     vdW  Elec       q    Type
REMARK                         _______ _______ _______ _____ _____    ______ ____
ROOT
ATOM      8  C   UNL     1      -2.069   4.034  23.743  0.00  0.00    +0.000 C 
ATOM      9  C   UNL     1      -1.348   2.999  24.638  0.00  0.00    +0.029 C 
ATOM     10  C   UNL     1      -3.578   4.029  24.024  0.00  0.00    +0.012 C 
ATOM     11  C   UNL     1      -3.926   4.298  25.505  0.00  0.00    +0.024 C 
ATOM     14  C   UNL     1      -1.832   3.029  26.065  0.00  0.00    -0.023 C 
ATOM     15  C   UNL     1      -2.973   3.613  26.474  0.00  0.00    -0.073 C 
ATOM     21  C   UNL     1      -3.320   3.659  27.937  0.00  0.00    +0.039 C 
ENDROOT
BRANCH   8  12
ATOM     12  C   UNL     1      -1.476   5.439  23.924  0.00  0.00    -0.013 C 
ATOM     17  C   UNL     1      -2.484   6.357  24.608  0.00  0.00    +0.007 C 
ATOM     18  C   UNL     1      -0.179   5.369  24.724  0.00  0.00    +0.007 C 
ENDBRANCH   8  12
BRANCH   9  13
ATOM     13  C   UNL     1      -1.493   1.577  24.086  0.00  0.00    +0.092 C 
BRANCH  13   2
ATOM      2  N   UNL     1      -0.225   1.109  23.527  0.00  0.00    -0.299 NA
ATOM      3  N   UNL     1       2.472   0.170  23.608  0.00  0.00    -0.297 N 
ATOM      6  N   UNL     1       4.710   0.635  23.129  0.00  0.00    -0.223 NA
ATOM      7  N   UNL     1       4.021  -1.562  23.841  0.00  0.00    -0.223 NA
ATOM     19  C   UNL     1       0.076  -0.248  23.999  0.00  0.00    +0.103 C 
ATOM     20  C   UNL     1       0.868   2.019  23.895  0.00  0.00    +0.103 C 
ATOM     22  C   UNL     1       1.373  -0.772  23.378  0.00  0.00    +0.123 C 
ATOM     23  C   UNL     1       2.190   1.571  23.268  0.00  0.00    +0.123 C 
ATOM     25  C   UNL     1       3.796  -0.273  23.523  0.00  0.00    +0.218 A 
ATOM     29  C   UNL     1       5.976   0.174  23.057  0.00  0.00    +0.116 A 
ATOM     30  C   UNL     1       5.308  -1.955  23.746  0.00  0.00    +0.116 A 
ATOM     31  C   UNL     1       6.338  -1.123  23.356  0.00  0.00    +0.039 A 
ENDBRANCH  13   2
ENDBRANCH   9  13
BRANCH  11  16
ATOM     16  C   UNL     1      -5.393   3.916  25.740  0.00  0.00    +0.105 C 
BRANCH  16  24
ATOM      1  O   UNL     1      -4.618   1.697  25.088  0.00  0.00    -0.425 OA
ATOM      4  N   UNL     1      -6.833   1.976  24.931  0.00  0.00    -0.112 NA
ATOM      5  N   UNL     1      -6.536   0.685  24.536  0.00  0.00    -0.112 NA
ATOM     24  C   UNL     1      -5.685   2.529  25.245  0.00  0.00    +0.218 A 
ATOM     26  C   UNL     1      -5.233   0.567  24.643  0.00  0.00    +0.217 A 
BRANCH  26  27
ATOM     27  C   UNL     1      -4.373  -0.589  24.358  0.00  0.00    +0.097 C 
BRANCH  27  28
ATOM     28  C   UNL     1      -3.618  -1.101  25.604  0.00  0.00    +0.006 C 
ATOM     32  C   UNL     1      -3.118  -2.528  25.443  0.00  0.00    +0.004 C 
ENDBRANCH  27  28
ENDBRANCH  26  27
ENDBRANCH  16  24
ENDBRANCH  11  16
TORSDOF 7
ENDMDL
MODEL 7
REMARK VINA RESULT:       5.6      1.977      4.413
REMARK  Name = 45784004
REMARK  11 active torsions:
REMARK  status: ('A' for Active; 'I' for Inactive)
REMARK    1  A    between atoms: N_2  and  C_13
REMARK    2  A    between atoms: C_8  and  C_12
REMARK    3  A    between atoms: C_9  and  C_13
REMARK    4  A    between atoms: C_11  and  C_16
REMARK    5  A    between atoms: C_12  and  C_17
REMARK    6  A    between atoms: C_12  and  C_18
REMARK    7  A    between atoms: C_15  and  C_21
REMARK    8  A    between atoms: C_16  and  C_24
REMARK    9  A    between atoms: C_26  and  C_27
REMARK   10  A    between atoms: C_27  and  C_28
REMARK   11  A    between atoms: C_28  and  C_32
REMARK                            x       y       z     vdW  Elec       q    Type
REMARK                         _______ _______ _______ _____ _____    ______ ____
ROOT
ATOM      8  C   UNL     1      -4.132   1.581  23.892  0.00  0.00    +0.000 C 
ATOM      9  C   UNL     1      -3.126   2.592  23.296  0.00  0.00    +0.029 C 
ATOM     10  C   UNL     1      -3.451   0.707  24.955  0.00  0.00    +0.012 C 
ATOM     11  C   UNL     1      -2.807   1.524  26.097  0.00  0.00    +0.024 C 
ATOM     14  C   UNL     1      -2.270   3.247  24.350  0.00  0.00    -0.023 C 
ATOM     15  C   UNL     1      -2.124   2.793  25.608  0.00  0.00    -0.073 C 
ATOM     21  C   UNL     1      -1.312   3.573  26.607  0.00  0.00    +0.039 C 
ENDROOT
BRANCH   8  12
ATOM     12  C   UNL     1      -5.367   2.291  24.465  0.00  0.00    -0.013 C 
ATOM     17  C   UNL     1      -6.008   1.443  25.559  0.00  0.00    +0.007 C 
ATOM     18  C   UNL     1      -4.986   3.668  25.002  0.00  0.00    +0.007 C 
ENDBRANCH   8  12
BRANCH   9  13
ATOM     13  C   UNL     1      -2.221   1.939  22.247  0.00  0.00    +0.092 C 
BRANCH  13   2
ATOM      2  N   UNL     1      -1.027   1.373  22.874  0.00  0.00    -0.299 NA
ATOM      3  N   UNL     1       1.729   0.644  23.049  0.00  0.00    -0.297 N 
ATOM      6  N   UNL     1       3.279  -1.101  23.129  0.00  0.00    -0.223 NA
ATOM      7  N   UNL     1       3.953   1.180  23.513  0.00  0.00    -0.223 NA
ATOM     19  C   UNL     1       0.005   2.403  23.036  0.00  0.00    +0.103 C 
ATOM     20  C   UNL     1      -0.501   0.261  22.072  0.00  0.00    +0.103 C 
ATOM     22  C   UNL     1       1.240   1.838  23.743  0.00  0.00    +0.123 C 
ATOM     23  C   UNL     1       0.715  -0.376  22.748  0.00  0.00    +0.123 C 
ATOM     25  C   UNL     1       3.049   0.221  23.239  0.00  0.00    +0.218 A 
ATOM     29  C   UNL     1       4.562  -1.473  23.319  0.00  0.00    +0.116 A 
ATOM     30  C   UNL     1       5.216   0.738  23.692  0.00  0.00    +0.116 A 
ATOM     31  C   UNL     1       5.582  -0.590  23.606  0.00  0.00    +0.039 A 
ENDBRANCH  13   2
ENDBRANCH   9  13
BRANCH  11  16
ATOM     16  C   UNL     1      -1.865   0.606  26.885  0.00  0.00    +0.105 C 
BRANCH  16  24
ATOM      1  O   UNL     1      -2.478  -1.394  25.629  0.00  0.00    -0.425 OA
ATOM      4  N   UNL     1      -0.275  -1.014  25.725  0.00  0.00    -0.112 NA
ATOM      5  N   UNL     1      -0.478  -2.166  24.990  0.00  0.00    -0.112 NA
ATOM     24  C   UNL     1      -1.469  -0.597  26.077  0.00  0.00    +0.218 A 
ATOM     26  C   UNL     1      -1.777  -2.350  24.960  0.00  0.00    +0.217 A 
BRANCH  26  27
ATOM     27  C   UNL     1      -2.557  -3.416  24.317  0.00  0.00    +0.097 C 
BRANCH  27  28
ATOM     28  C   UNL     1      -4.076  -3.142  24.324  0.00  0.00    +0.006 C 
ATOM     32  C   UNL     1      -4.478  -2.031  23.367  0.00  0.00    +0.004 C 
ENDBRANCH  27  28
ENDBRANCH  26  27
ENDBRANCH  16  24
ENDBRANCH  11  16
TORSDOF 7
ENDMDL
