MODEL 1
REMARK VINA RESULT:      -2.9      0.000      0.000
REMARK  Name = 11942988
REMARK  5 active torsions:
REMARK  status: ('A' for Active; 'I' for Inactive)
REMARK    1  A    between atoms: N_3  and  C_14
REMARK    2  A    between atoms: N_4  and  C_18
REMARK    3  A    between atoms: C_8  and  C_14
REMARK    4  A    between atoms: C_9  and  C_15
REMARK    5  A    between atoms: C_17  and  C_19
REMARK                            x       y       z     vdW  Elec       q    Type
REMARK                         _______ _______ _______ _____ _____    ______ ____
ROOT
ATOM      2  N   UNL     1      -3.092   4.384  26.130  0.00  0.00    -0.297 NA
ATOM      7  C   UNL     1      -4.090   3.566  23.869  0.00  0.00    +0.005 C 
ATOM      8  C   UNL     1      -2.046   3.685  25.338  0.00  0.00    +0.078 C 
ATOM      9  C   UNL     1      -4.949   3.099  25.059  0.00  0.00    +0.092 C 
ATOM     10  C   UNL     1      -2.648   3.056  24.060  0.00  0.00    +0.025 C 
ATOM     11  C   UNL     1      -4.044   5.104  23.931  0.00  0.00    +0.020 C 
ATOM     12  C   UNL     1      -4.244   3.480  26.374  0.00  0.00    +0.097 C 
ATOM     13  C   UNL     1      -3.574   5.540  25.332  0.00  0.00    +0.085 C 
ENDROOT
BRANCH   9  15
ATOM      1  O   UNL     1      -6.378   1.204  24.996  0.00  0.00    -0.275 OA
ATOM      4  N   UNL     1      -4.047   0.900  24.906  0.00  0.00    -0.285 N 
ATOM     15  C   UNL     1      -5.227   1.628  24.983  0.00  0.00    +0.222 C 
ATOM     29  H   UNL     1      -3.171   1.416  24.920  0.00  0.00    +0.155 HD
BRANCH   4  18
ATOM     18  C   UNL     1      -3.907  -0.507  24.821  0.00  0.00    +0.033 A 
ATOM     24  C   UNL     1      -4.308  -1.159  23.666  0.00  0.00    +0.023 A 
ATOM     25  C   UNL     1      -3.371  -1.200  25.894  0.00  0.00    +0.023 A 
ATOM     26  C   UNL     1      -4.170  -2.544  23.583  0.00  0.00    +0.002 A 
ATOM     27  C   UNL     1      -3.232  -2.585  25.810  0.00  0.00    +0.002 A 
ATOM     28  C   UNL     1      -3.632  -3.257  24.655  0.00  0.00    +0.000 A 
ENDBRANCH   4  18
ENDBRANCH   9  15
BRANCH   8  14
ATOM     14  C   UNL     1      -1.276   2.657  26.168  0.00  0.00    +0.164 C 
BRANCH  14   3
ATOM      3  N   UNL     1      -0.487   1.768  25.332  0.00  0.00    -0.250 N 
ATOM      5  N   UNL     1      -0.768   0.462  25.284  0.00  0.00    -0.065 NA
ATOM      6  N   UNL     1       0.105  -0.089  24.449  0.00  0.00    -0.130 NA
ATOM     16  C   UNL     1       0.561   2.101  24.543  0.00  0.00    +0.138 A 
ATOM     17  C   UNL     1       0.926   0.901  23.987  0.00  0.00    +0.108 A 
BRANCH  17  19
ATOM     19  C   UNL     1       1.990   0.645  23.057  0.00  0.00    -0.023 C 
ATOM     20  C   UNL     1       3.307   1.352  23.205  0.00  0.00    +0.037 C 
ATOM     21  C   UNL     1       4.230   0.538  22.301  0.00  0.00    +0.009 C 
ATOM     22  C   UNL     1       3.321  -0.162  21.295  0.00  0.00    +0.028 C 
ATOM     23  C   UNL     1       2.008  -0.184  22.004  0.00  0.00    -0.021 C 
ENDBRANCH  17  19
ENDBRANCH  14   3
ENDBRANCH   8  14
TORSDOF 5
ENDMDL
MODEL 2
REMARK VINA RESULT:      -2.3      1.677      4.913
REMARK  Name = 11942988
REMARK  5 active torsions:
REMARK  status: ('A' for Active; 'I' for Inactive)
REMARK    1  A    between atoms: N_3  and  C_14
REMARK    2  A    between atoms: N_4  and  C_18
REMARK    3  A    between atoms: C_8  and  C_14
REMARK    4  A    between atoms: C_9  and  C_15
REMARK    5  A    between atoms: C_17  and  C_19
REMARK                            x       y       z     vdW  Elec       q    Type
REMARK                         _______ _______ _______ _____ _____    ______ ____
ROOT
ATOM      2  N   UNL     1      -3.041  -2.039  23.810  0.00  0.00    -0.297 NA
ATOM      7  C   UNL     1      -2.984  -0.842  26.121  0.00  0.00    +0.005 C 
ATOM      8  C   UNL     1      -1.680  -1.499  24.068  0.00  0.00    +0.078 C 
ATOM      9  C   UNL     1      -4.140  -0.317  25.249  0.00  0.00    +0.092 C 
ATOM     10  C   UNL     1      -1.656  -0.652  25.361  0.00  0.00    +0.025 C 
ATOM     11  C   UNL     1      -3.205  -2.357  26.287  0.00  0.00    +0.020 C 
ATOM     12  C   UNL     1      -4.044  -0.945  23.847  0.00  0.00    +0.097 C 
ATOM     13  C   UNL     1      -3.364  -2.999  24.896  0.00  0.00    +0.085 C 
ENDROOT
BRANCH   9  15
ATOM      1  O   UNL     1      -5.185   1.809  25.081  0.00  0.00    -0.275 OA
ATOM      4  N   UNL     1      -2.843   1.682  25.266  0.00  0.00    -0.285 N 
ATOM     15  C   UNL     1      -4.136   1.182  25.189  0.00  0.00    +0.222 C 
ATOM     29  H   UNL     1      -2.081   1.012  25.340  0.00  0.00    +0.155 HD
BRANCH   4  18
ATOM     18  C   UNL     1      -2.441   3.039  25.241  0.00  0.00    +0.033 A 
ATOM     24  C   UNL     1      -3.262   3.999  25.809  0.00  0.00    +0.023 A 
ATOM     25  C   UNL     1      -1.235   3.377  24.650  0.00  0.00    +0.023 A 
ATOM     26  C   UNL     1      -2.866   5.336  25.784  0.00  0.00    +0.002 A 
ATOM     27  C   UNL     1      -0.839   4.715  24.625  0.00  0.00    +0.002 A 
ATOM     28  C   UNL     1      -1.655   5.694  25.193  0.00  0.00    +0.000 A 
ENDBRANCH   4  18
ENDBRANCH   9  15
BRANCH   8  14
ATOM     14  C   UNL     1      -1.123  -0.724  22.872  0.00  0.00    +0.164 C 
BRANCH  14   3
ATOM      3  N   UNL     1       0.222  -0.235  23.123  0.00  0.00    -0.250 N 
ATOM      5  N   UNL     1       0.419   1.033  23.497  0.00  0.00    -0.065 NA
ATOM      6  N   UNL     1       1.729   1.189  23.652  0.00  0.00    -0.130 NA
ATOM     16  C   UNL     1       1.379  -0.932  23.025  0.00  0.00    +0.138 A 
ATOM     17  C   UNL     1       2.331  -0.005  23.367  0.00  0.00    +0.108 A 
BRANCH  17  19
ATOM     19  C   UNL     1       3.753  -0.184  23.438  0.00  0.00    -0.023 C 
ATOM     20  C   UNL     1       4.675   0.914  22.991  0.00  0.00    +0.037 C 
ATOM     21  C   UNL     1       6.020   0.484  23.575  0.00  0.00    +0.009 C 
ATOM     22  C   UNL     1       5.921  -1.024  23.786  0.00  0.00    +0.028 C 
ATOM     23  C   UNL     1       4.448  -1.245  23.872  0.00  0.00    -0.021 C 
ENDBRANCH  17  19
ENDBRANCH  14   3
ENDBRANCH   8  14
TORSDOF 5
ENDMDL
MODEL 3
REMARK VINA RESULT:      -2.1      0.998      1.358
REMARK  Name = 11942988
REMARK  5 active torsions:
REMARK  status: ('A' for Active; 'I' for Inactive)
REMARK    1  A    between atoms: N_3  and  C_14
REMARK    2  A    between atoms: N_4  and  C_18
REMARK    3  A    between atoms: C_8  and  C_14
REMARK    4  A    between atoms: C_9  and  C_15
REMARK    5  A    between atoms: C_17  and  C_19
REMARK                            x       y       z     vdW  Elec       q    Type
REMARK                         _______ _______ _______ _____ _____    ______ ____
ROOT
ATOM      2  N   UNL     1      -3.679   4.110  26.291  0.00  0.00    -0.297 NA
ATOM      7  C   UNL     1      -3.735   3.798  23.708  0.00  0.00    +0.005 C 
ATOM      8  C   UNL     1      -2.302   4.203  25.739  0.00  0.00    +0.078 C 
ATOM      9  C   UNL     1      -4.470   2.649  24.424  0.00  0.00    +0.092 C 
ATOM     10  C   UNL     1      -2.286   3.870  24.230  0.00  0.00    +0.025 C 
ATOM     11  C   UNL     1      -4.438   5.103  24.124  0.00  0.00    +0.020 C 
ATOM     12  C   UNL     1      -4.285   2.800  25.945  0.00  0.00    +0.097 C 
ATOM     13  C   UNL     1      -4.497   5.177  25.661  0.00  0.00    +0.085 C 
ENDROOT
BRANCH   9  15
ATOM      1  O   UNL     1      -3.459   1.200  22.838  0.00  0.00    -0.275 OA
ATOM      4  N   UNL     1      -4.254   0.318  24.869  0.00  0.00    -0.285 N 
ATOM     15  C   UNL     1      -3.995   1.313  23.936  0.00  0.00    +0.222 C 
ATOM     29  H   UNL     1      -4.723   0.589  25.731  0.00  0.00    +0.155 HD
BRANCH   4  18
ATOM     18  C   UNL     1      -3.953  -1.061  24.764  0.00  0.00    +0.033 A 
ATOM     24  C   UNL     1      -3.231  -1.676  25.774  0.00  0.00    +0.023 A 
ATOM     25  C   UNL     1      -4.388  -1.767  23.654  0.00  0.00    +0.023 A 
ATOM     26  C   UNL     1      -2.935  -3.035  25.670  0.00  0.00    +0.002 A 
ATOM     27  C   UNL     1      -4.091  -3.126  23.551  0.00  0.00    +0.002 A 
ATOM     28  C   UNL     1      -3.365  -3.760  24.559  0.00  0.00    +0.000 A 
ENDBRANCH   4  18
ENDBRANCH   9  15
BRANCH   8  14
ATOM     14  C   UNL     1      -1.301   3.349  26.520  0.00  0.00    +0.164 C 
BRANCH  14   3
ATOM      3  N   UNL     1      -0.697   2.325  25.684  0.00  0.00    -0.250 N 
ATOM      5  N   UNL     1      -1.150   1.068  25.725  0.00  0.00    -0.065 NA
ATOM      6  N   UNL     1      -0.418   0.367  24.867  0.00  0.00    -0.130 NA
ATOM     16  C   UNL     1       0.328   2.478  24.813  0.00  0.00    +0.138 A 
ATOM     17  C   UNL     1       0.492   1.216  24.300  0.00  0.00    +0.108 A 
BRANCH  17  19
ATOM     19  C   UNL     1       1.445   0.777  23.320  0.00  0.00    -0.023 C 
ATOM     20  C   UNL     1       2.792   1.435  23.232  0.00  0.00    +0.037 C 
ATOM     21  C   UNL     1       3.590   0.454  22.373  0.00  0.00    +0.009 C 
ATOM     22  C   UNL     1       2.559  -0.339  21.577  0.00  0.00    +0.028 C 
ATOM     23  C   UNL     1       1.326  -0.195  22.406  0.00  0.00    -0.021 C 
ENDBRANCH  17  19
ENDBRANCH  14   3
ENDBRANCH   8  14
TORSDOF 5
ENDMDL
MODEL 4
REMARK VINA RESULT:      -0.8      2.161      5.662
REMARK  Name = 11942988
REMARK  5 active torsions:
REMARK  status: ('A' for Active; 'I' for Inactive)
REMARK    1  A    between atoms: N_3  and  C_14
REMARK    2  A    between atoms: N_4  and  C_18
REMARK    3  A    between atoms: C_8  and  C_14
REMARK    4  A    between atoms: C_9  and  C_15
REMARK    5  A    between atoms: C_17  and  C_19
REMARK                            x       y       z     vdW  Elec       q    Type
REMARK                         _______ _______ _______ _____ _____    ______ ____
ROOT
ATOM      2  N   UNL     1      -1.850  -2.805  24.207  0.00  0.00    -0.297 NA
ATOM      7  C   UNL     1      -3.153  -1.279  25.865  0.00  0.00    +0.005 C 
ATOM      8  C   UNL     1      -0.904  -1.907  24.921  0.00  0.00    +0.078 C 
ATOM      9  C   UNL     1      -3.755  -1.205  24.449  0.00  0.00    +0.092 C 
ATOM     10  C   UNL     1      -1.663  -0.887  25.798  0.00  0.00    +0.025 C 
ATOM     11  C   UNL     1      -3.219  -2.754  26.301  0.00  0.00    +0.020 C 
ATOM     12  C   UNL     1      -2.868  -2.006  23.479  0.00  0.00    +0.097 C 
ATOM     13  C   UNL     1      -2.552  -3.629  25.223  0.00  0.00    +0.085 C 
ENDROOT
BRANCH   9  15
ATOM      1  O   UNL     1      -3.555   0.575  22.891  0.00  0.00    -0.275 OA
ATOM      4  N   UNL     1      -4.518   0.984  24.999  0.00  0.00    -0.285 N 
ATOM     15  C   UNL     1      -3.924   0.217  24.005  0.00  0.00    +0.222 C 
ATOM     29  H   UNL     1      -4.751   0.523  25.876  0.00  0.00    +0.155 HD
BRANCH   4  18
ATOM     18  C   UNL     1      -4.837   2.362  24.948  0.00  0.00    +0.033 A 
ATOM     24  C   UNL     1      -5.688   2.897  25.902  0.00  0.00    +0.023 A 
ATOM     25  C   UNL     1      -4.290   3.147  23.946  0.00  0.00    +0.023 A 
ATOM     26  C   UNL     1      -6.001   4.254  25.851  0.00  0.00    +0.002 A 
ATOM     27  C   UNL     1      -4.604   4.505  23.897  0.00  0.00    +0.002 A 
ATOM     28  C   UNL     1      -5.459   5.059  24.849  0.00  0.00    +0.000 A 
ENDBRANCH   4  18
ENDBRANCH   9  15
BRANCH   8  14
ATOM     14  C   UNL     1       0.077  -1.219  23.969  0.00  0.00    +0.164 C 
BRANCH  14   3
ATOM      3  N   UNL     1       0.116   0.218  24.179  0.00  0.00    -0.250 N 
ATOM      5  N   UNL     1       1.200   0.920  23.835  0.00  0.00    -0.065 NA
ATOM      6  N   UNL     1       0.950   2.188  24.138  0.00  0.00    -0.130 NA
ATOM     16  C   UNL     1      -0.858   0.995  24.708  0.00  0.00    +0.138 A 
ATOM     17  C   UNL     1      -0.307   2.252  24.673  0.00  0.00    +0.108 A 
BRANCH  17  19
ATOM     19  C   UNL     1      -0.894   3.486  25.111  0.00  0.00    -0.023 C 
ATOM     20  C   UNL     1      -0.471   4.785  24.488  0.00  0.00    +0.037 C 
ATOM     21  C   UNL     1      -1.567   5.749  24.940  0.00  0.00    +0.009 C 
ATOM     22  C   UNL     1      -2.173   5.133  26.197  0.00  0.00    +0.028 C 
ATOM     23  C   UNL     1      -1.829   3.689  26.050  0.00  0.00    -0.021 C 
ENDBRANCH  17  19
ENDBRANCH  14   3
ENDBRANCH   8  14
TORSDOF 5
ENDMDL
MODEL 5
REMARK VINA RESULT:       0.7      2.247      4.636
REMARK  Name = 11942988
REMARK  5 active torsions:
REMARK  status: ('A' for Active; 'I' for Inactive)
REMARK    1  A    between atoms: N_3  and  C_14
REMARK    2  A    between atoms: N_4  and  C_18
REMARK    3  A    between atoms: C_8  and  C_14
REMARK    4  A    between atoms: C_9  and  C_15
REMARK    5  A    between atoms: C_17  and  C_19
REMARK                            x       y       z     vdW  Elec       q    Type
REMARK                         _______ _______ _______ _____ _____    ______ ____
ROOT
ATOM      2  N   UNL     1      -3.106   5.175  24.792  0.00  0.00    -0.297 NA
ATOM      7  C   UNL     1      -0.860   3.872  24.986  0.00  0.00    +0.005 C 
ATOM      8  C   UNL     1      -3.018   4.510  26.119  0.00  0.00    +0.078 C 
ATOM      9  C   UNL     1      -1.619   3.488  23.701  0.00  0.00    +0.092 C 
ATOM     10  C   UNL     1      -1.767   3.606  26.204  0.00  0.00    +0.025 C 
ATOM     11  C   UNL     1      -0.616   5.391  24.920  0.00  0.00    +0.020 C 
ATOM     12  C   UNL     1      -2.999   4.170  23.705  0.00  0.00    +0.097 C 
ATOM     13  C   UNL     1      -1.957   6.108  24.672  0.00  0.00    +0.085 C 
ENDROOT
BRANCH   9  15
ATOM      1  O   UNL     1      -2.517   1.500  22.763  0.00  0.00    -0.275 OA
ATOM      4  N   UNL     1      -0.873   1.349  24.439  0.00  0.00    -0.285 N 
ATOM     15  C   UNL     1      -1.735   1.999  23.565  0.00  0.00    +0.222 C 
ATOM     29  H   UNL     1      -0.298   1.923  25.051  0.00  0.00    +0.155 HD
BRANCH   4  18
ATOM     18  C   UNL     1      -0.701  -0.048  24.600  0.00  0.00    +0.033 A 
ATOM     24  C   UNL     1      -0.610  -0.853  23.476  0.00  0.00    +0.023 A 
ATOM     25  C   UNL     1      -0.626  -0.578  25.877  0.00  0.00    +0.023 A 
ATOM     26  C   UNL     1      -0.440  -2.227  23.634  0.00  0.00    +0.002 A 
ATOM     27  C   UNL     1      -0.456  -1.954  26.035  0.00  0.00    +0.002 A 
ATOM     28  C   UNL     1      -0.363  -2.778  24.914  0.00  0.00    +0.000 A 
ENDBRANCH   4  18
ENDBRANCH   9  15
BRANCH   8  14
ATOM     14  C   UNL     1      -4.295   3.747  26.474  0.00  0.00    +0.164 C 
BRANCH  14   3
ATOM      3  N   UNL     1      -4.443   2.539  25.680  0.00  0.00    -0.250 N 
ATOM      5  N   UNL     1      -5.177   2.553  24.563  0.00  0.00    -0.065 NA
ATOM      6  N   UNL     1      -5.129   1.327  24.055  0.00  0.00    -0.130 NA
ATOM     16  C   UNL     1      -3.903   1.323  25.930  0.00  0.00    +0.138 A 
ATOM     17  C   UNL     1      -4.353   0.561  24.881  0.00  0.00    +0.108 A 
BRANCH  17  19
ATOM     19  C   UNL     1      -4.093  -0.827  24.621  0.00  0.00    -0.023 C 
ATOM     20  C   UNL     1      -3.610  -1.722  25.726  0.00  0.00    +0.037 C 
ATOM     21  C   UNL     1      -3.830  -3.119  25.147  0.00  0.00    +0.009 C 
ATOM     22  C   UNL     1      -3.854  -2.945  23.632  0.00  0.00    +0.028 C 
ATOM     23  C   UNL     1      -4.223  -1.508  23.474  0.00  0.00    -0.021 C 
ENDBRANCH  17  19
ENDBRANCH  14   3
ENDBRANCH   8  14
TORSDOF 5
ENDMDL
