MODEL 1
REMARK VINA RESULT:      -5.0      0.000      0.000
REMARK  Name = 25338995
REMARK  9 active torsions:
REMARK  status: ('A' for Active; 'I' for Inactive)
REMARK    1  A    between atoms: S_1  and  N_9
REMARK    2  A    between atoms: S_1  and  C_20
REMARK    3  A    between atoms: O_7  and  C_19
REMARK    4  A    between atoms: O_7  and  C_28
REMARK    5  A    between atoms: N_10  and  C_17
REMARK    6  A    between atoms: C_12  and  C_19
REMARK    7  A    between atoms: C_17  and  C_21
REMARK    8  A    between atoms: C_17  and  C_22
REMARK    9  A    between atoms: C_25  and  C_29
REMARK                            x       y       z     vdW  Elec       q    Type
REMARK                         _______ _______ _______ _____ _____    ______ ____
ROOT
ATOM      9  N   UNL     1      -0.091   0.140  25.078  0.00  0.00    -0.157 NA
ATOM     10  N   UNL     1      -2.085   3.264  24.527  0.00  0.00    -0.330 N 
ATOM     11  N   UNL     1      -2.615   2.315  22.574  0.00  0.00    -0.240 NA
ATOM     12  C   UNL     1       0.085  -0.147  23.606  0.00  0.00    +0.194 C 
ATOM     13  C   UNL     1      -0.399   1.579  25.432  0.00  0.00    +0.165 C 
ATOM     14  C   UNL     1      -1.361   2.112  24.449  0.00  0.00    +0.057 A 
ATOM     15  C   UNL     1      -1.140   0.265  22.766  0.00  0.00    +0.089 C 
ATOM     16  C   UNL     1      -1.700   1.551  23.242  0.00  0.00    +0.066 A 
ATOM     18  C   UNL     1      -2.826   3.342  23.374  0.00  0.00    +0.200 A 
ENDROOT
BRANCH   9   1
ATOM      1  S   UNL     1      -0.956  -1.047  25.968  0.00  0.00    +0.062 S 
ATOM      5  O   UNL     1      -1.108  -0.594  27.333  0.00  0.00    -0.153 OA
ATOM      6  O   UNL     1      -0.404  -2.350  25.671  0.00  0.00    -0.153 OA
BRANCH   1  20
ATOM     20  C   UNL     1      -2.532  -0.932  25.181  0.00  0.00    +0.106 A 
ATOM     23  C   UNL     1      -3.365   0.157  25.443  0.00  0.00    +0.041 A 
ATOM     24  C   UNL     1      -2.944  -1.929  24.297  0.00  0.00    +0.028 A 
ATOM     25  C   UNL     1      -4.610   0.247  24.820  0.00  0.00    +0.057 A 
ATOM     26  C   UNL     1      -4.189  -1.838  23.674  0.00  0.00    +0.002 A 
ATOM     27  C   UNL     1      -5.022  -0.751  23.937  0.00  0.00    +0.012 A 
BRANCH  25  29
ATOM      2  F   UNL     1      -5.550   1.727  26.426  0.00  0.00    -0.166 F 
ATOM      3  F   UNL     1      -5.122   2.555  24.462  0.00  0.00    -0.166 F 
ATOM      4  F   UNL     1      -6.799   1.206  24.724  0.00  0.00    -0.166 F 
ATOM     29  C   UNL     1      -5.501   1.409  25.100  0.00  0.00    +0.417 C 
ENDBRANCH  25  29
ENDBRANCH   1  20
ENDBRANCH   9   1
BRANCH  10  17
ATOM     17  C   UNL     1      -2.081   4.228  25.599  0.00  0.00    +0.082 C 
ATOM     21  C   UNL     1      -3.441   4.300  26.298  0.00  0.00    +0.030 C 
ATOM     22  C   UNL     1      -1.645   5.612  25.111  0.00  0.00    +0.030 C 
ENDBRANCH  10  17
BRANCH  12  19
ATOM      8  O   UNL     1       1.737   1.601  23.670  0.00  0.00    -0.249 OA
ATOM     19  C   UNL     1       1.337   0.554  23.179  0.00  0.00    +0.326 C 
BRANCH  19   7
ATOM      7  O   UNL     1       1.937  -0.153  22.180  0.00  0.00    -0.467 OA
ATOM     28  C   UNL     1       3.305   0.183  21.925  0.00  0.00    +0.280 C 
ENDBRANCH  19   7
ENDBRANCH  12  19
TORSDOF 6
ENDMDL
MODEL 2
REMARK VINA RESULT:      -4.0      2.844      4.962
REMARK  Name = 25338995
REMARK  9 active torsions:
REMARK  status: ('A' for Active; 'I' for Inactive)
REMARK    1  A    between atoms: S_1  and  N_9
REMARK    2  A    between atoms: S_1  and  C_20
REMARK    3  A    between atoms: O_7  and  C_19
REMARK    4  A    between atoms: O_7  and  C_28
REMARK    5  A    between atoms: N_10  and  C_17
REMARK    6  A    between atoms: C_12  and  C_19
REMARK    7  A    between atoms: C_17  and  C_21
REMARK    8  A    between atoms: C_17  and  C_22
REMARK    9  A    between atoms: C_25  and  C_29
REMARK                            x       y       z     vdW  Elec       q    Type
REMARK                         _______ _______ _______ _____ _____    ______ ____
ROOT
ATOM      9  N   UNL     1      -1.363   2.653  23.699  0.00  0.00    -0.157 NA
ATOM     10  N   UNL     1       0.663  -0.498  23.614  0.00  0.00    -0.330 N 
ATOM     11  N   UNL     1      -0.423  -0.984  25.505  0.00  0.00    -0.240 NA
ATOM     12  C   UNL     1      -1.554   2.628  25.196  0.00  0.00    +0.194 C 
ATOM     13  C   UNL     1      -0.177   1.870  23.177  0.00  0.00    +0.165 C 
ATOM     14  C   UNL     1      -0.090   0.597  23.918  0.00  0.00    +0.057 A 
ATOM     15  C   UNL     1      -1.684   1.198  25.758  0.00  0.00    +0.089 C 
ATOM     16  C   UNL     1      -0.742   0.276  25.083  0.00  0.00    +0.066 A 
ATOM     18  C   UNL     1       0.427  -1.424  24.599  0.00  0.00    +0.200 A 
ENDROOT
BRANCH   9   1
ATOM      1  S   UNL     1      -2.798   2.540  22.764  0.00  0.00    +0.062 S 
ATOM      5  O   UNL     1      -2.485   1.929  21.491  0.00  0.00    -0.153 OA
ATOM      6  O   UNL     1      -3.504   3.801  22.834  0.00  0.00    -0.153 OA
BRANCH   1  20
ATOM     20  C   UNL     1      -3.697   1.362  23.723  0.00  0.00    +0.106 A 
ATOM     23  C   UNL     1      -3.381   0.005  23.636  0.00  0.00    +0.041 A 
ATOM     24  C   UNL     1      -4.721   1.786  24.569  0.00  0.00    +0.028 A 
ATOM     25  C   UNL     1      -4.091  -0.925  24.395  0.00  0.00    +0.057 A 
ATOM     26  C   UNL     1      -5.431   0.855  25.327  0.00  0.00    +0.002 A 
ATOM     27  C   UNL     1      -5.116  -0.501  25.239  0.00  0.00    +0.012 A 
BRANCH  25  29
ATOM      2  F   UNL     1      -3.747  -2.992  25.520  0.00  0.00    -0.166 F 
ATOM      3  F   UNL     1      -4.628  -3.092  23.535  0.00  0.00    -0.166 F 
ATOM      4  F   UNL     1      -2.524  -2.618  23.761  0.00  0.00    -0.166 F 
ATOM     29  C   UNL     1      -3.755  -2.376  24.302  0.00  0.00    +0.417 C 
ENDBRANCH  25  29
ENDBRANCH   1  20
ENDBRANCH   9   1
BRANCH  10  17
ATOM     17  C   UNL     1       1.545  -0.666  22.485  0.00  0.00    +0.082 C 
ATOM     21  C   UNL     1       2.730   0.301  22.547  0.00  0.00    +0.030 C 
ATOM     22  C   UNL     1       0.795  -0.524  21.158  0.00  0.00    +0.030 C 
ENDBRANCH  10  17
BRANCH  12  19
ATOM      8  O   UNL     1       0.404   2.886  26.570  0.00  0.00    -0.249 OA
ATOM     19  C   UNL     1      -0.401   3.376  25.789  0.00  0.00    +0.326 C 
BRANCH  19   7
ATOM      7  O   UNL     1      -0.400   4.658  25.324  0.00  0.00    -0.467 OA
ATOM     28  C   UNL     1      -1.682   5.291  25.264  0.00  0.00    +0.280 C 
ENDBRANCH  19   7
ENDBRANCH  12  19
TORSDOF 6
ENDMDL
MODEL 3
REMARK VINA RESULT:      -3.8      1.721      4.256
REMARK  Name = 25338995
REMARK  9 active torsions:
REMARK  status: ('A' for Active; 'I' for Inactive)
REMARK    1  A    between atoms: S_1  and  N_9
REMARK    2  A    between atoms: S_1  and  C_20
REMARK    3  A    between atoms: O_7  and  C_19
REMARK    4  A    between atoms: O_7  and  C_28
REMARK    5  A    between atoms: N_10  and  C_17
REMARK    6  A    between atoms: C_12  and  C_19
REMARK    7  A    between atoms: C_17  and  C_21
REMARK    8  A    between atoms: C_17  and  C_22
REMARK    9  A    between atoms: C_25  and  C_29
REMARK                            x       y       z     vdW  Elec       q    Type
REMARK                         _______ _______ _______ _____ _____    ______ ____
ROOT
ATOM      9  N   UNL     1      -0.224   1.105  24.353  0.00  0.00    -0.157 NA
ATOM     10  N   UNL     1      -2.818  -1.594  24.193  0.00  0.00    -0.330 N 
ATOM     11  N   UNL     1      -1.156  -2.924  24.873  0.00  0.00    -0.240 NA
ATOM     12  C   UNL     1       0.938   0.162  24.156  0.00  0.00    +0.194 C 
ATOM     13  C   UNL     1      -1.566   0.602  23.863  0.00  0.00    +0.165 C 
ATOM     14  C   UNL     1      -1.694  -0.823  24.221  0.00  0.00    +0.057 A 
ATOM     15  C   UNL     1       0.711  -1.213  24.817  0.00  0.00    +0.089 C 
ATOM     16  C   UNL     1      -0.690  -1.661  24.637  0.00  0.00    +0.066 A 
ATOM     18  C   UNL     1      -2.442  -2.852  24.595  0.00  0.00    +0.200 A 
ENDROOT
BRANCH   9   1
ATOM      1  S   UNL     1      -0.247   1.955  25.844  0.00  0.00    +0.062 S 
ATOM      5  O   UNL     1       1.007   2.658  26.006  0.00  0.00    -0.153 OA
ATOM      6  O   UNL     1      -0.748   1.075  26.877  0.00  0.00    -0.153 OA
BRANCH   1  20
ATOM     20  C   UNL     1      -1.497   3.151  25.496  0.00  0.00    +0.106 A 
ATOM     23  C   UNL     1      -2.845   2.810  25.622  0.00  0.00    +0.041 A 
ATOM     24  C   UNL     1      -1.139   4.438  25.096  0.00  0.00    +0.028 A 
ATOM     25  C   UNL     1      -3.832   3.756  25.348  0.00  0.00    +0.057 A 
ATOM     26  C   UNL     1      -2.127   5.384  24.821  0.00  0.00    +0.002 A 
ATOM     27  C   UNL     1      -3.473   5.042  24.946  0.00  0.00    +0.012 A 
BRANCH  25  29
ATOM      2  F   UNL     1      -6.089   4.484  25.521  0.00  0.00    -0.166 F 
ATOM      3  F   UNL     1      -5.740   2.622  24.455  0.00  0.00    -0.166 F 
ATOM      4  F   UNL     1      -5.554   2.682  26.615  0.00  0.00    -0.166 F 
ATOM     29  C   UNL     1      -5.272   3.392  25.481  0.00  0.00    +0.417 C 
ENDBRANCH  25  29
ENDBRANCH   1  20
ENDBRANCH   9   1
BRANCH  10  17
ATOM     17  C   UNL     1      -4.147  -1.188  23.811  0.00  0.00    +0.082 C 
ATOM     21  C   UNL     1      -4.769  -0.248  24.848  0.00  0.00    +0.030 C 
ATOM     22  C   UNL     1      -5.054  -2.394  23.556  0.00  0.00    +0.030 C 
ENDBRANCH  10  17
BRANCH  12  19
ATOM      8  O   UNL     1       0.273   0.139  21.844  0.00  0.00    -0.249 OA
ATOM     19  C   UNL     1       1.163   0.059  22.680  0.00  0.00    +0.326 C 
BRANCH  19   7
ATOM      7  O   UNL     1       2.491  -0.132  22.433  0.00  0.00    -0.467 OA
ATOM     28  C   UNL     1       3.344   0.965  22.774  0.00  0.00    +0.280 C 
ENDBRANCH  19   7
ENDBRANCH  12  19
TORSDOF 6
ENDMDL
MODEL 4
REMARK VINA RESULT:      -2.7      2.002      4.935
REMARK  Name = 25338995
REMARK  9 active torsions:
REMARK  status: ('A' for Active; 'I' for Inactive)
REMARK    1  A    between atoms: S_1  and  N_9
REMARK    2  A    between atoms: S_1  and  C_20
REMARK    3  A    between atoms: O_7  and  C_19
REMARK    4  A    between atoms: O_7  and  C_28
REMARK    5  A    between atoms: N_10  and  C_17
REMARK    6  A    between atoms: C_12  and  C_19
REMARK    7  A    between atoms: C_17  and  C_21
REMARK    8  A    between atoms: C_17  and  C_22
REMARK    9  A    between atoms: C_25  and  C_29
REMARK                            x       y       z     vdW  Elec       q    Type
REMARK                         _______ _______ _______ _____ _____    ______ ____
ROOT
ATOM      9  N   UNL     1      -0.605   1.494  24.725  0.00  0.00    -0.157 NA
ATOM     10  N   UNL     1       2.321   0.120  22.830  0.00  0.00    -0.330 N 
ATOM     11  N   UNL     1       0.762  -0.692  21.450  0.00  0.00    -0.240 NA
ATOM     12  C   UNL     1      -1.572   0.450  24.219  0.00  0.00    +0.194 C 
ATOM     13  C   UNL     1       0.859   1.112  24.668  0.00  0.00    +0.165 C 
ATOM     14  C   UNL     1       1.115   0.415  23.394  0.00  0.00    +0.057 A 
ATOM     15  C   UNL     1      -1.281   0.019  22.767  0.00  0.00    +0.089 C 
ATOM     16  C   UNL     1       0.177  -0.097  22.532  0.00  0.00    +0.066 A 
ATOM     18  C   UNL     1       2.055  -0.546  21.660  0.00  0.00    +0.200 A 
ENDROOT
BRANCH   9   1
ATOM      1  S   UNL     1      -0.969   3.115  24.293  0.00  0.00    +0.062 S 
ATOM      5  O   UNL     1      -1.181   3.185  22.863  0.00  0.00    -0.153 OA
ATOM      6  O   UNL     1      -0.033   3.998  24.953  0.00  0.00    -0.153 OA
BRANCH   1  20
ATOM     20  C   UNL     1      -2.538   3.297  25.081  0.00  0.00    +0.106 A 
ATOM     23  C   UNL     1      -3.549   2.364  24.847  0.00  0.00    +0.041 A 
ATOM     24  C   UNL     1      -2.767   4.373  25.938  0.00  0.00    +0.028 A 
ATOM     25  C   UNL     1      -4.788   2.509  25.471  0.00  0.00    +0.057 A 
ATOM     26  C   UNL     1      -4.006   4.518  26.562  0.00  0.00    +0.002 A 
ATOM     27  C   UNL     1      -5.017   3.586  26.327  0.00  0.00    +0.012 A 
BRANCH  25  29
ATOM      2  F   UNL     1      -5.400   0.348  24.689  0.00  0.00    -0.166 F 
ATOM      3  F   UNL     1      -6.552   1.152  26.348  0.00  0.00    -0.166 F 
ATOM      4  F   UNL     1      -6.828   1.953  24.351  0.00  0.00    -0.166 F 
ATOM     29  C   UNL     1      -5.870   1.513  25.221  0.00  0.00    +0.417 C 
ENDBRANCH  25  29
ENDBRANCH   1  20
ENDBRANCH   9   1
BRANCH  10  17
ATOM     17  C   UNL     1       3.629   0.434  23.350  0.00  0.00    +0.082 C 
ATOM     21  C   UNL     1       4.411   1.342  22.398  0.00  0.00    +0.030 C 
ATOM     22  C   UNL     1       4.426  -0.833  23.671  0.00  0.00    +0.030 C 
ENDBRANCH  10  17
BRANCH  12  19
ATOM      8  O   UNL     1      -1.179  -0.587  26.355  0.00  0.00    -0.249 OA
ATOM     19  C   UNL     1      -1.510  -0.695  25.182  0.00  0.00    +0.326 C 
BRANCH  19   7
ATOM      7  O   UNL     1      -1.875  -1.845  24.547  0.00  0.00    -0.467 OA
ATOM     28  C   UNL     1      -3.180  -2.338  24.870  0.00  0.00    +0.280 C 
ENDBRANCH  19   7
ENDBRANCH  12  19
TORSDOF 6
ENDMDL
MODEL 5
REMARK VINA RESULT:      -2.5      3.910      5.647
REMARK  Name = 25338995
REMARK  9 active torsions:
REMARK  status: ('A' for Active; 'I' for Inactive)
REMARK    1  A    between atoms: S_1  and  N_9
REMARK    2  A    between atoms: S_1  and  C_20
REMARK    3  A    between atoms: O_7  and  C_19
REMARK    4  A    between atoms: O_7  and  C_28
REMARK    5  A    between atoms: N_10  and  C_17
REMARK    6  A    between atoms: C_12  and  C_19
REMARK    7  A    between atoms: C_17  and  C_21
REMARK    8  A    between atoms: C_17  and  C_22
REMARK    9  A    between atoms: C_25  and  C_29
REMARK                            x       y       z     vdW  Elec       q    Type
REMARK                         _______ _______ _______ _____ _____    ______ ____
ROOT
ATOM      9  N   UNL     1      -0.830   0.704  25.216  0.00  0.00    -0.157 NA
ATOM     10  N   UNL     1      -4.245   2.034  24.435  0.00  0.00    -0.330 N 
ATOM     11  N   UNL     1      -3.249   2.912  22.637  0.00  0.00    -0.240 NA
ATOM     12  C   UNL     1      -0.106   1.782  24.445  0.00  0.00    +0.194 C 
ATOM     13  C   UNL     1      -2.237   1.048  25.658  0.00  0.00    +0.165 C 
ATOM     14  C   UNL     1      -2.915   1.762  24.559  0.00  0.00    +0.057 A 
ATOM     15  C   UNL     1      -0.871   2.231  23.183  0.00  0.00    +0.089 C 
ATOM     16  C   UNL     1      -2.326   2.313  23.448  0.00  0.00    +0.066 A 
ATOM     18  C   UNL     1      -4.396   2.728  23.260  0.00  0.00    +0.200 A 
ENDROOT
BRANCH   9   1
ATOM      1  S   UNL     1      -0.600  -0.899  24.646  0.00  0.00    +0.062 S 
ATOM      5  O   UNL     1      -1.780  -1.315  23.921  0.00  0.00    -0.153 OA
ATOM      6  O   UNL     1      -0.060  -1.705  25.719  0.00  0.00    -0.153 OA
BRANCH   1  20
ATOM     20  C   UNL     1       0.688  -0.625  23.471  0.00  0.00    +0.106 A 
ATOM     23  C   UNL     1       2.010  -0.501  23.901  0.00  0.00    +0.041 A 
ATOM     24  C   UNL     1       0.386  -0.534  22.113  0.00  0.00    +0.028 A 
ATOM     25  C   UNL     1       3.028  -0.285  22.972  0.00  0.00    +0.057 A 
ATOM     26  C   UNL     1       1.404  -0.318  21.184  0.00  0.00    +0.002 A 
ATOM     27  C   UNL     1       2.725  -0.193  21.614  0.00  0.00    +0.012 A 
BRANCH  25  29
ATOM      2  F   UNL     1       5.303   0.116  22.407  0.00  0.00    -0.166 F 
ATOM      3  F   UNL     1       4.629   0.851  24.339  0.00  0.00    -0.166 F 
ATOM      4  F   UNL     1       4.928  -1.276  24.035  0.00  0.00    -0.166 F 
ATOM     29  C   UNL     1       4.441  -0.152  23.431  0.00  0.00    +0.417 C 
ENDBRANCH  25  29
ENDBRANCH   1  20
ENDBRANCH   9   1
BRANCH  10  17
ATOM     17  C   UNL     1      -5.300   1.678  25.351  0.00  0.00    +0.082 C 
ATOM     21  C   UNL     1      -6.583   1.290  24.611  0.00  0.00    +0.030 C 
ATOM     22  C   UNL     1      -5.570   2.795  26.361  0.00  0.00    +0.030 C 
ENDBRANCH  10  17
BRANCH  12  19
ATOM      8  O   UNL     1       0.529   2.757  26.551  0.00  0.00    -0.249 OA
ATOM     19  C   UNL     1       0.134   2.907  25.402  0.00  0.00    +0.326 C 
BRANCH  19   7
ATOM      7  O   UNL     1      -0.155   4.093  24.794  0.00  0.00    -0.467 OA
ATOM     28  C   UNL     1      -1.251   4.822  25.356  0.00  0.00    +0.280 C 
ENDBRANCH  19   7
ENDBRANCH  12  19
TORSDOF 6
ENDMDL
MODEL 6
REMARK VINA RESULT:      -2.3      2.205      4.399
REMARK  Name = 25338995
REMARK  9 active torsions:
REMARK  status: ('A' for Active; 'I' for Inactive)
REMARK    1  A    between atoms: S_1  and  N_9
REMARK    2  A    between atoms: S_1  and  C_20
REMARK    3  A    between atoms: O_7  and  C_19
REMARK    4  A    between atoms: O_7  and  C_28
REMARK    5  A    between atoms: N_10  and  C_17
REMARK    6  A    between atoms: C_12  and  C_19
REMARK    7  A    between atoms: C_17  and  C_21
REMARK    8  A    between atoms: C_17  and  C_22
REMARK    9  A    between atoms: C_25  and  C_29
REMARK                            x       y       z     vdW  Elec       q    Type
REMARK                         _______ _______ _______ _____ _____    ______ ____
ROOT
ATOM      9  N   UNL     1      -2.073  -0.804  24.354  0.00  0.00    -0.157 NA
ATOM     10  N   UNL     1      -4.422   2.065  23.811  0.00  0.00    -0.330 N 
ATOM     11  N   UNL     1      -5.470   1.258  25.612  0.00  0.00    -0.240 NA
ATOM     12  C   UNL     1      -3.091  -1.653  25.076  0.00  0.00    +0.194 C 
ATOM     13  C   UNL     1      -2.640   0.276  23.456  0.00  0.00    +0.165 C 
ATOM     14  C   UNL     1      -3.784   0.907  24.141  0.00  0.00    +0.057 A 
ATOM     15  C   UNL     1      -4.060  -0.820  25.940  0.00  0.00    +0.089 C 
ATOM     16  C   UNL     1      -4.447   0.430  25.245  0.00  0.00    +0.066 A 
ATOM     18  C   UNL     1      -5.430   2.234  24.727  0.00  0.00    +0.200 A 
ENDROOT
BRANCH   9   1
ATOM      1  S   UNL     1      -0.691  -0.361  25.271  0.00  0.00    +0.062 S 
ATOM      5  O   UNL     1       0.497  -0.811  24.580  0.00  0.00    -0.153 OA
ATOM      6  O   UNL     1      -0.921  -0.698  26.659  0.00  0.00    -0.153 OA
BRANCH   1  20
ATOM     20  C   UNL     1      -0.772   1.396  25.118  0.00  0.00    +0.106 A 
ATOM     23  C   UNL     1      -1.718   2.117  25.848  0.00  0.00    +0.041 A 
ATOM     24  C   UNL     1       0.109   2.064  24.269  0.00  0.00    +0.028 A 
ATOM     25  C   UNL     1      -1.781   3.505  25.728  0.00  0.00    +0.057 A 
ATOM     26  C   UNL     1       0.046   3.452  24.148  0.00  0.00    +0.002 A 
ATOM     27  C   UNL     1      -0.900   4.172  24.877  0.00  0.00    +0.012 A 
BRANCH  25  29
ATOM      2  F   UNL     1      -2.694   4.063  27.852  0.00  0.00    -0.166 F 
ATOM      3  F   UNL     1      -2.693   5.629  26.344  0.00  0.00    -0.166 F 
ATOM      4  F   UNL     1      -4.083   3.972  26.181  0.00  0.00    -0.166 F 
ATOM     29  C   UNL     1      -2.792   4.277  26.507  0.00  0.00    +0.417 C 
ENDBRANCH  25  29
ENDBRANCH   1  20
ENDBRANCH   9   1
BRANCH  10  17
ATOM     17  C   UNL     1      -4.116   2.948  22.713  0.00  0.00    +0.082 C 
ATOM     21  C   UNL     1      -2.814   2.549  22.014  0.00  0.00    +0.030 C 
ATOM     22  C   UNL     1      -4.067   4.410  23.163  0.00  0.00    +0.030 C 
ENDBRANCH  10  17
BRANCH  12  19
ATOM      8  O   UNL     1      -4.962  -2.270  23.694  0.00  0.00    -0.249 OA
ATOM     19  C   UNL     1      -3.800  -2.456  24.030  0.00  0.00    +0.326 C 
BRANCH  19   7
ATOM      7  O   UNL     1      -2.955  -3.402  23.530  0.00  0.00    -0.467 OA
ATOM     28  C   UNL     1      -1.664  -3.461  24.146  0.00  0.00    +0.280 C 
ENDBRANCH  19   7
ENDBRANCH  12  19
TORSDOF 6
ENDMDL
MODEL 7
REMARK VINA RESULT:      -1.8      2.526      3.997
REMARK  Name = 25338995
REMARK  9 active torsions:
REMARK  status: ('A' for Active; 'I' for Inactive)
REMARK    1  A    between atoms: S_1  and  N_9
REMARK    2  A    between atoms: S_1  and  C_20
REMARK    3  A    between atoms: O_7  and  C_19
REMARK    4  A    between atoms: O_7  and  C_28
REMARK    5  A    between atoms: N_10  and  C_17
REMARK    6  A    between atoms: C_12  and  C_19
REMARK    7  A    between atoms: C_17  and  C_21
REMARK    8  A    between atoms: C_17  and  C_22
REMARK    9  A    between atoms: C_25  and  C_29
REMARK                            x       y       z     vdW  Elec       q    Type
REMARK                         _______ _______ _______ _____ _____    ______ ____
ROOT
ATOM      9  N   UNL     1      -0.441   1.611  25.472  0.00  0.00    -0.157 NA
ATOM     10  N   UNL     1      -3.439   3.857  25.499  0.00  0.00    -0.330 N 
ATOM     11  N   UNL     1      -1.955   5.474  25.080  0.00  0.00    -0.240 NA
ATOM     12  C   UNL     1       0.529   2.706  25.847  0.00  0.00    +0.194 C 
ATOM     13  C   UNL     1      -1.887   1.863  25.839  0.00  0.00    +0.165 C 
ATOM     14  C   UNL     1      -2.209   3.273  25.550  0.00  0.00    +0.057 A 
ATOM     15  C   UNL     1       0.149   4.073  25.243  0.00  0.00    +0.089 C 
ATOM     16  C   UNL     1      -1.317   4.285  25.294  0.00  0.00    +0.066 A 
ATOM     18  C   UNL     1      -3.234   5.184  25.212  0.00  0.00    +0.200 A 
ENDROOT
BRANCH   9   1
ATOM      1  S   UNL     1      -0.178   0.879  23.941  0.00  0.00    +0.062 S 
ATOM      5  O   UNL     1       1.241   0.671  23.755  0.00  0.00    -0.153 OA
ATOM      6  O   UNL     1      -0.968   1.573  22.948  0.00  0.00    -0.153 OA
BRANCH   1  20
ATOM     20  C   UNL     1      -0.923  -0.697  24.223  0.00  0.00    +0.106 A 
ATOM     23  C   UNL     1      -2.267  -0.900  23.906  0.00  0.00    +0.041 A 
ATOM     24  C   UNL     1      -0.168  -1.739  24.761  0.00  0.00    +0.028 A 
ATOM     25  C   UNL     1      -2.854  -2.145  24.129  0.00  0.00    +0.057 A 
ATOM     26  C   UNL     1      -0.756  -2.984  24.983  0.00  0.00    +0.002 A 
ATOM     27  C   UNL     1      -2.100  -3.187  24.668  0.00  0.00    +0.012 A 
BRANCH  25  29
ATOM      2  F   UNL     1      -4.806  -3.481  24.382  0.00  0.00    -0.166 F 
ATOM      3  F   UNL     1      -5.105  -1.337  24.176  0.00  0.00    -0.166 F 
ATOM      4  F   UNL     1      -4.521  -2.518  22.453  0.00  0.00    -0.166 F 
ATOM     29  C   UNL     1      -4.291  -2.363  23.791  0.00  0.00    +0.417 C 
ENDBRANCH  25  29
ENDBRANCH   1  20
ENDBRANCH   9   1
BRANCH  10  17
ATOM     17  C   UNL     1      -4.717   3.222  25.709  0.00  0.00    +0.082 C 
ATOM     21  C   UNL     1      -4.932   2.054  24.744  0.00  0.00    +0.030 C 
ATOM     22  C   UNL     1      -5.868   4.227  25.613  0.00  0.00    +0.030 C 
ENDBRANCH  10  17
BRANCH  12  19
ATOM      8  O   UNL     1      -0.388   2.591  28.069  0.00  0.00    -0.249 OA
ATOM     19  C   UNL     1       0.587   2.734  27.342  0.00  0.00    +0.326 C 
BRANCH  19   7
ATOM      7  O   UNL     1       1.873   2.940  27.745  0.00  0.00    -0.467 OA
ATOM     28  C   UNL     1       2.129   2.695  29.132  0.00  0.00    +0.280 C 
ENDBRANCH  19   7
ENDBRANCH  12  19
TORSDOF 6
ENDMDL
MODEL 8
REMARK VINA RESULT:      -1.6      2.701      4.806
REMARK  Name = 25338995
REMARK  9 active torsions:
REMARK  status: ('A' for Active; 'I' for Inactive)
REMARK    1  A    between atoms: S_1  and  N_9
REMARK    2  A    between atoms: S_1  and  C_20
REMARK    3  A    between atoms: O_7  and  C_19
REMARK    4  A    between atoms: O_7  and  C_28
REMARK    5  A    between atoms: N_10  and  C_17
REMARK    6  A    between atoms: C_12  and  C_19
REMARK    7  A    between atoms: C_17  and  C_21
REMARK    8  A    between atoms: C_17  and  C_22
REMARK    9  A    between atoms: C_25  and  C_29
REMARK                            x       y       z     vdW  Elec       q    Type
REMARK                         _______ _______ _______ _____ _____    ______ ____
ROOT
ATOM      9  N   UNL     1       0.011   3.416  25.398  0.00  0.00    -0.157 NA
ATOM     10  N   UNL     1       0.672   0.174  23.638  0.00  0.00    -0.330 N 
ATOM     11  N   UNL     1      -0.866  -0.643  25.038  0.00  0.00    -0.240 NA
ATOM     12  C   UNL     1      -0.467   2.762  26.672  0.00  0.00    +0.194 C 
ATOM     13  C   UNL     1       0.891   2.560  24.512  0.00  0.00    +0.165 C 
ATOM     14  C   UNL     1       0.344   1.190  24.486  0.00  0.00    +0.057 A 
ATOM     15  C   UNL     1      -1.234   1.448  26.419  0.00  0.00    +0.089 C 
ATOM     16  C   UNL     1      -0.596   0.663  25.337  0.00  0.00    +0.066 A 
ATOM     18  C   UNL     1      -0.084  -0.909  24.011  0.00  0.00    +0.200 A 
ENDROOT
BRANCH   9   1
ATOM      1  S   UNL     1      -1.147   4.385  24.582  0.00  0.00    +0.062 S 
ATOM      5  O   UNL     1      -0.574   4.862  23.342  0.00  0.00    -0.153 OA
ATOM      6  O   UNL     1      -1.743   5.302  25.529  0.00  0.00    -0.153 OA
BRANCH   1  20
ATOM     20  C   UNL     1      -2.351   3.157  24.184  0.00  0.00    +0.106 A 
ATOM     23  C   UNL     1      -3.502   3.030  24.963  0.00  0.00    +0.041 A 
ATOM     24  C   UNL     1      -2.152   2.313  23.092  0.00  0.00    +0.028 A 
ATOM     25  C   UNL     1      -4.453   2.059  24.648  0.00  0.00    +0.057 A 
ATOM     26  C   UNL     1      -3.103   1.342  22.777  0.00  0.00    +0.002 A 
ATOM     27  C   UNL     1      -4.253   1.215  23.556  0.00  0.00    +0.012 A 
BRANCH  25  29
ATOM      2  F   UNL     1      -6.814   1.790  24.727  0.00  0.00    -0.166 F 
ATOM      3  F   UNL     1      -5.666   0.838  26.308  0.00  0.00    -0.166 F 
ATOM      4  F   UNL     1      -5.912   2.993  26.298  0.00  0.00    -0.166 F 
ATOM     29  C   UNL     1      -5.684   1.923  25.479  0.00  0.00    +0.417 C 
ENDBRANCH  25  29
ENDBRANCH   1  20
ENDBRANCH   9   1
BRANCH  10  17
ATOM     17  C   UNL     1       1.629   0.211  22.560  0.00  0.00    +0.082 C 
ATOM     21  C   UNL     1       1.191  -0.670  21.388  0.00  0.00    +0.030 C 
ATOM     22  C   UNL     1       3.031  -0.176  23.038  0.00  0.00    +0.030 C 
ENDBRANCH  10  17
BRANCH  12  19
ATOM      8  O   UNL     1       1.893   2.696  27.137  0.00  0.00    -0.249 OA
ATOM     19  C   UNL     1       0.742   2.563  27.532  0.00  0.00    +0.326 C 
BRANCH  19   7
ATOM      7  O   UNL     1       0.354   2.220  28.793  0.00  0.00    -0.467 OA
ATOM     28  C   UNL     1       1.351   2.380  29.808  0.00  0.00    +0.280 C 
ENDBRANCH  19   7
ENDBRANCH  12  19
TORSDOF 6
ENDMDL
