MODEL 1
REMARK VINA RESULT:      -7.7      0.000      0.000
REMARK  Name = 38027309
REMARK  10 active torsions:
REMARK  status: ('A' for Active; 'I' for Inactive)
REMARK    1  A    between atoms: N_3  and  C_12
REMARK    2  A    between atoms: N_4  and  C_19
REMARK    3  A    between atoms: C_5  and  C_9
REMARK    4  A    between atoms: C_6  and  C_12
REMARK    5  A    between atoms: C_8  and  C_14
REMARK    6  A    between atoms: C_9  and  C_17
REMARK    7  A    between atoms: C_9  and  C_18
REMARK    8  A    between atoms: C_10  and  C_21
REMARK    9  A    between atoms: C_13  and  C_20
REMARK   10  A    between atoms: C_14  and  C_24
REMARK                            x       y       z     vdW  Elec       q    Type
REMARK                         _______ _______ _______ _____ _____    ______ ____
ROOT
ATOM      5  C   UNL     1      -0.656   0.902  24.431  0.00  0.00    +0.000 C 
ATOM      6  C   UNL     1       0.230  -0.311  24.055  0.00  0.00    +0.032 C 
ATOM      7  C   UNL     1      -1.647   0.519  25.542  0.00  0.00    +0.012 C 
ATOM      8  C   UNL     1      -2.565  -0.647  25.126  0.00  0.00    +0.023 C 
ATOM     10  C   UNL     1      -1.784  -1.782  24.494  0.00  0.00    -0.073 C 
ATOM     11  C   UNL     1      -0.531  -1.617  24.034  0.00  0.00    -0.022 C 
ATOM     21  C   UNL     1      -2.459  -3.124  24.446  0.00  0.00    +0.039 C 
ENDROOT
BRANCH   5   9
ATOM      9  C   UNL     1       0.183   2.103  24.877  0.00  0.00    -0.013 C 
ATOM     17  C   UNL     1      -0.123   3.318  24.008  0.00  0.00    +0.007 C 
ATOM     18  C   UNL     1      -0.072   2.412  26.349  0.00  0.00    +0.007 C 
ENDBRANCH   5   9
BRANCH   6  12
ATOM     12  C   UNL     1       0.913  -0.098  22.700  0.00  0.00    +0.112 C 
BRANCH  12   3
ATOM      1  O   UNL     1       3.149   1.734  23.016  0.00  0.00    -0.276 OA
ATOM      3  N   UNL     1       2.302  -0.424  22.774  0.00  0.00    -0.315 N 
ATOM     20  C   UNL     1       3.310   0.523  22.926  0.00  0.00    +0.216 C 
ATOM     27  H   UNL     1       2.567  -1.404  22.758  0.00  0.00    +0.149 HD
BRANCH  20  13
ATOM     13  C   UNL     1       4.690  -0.043  22.981  0.00  0.00    +0.075 C 
ATOM     15  C   UNL     1       5.668   0.511  23.975  0.00  0.00    +0.013 C 
ATOM     16  C   UNL     1       5.097  -0.863  24.171  0.00  0.00    +0.013 C 
ENDBRANCH  20  13
ENDBRANCH  12   3
ENDBRANCH   6  12
BRANCH   8  14
ATOM     14  C   UNL     1      -3.683  -0.165  24.195  0.00  0.00    +0.103 C 
BRANCH  14  24
ATOM      2  O   UNL     1      -5.290   0.936  25.630  0.00  0.00    -0.276 OA
ATOM      4  N   UNL     1      -3.993   2.205  24.178  0.00  0.00    -0.312 N 
ATOM     24  C   UNL     1      -4.424   1.024  24.765  0.00  0.00    +0.214 C 
ATOM     28  H   UNL     1      -3.243   2.174  23.495  0.00  0.00    +0.149 HD
BRANCH   4  19
ATOM     19  C   UNL     1      -4.529   3.499  24.527  0.00  0.00    +0.073 C 
ATOM     22  C   UNL     1      -3.601   4.627  24.095  0.00  0.00    +0.022 C 
ATOM     23  C   UNL     1      -4.615   3.690  26.036  0.00  0.00    +0.022 C 
ATOM     25  C   UNL     1      -2.551   4.703  25.201  0.00  0.00    +0.002 C 
ATOM     26  C   UNL     1      -3.216   4.141  26.456  0.00  0.00    +0.002 C 
ENDBRANCH   4  19
ENDBRANCH  14  24
ENDBRANCH   8  14
TORSDOF 7
ENDMDL
MODEL 2
REMARK VINA RESULT:      -5.4      1.329      7.190
REMARK  Name = 38027309
REMARK  10 active torsions:
REMARK  status: ('A' for Active; 'I' for Inactive)
REMARK    1  A    between atoms: N_3  and  C_12
REMARK    2  A    between atoms: N_4  and  C_19
REMARK    3  A    between atoms: C_5  and  C_9
REMARK    4  A    between atoms: C_6  and  C_12
REMARK    5  A    between atoms: C_8  and  C_14
REMARK    6  A    between atoms: C_9  and  C_17
REMARK    7  A    between atoms: C_9  and  C_18
REMARK    8  A    between atoms: C_10  and  C_21
REMARK    9  A    between atoms: C_13  and  C_20
REMARK   10  A    between atoms: C_14  and  C_24
REMARK                            x       y       z     vdW  Elec       q    Type
REMARK                         _______ _______ _______ _____ _____    ______ ____
ROOT
ATOM      5  C   UNL     1      -2.303  -1.205  24.313  0.00  0.00    +0.000 C 
ATOM      6  C   UNL     1      -2.877  -0.353  25.472  0.00  0.00    +0.032 C 
ATOM      7  C   UNL     1      -0.788  -1.398  24.489  0.00  0.00    +0.012 C 
ATOM      8  C   UNL     1      -0.031  -0.058  24.532  0.00  0.00    +0.023 C 
ATOM     10  C   UNL     1      -0.699   0.938  25.459  0.00  0.00    -0.073 C 
ATOM     11  C   UNL     1      -1.967   0.782  25.880  0.00  0.00    -0.022 C 
ATOM     21  C   UNL     1       0.140   2.093  25.930  0.00  0.00    +0.039 C 
ENDROOT
BRANCH   5   9
ATOM      9  C   UNL     1      -2.991  -2.570  24.214  0.00  0.00    -0.013 C 
ATOM     17  C   UNL     1      -3.186  -3.170  25.603  0.00  0.00    +0.007 C 
ATOM     18  C   UNL     1      -4.327  -2.440  23.488  0.00  0.00    +0.007 C 
ENDBRANCH   5   9
BRANCH   6  12
ATOM     12  C   UNL     1      -4.259   0.205  25.115  0.00  0.00    +0.112 C 
BRANCH  12   3
ATOM      1  O   UNL     1      -3.321   2.012  23.040  0.00  0.00    -0.276 OA
ATOM      3  N   UNL     1      -4.253   1.634  25.142  0.00  0.00    -0.315 N 
ATOM     20  C   UNL     1      -3.782   2.422  24.098  0.00  0.00    +0.216 C 
ATOM     27  H   UNL     1      -4.654   2.101  25.950  0.00  0.00    +0.149 HD
BRANCH  20  13
ATOM     13  C   UNL     1      -3.872   3.893  24.341  0.00  0.00    +0.075 C 
ATOM     15  C   UNL     1      -3.958   4.396  25.752  0.00  0.00    +0.013 C 
ATOM     16  C   UNL     1      -2.703   4.604  24.957  0.00  0.00    +0.013 C 
ENDBRANCH  20  13
ENDBRANCH  12   3
ENDBRANCH   6  12
BRANCH   8  14
ATOM     14  C   UNL     1       0.134   0.529  23.125  0.00  0.00    +0.103 C 
BRANCH  14  24
ATOM      2  O   UNL     1       1.187  -0.562  21.240  0.00  0.00    -0.276 OA
ATOM      4  N   UNL     1       2.439  -0.104  23.144  0.00  0.00    -0.312 N 
ATOM     24  C   UNL     1       1.283  -0.107  22.376  0.00  0.00    +0.214 C 
ATOM     28  H   UNL     1       2.422   0.331  24.062  0.00  0.00    +0.149 HD
BRANCH   4  19
ATOM     19  C   UNL     1       3.692  -0.650  22.683  0.00  0.00    +0.073 C 
ATOM     22  C   UNL     1       4.399  -1.438  23.778  0.00  0.00    +0.022 C 
ATOM     23  C   UNL     1       4.700   0.443  22.349  0.00  0.00    +0.022 C 
ATOM     25  C   UNL     1       5.108  -0.378  24.617  0.00  0.00    +0.002 C 
ATOM     26  C   UNL     1       5.338   0.813  23.687  0.00  0.00    +0.002 C 
ENDBRANCH   4  19
ENDBRANCH  14  24
ENDBRANCH   8  14
TORSDOF 7
ENDMDL
MODEL 3
REMARK VINA RESULT:      -4.5      1.463      3.508
REMARK  Name = 38027309
REMARK  10 active torsions:
REMARK  status: ('A' for Active; 'I' for Inactive)
REMARK    1  A    between atoms: N_3  and  C_12
REMARK    2  A    between atoms: N_4  and  C_19
REMARK    3  A    between atoms: C_5  and  C_9
REMARK    4  A    between atoms: C_6  and  C_12
REMARK    5  A    between atoms: C_8  and  C_14
REMARK    6  A    between atoms: C_9  and  C_17
REMARK    7  A    between atoms: C_9  and  C_18
REMARK    8  A    between atoms: C_10  and  C_21
REMARK    9  A    between atoms: C_13  and  C_20
REMARK   10  A    between atoms: C_14  and  C_24
REMARK                            x       y       z     vdW  Elec       q    Type
REMARK                         _______ _______ _______ _____ _____    ______ ____
ROOT
ATOM      5  C   UNL     1      -3.045  -0.679  24.791  0.00  0.00    +0.000 C 
ATOM      6  C   UNL     1      -1.923  -0.070  23.916  0.00  0.00    +0.032 C 
ATOM      7  C   UNL     1      -4.423  -0.401  24.169  0.00  0.00    +0.012 C 
ATOM      8  C   UNL     1      -4.694   1.107  24.008  0.00  0.00    +0.023 C 
ATOM     10  C   UNL     1      -3.513   1.829  23.390  0.00  0.00    -0.073 C 
ATOM     11  C   UNL     1      -2.285   1.282  23.346  0.00  0.00    -0.022 C 
ATOM     21  C   UNL     1      -3.787   3.177  22.783  0.00  0.00    +0.039 C 
ENDROOT
BRANCH   5   9
ATOM      9  C   UNL     1      -2.860  -2.188  24.985  0.00  0.00    -0.013 C 
ATOM     17  C   UNL     1      -3.971  -2.956  24.277  0.00  0.00    +0.007 C 
ATOM     18  C   UNL     1      -1.490  -2.625  24.477  0.00  0.00    +0.007 C 
ENDBRANCH   5   9
BRANCH   6  12
ATOM     12  C   UNL     1      -0.610   0.043  24.699  0.00  0.00    +0.112 C 
BRANCH  12   3
ATOM      1  O   UNL     1       1.511   1.796  23.759  0.00  0.00    -0.276 OA
ATOM      3  N   UNL     1       0.505  -0.303  23.874  0.00  0.00    -0.315 N 
ATOM     20  C   UNL     1       1.477   0.606  23.471  0.00  0.00    +0.216 C 
ATOM     27  H   UNL     1       0.618  -1.275  23.603  0.00  0.00    +0.149 HD
BRANCH  20  13
ATOM     13  C   UNL     1       2.552   0.025  22.612  0.00  0.00    +0.075 C 
ATOM     15  C   UNL     1       3.844   0.770  22.456  0.00  0.00    +0.013 C 
ATOM     16  C   UNL     1       3.801  -0.496  23.260  0.00  0.00    +0.013 C 
ENDBRANCH  20  13
ENDBRANCH  12   3
ENDBRANCH   6  12
BRANCH   8  14
ATOM     14  C   UNL     1      -5.088   1.744  25.345  0.00  0.00    +0.103 C 
BRANCH  14  24
ATOM      2  O   UNL     1      -4.871   4.153  25.308  0.00  0.00    -0.276 OA
ATOM      4  N   UNL     1      -3.123   2.858  26.127  0.00  0.00    -0.312 N 
ATOM     24  C   UNL     1      -4.381   3.060  25.578  0.00  0.00    +0.214 C 
ATOM     28  H   UNL     1      -2.825   1.912  26.347  0.00  0.00    +0.149 HD
BRANCH   4  19
ATOM     19  C   UNL     1      -2.223   3.938  26.452  0.00  0.00    +0.073 C 
ATOM     22  C   UNL     1      -1.970   4.839  25.250  0.00  0.00    +0.022 C 
ATOM     23  C   UNL     1      -0.827   3.431  26.795  0.00  0.00    +0.022 C 
ATOM     25  C   UNL     1      -0.894   4.113  24.446  0.00  0.00    +0.002 C 
ATOM     26  C   UNL     1      -0.135   3.242  25.446  0.00  0.00    +0.002 C 
ENDBRANCH   4  19
ENDBRANCH  14  24
ENDBRANCH   8  14
TORSDOF 7
ENDMDL
