MODEL 1
REMARK VINA RESULT:      -0.0      0.000      0.000
REMARK  Name = 28961586
REMARK  7 active torsions:
REMARK  status: ('A' for Active; 'I' for Inactive)
REMARK    1  A    between atoms: O_2  and  C_13
REMARK    2  A    between atoms: O_3  and  C_20
REMARK    3  A    between atoms: N_6  and  C_11
REMARK    4  A    between atoms: N_8  and  C_17
REMARK    5  A    between atoms: C_12  and  C_17
REMARK    6  A    between atoms: C_14  and  C_20
REMARK    7  A    between atoms: C_22  and  C_23
REMARK                            x       y       z     vdW  Elec       q    Type
REMARK                         _______ _______ _______ _____ _____    ______ ____
ROOT
ATOM      1  O   UNL     1      -4.023  -0.155  25.897  0.00  0.00    -0.365 OA
ATOM     11  C   UNL     1      -2.610  -1.109  24.236  0.00  0.00    +0.118 C 
ATOM     12  C   UNL     1      -2.759  -0.836  25.738  0.00  0.00    +0.155 C 
ATOM     13  C   UNL     1      -3.456  -0.014  23.604  0.00  0.00    +0.165 C 
ATOM     14  C   UNL     1      -4.608   0.062  24.599  0.00  0.00    +0.174 C 
ENDROOT
BRANCH  11   6
ATOM      6  N   UNL     1      -1.252  -1.211  23.732  0.00  0.00    -0.292 NA
ATOM      7  N   UNL     1       1.532  -0.586  23.597  0.00  0.00    -0.297 N 
ATOM      9  N   UNL     1       3.237   0.802  22.809  0.00  0.00    -0.223 NA
ATOM     10  N   UNL     1       3.738  -1.293  23.889  0.00  0.00    -0.223 NA
ATOM     15  C   UNL     1      -0.806   0.080  23.192  0.00  0.00    +0.104 C 
ATOM     16  C   UNL     1      -0.340  -1.649  24.795  0.00  0.00    +0.104 C 
ATOM     18  C   UNL     1       0.603  -0.028  22.606  0.00  0.00    +0.123 C 
ATOM     19  C   UNL     1       1.086  -1.814  24.264  0.00  0.00    +0.123 C 
ATOM     21  C   UNL     1       2.900  -0.347  23.424  0.00  0.00    +0.218 A 
ATOM     24  C   UNL     1       4.563   0.999  22.658  0.00  0.00    +0.116 A 
ATOM     25  C   UNL     1       5.050  -1.032  23.706  0.00  0.00    +0.116 A 
ATOM     26  C   UNL     1       5.525   0.109  23.091  0.00  0.00    +0.039 A 
ENDBRANCH  11   6
BRANCH  13   2
ATOM      2  O   UNL     1      -2.757   1.224  23.560  0.00  0.00    -0.388 OA
ATOM     30  H   UNL     1      -2.476   1.434  24.466  0.00  0.00    +0.210 HD
ENDBRANCH  13   2
BRANCH  12  17
ATOM     17  C   UNL     1      -1.690   0.039  26.383  0.00  0.00    +0.137 C 
BRANCH  17   8
ATOM      4  O   UNL     1       0.402   1.970  26.011  0.00  0.00    -0.267 OA
ATOM      8  N   UNL     1      -1.850   1.411  26.002  0.00  0.00    -0.306 N 
ATOM     22  C   UNL     1      -0.775   2.282  25.843  0.00  0.00    +0.279 C 
ATOM     31  H   UNL     1      -2.792   1.761  25.856  0.00  0.00    +0.149 HD
BRANCH  22  23
ATOM      5  O   UNL     1      -2.314   4.172  25.865  0.00  0.00    -0.458 OA
ATOM     23  C   UNL     1      -1.110   3.680  25.471  0.00  0.00    +0.189 A 
ATOM     27  C   UNL     1      -0.407   4.630  24.768  0.00  0.00    +0.054 A 
ATOM     28  C   UNL     1      -1.231   5.780  24.728  0.00  0.00    +0.042 A 
ATOM     29  C   UNL     1      -2.380   5.450  25.409  0.00  0.00    +0.196 A 
ENDBRANCH  22  23
ENDBRANCH  17   8
ENDBRANCH  12  17
BRANCH  14  20
ATOM     20  C   UNL     1      -5.378   1.370  24.608  0.00  0.00    +0.190 C 
BRANCH  20   3
ATOM      3  O   UNL     1      -4.637   2.333  25.338  0.00  0.00    -0.392 OA
ATOM     32  H   UNL     1      -4.778   2.148  26.283  0.00  0.00    +0.210 HD
ENDBRANCH  20   3
ENDBRANCH  14  20
TORSDOF 7
ENDMDL
MODEL 2
REMARK VINA RESULT:       1.5      1.956      4.511
REMARK  Name = 28961586
REMARK  7 active torsions:
REMARK  status: ('A' for Active; 'I' for Inactive)
REMARK    1  A    between atoms: O_2  and  C_13
REMARK    2  A    between atoms: O_3  and  C_20
REMARK    3  A    between atoms: N_6  and  C_11
REMARK    4  A    between atoms: N_8  and  C_17
REMARK    5  A    between atoms: C_12  and  C_17
REMARK    6  A    between atoms: C_14  and  C_20
REMARK    7  A    between atoms: C_22  and  C_23
REMARK                            x       y       z     vdW  Elec       q    Type
REMARK                         _______ _______ _______ _____ _____    ______ ____
ROOT
ATOM      1  O   UNL     1      -5.105   3.977  24.592  0.00  0.00    -0.365 OA
ATOM     11  C   UNL     1      -2.932   3.834  25.554  0.00  0.00    +0.118 C 
ATOM     12  C   UNL     1      -3.705   4.075  24.251  0.00  0.00    +0.155 C 
ATOM     13  C   UNL     1      -3.898   2.991  26.374  0.00  0.00    +0.165 C 
ATOM     14  C   UNL     1      -5.227   3.628  25.985  0.00  0.00    +0.174 C 
ENDROOT
BRANCH  11   6
ATOM      6  N   UNL     1      -1.595   3.285  25.417  0.00  0.00    -0.292 NA
ATOM      7  N   UNL     1       0.495   1.792  24.167  0.00  0.00    -0.297 N 
ATOM      9  N   UNL     1       1.535  -0.265  23.786  0.00  0.00    -0.223 NA
ATOM     10  N   UNL     1       2.574   1.799  23.103  0.00  0.00    -0.223 NA
ATOM     15  C   UNL     1      -1.640   1.817  25.397  0.00  0.00    +0.104 C 
ATOM     16  C   UNL     1      -0.958   3.781  24.191  0.00  0.00    +0.104 C 
ATOM     18  C   UNL     1      -0.232   1.226  25.310  0.00  0.00    +0.123 C 
ATOM     19  C   UNL     1       0.474   3.254  24.063  0.00  0.00    +0.123 C 
ATOM     21  C   UNL     1       1.585   1.075  23.661  0.00  0.00    +0.218 A 
ATOM     24  C   UNL     1       2.602  -0.923  23.289  0.00  0.00    +0.116 A 
ATOM     25  C   UNL     1       3.609   1.078  22.626  0.00  0.00    +0.116 A 
ATOM     26  C   UNL     1       3.678  -0.299  22.692  0.00  0.00    +0.039 A 
ENDBRANCH  11   6
BRANCH  13   2
ATOM      2  O   UNL     1      -3.866   1.627  25.974  0.00  0.00    -0.388 OA
ATOM     30  H   UNL     1      -4.358   1.554  25.139  0.00  0.00    +0.210 HD
ENDBRANCH  13   2
BRANCH  12  17
ATOM     17  C   UNL     1      -3.448   3.092  23.113  0.00  0.00    +0.137 C 
BRANCH  17   8
ATOM      4  O   UNL     1      -1.956   0.816  22.197  0.00  0.00    -0.267 OA
ATOM      8  N   UNL     1      -3.592   1.739  23.559  0.00  0.00    -0.306 N 
ATOM     22  C   UNL     1      -2.823   0.692  23.059  0.00  0.00    +0.279 C 
ATOM     31  H   UNL     1      -4.298   1.539  24.262  0.00  0.00    +0.149 HD
BRANCH  22  23
ATOM      5  O   UNL     1      -2.069  -1.399  24.060  0.00  0.00    -0.458 OA
ATOM     23  C   UNL     1      -3.114  -0.658  23.606  0.00  0.00    +0.189 A 
ATOM     27  C   UNL     1      -4.295  -1.347  23.756  0.00  0.00    +0.054 A 
ATOM     28  C   UNL     1      -3.954  -2.591  24.338  0.00  0.00    +0.042 A 
ATOM     29  C   UNL     1      -2.588  -2.573  24.503  0.00  0.00    +0.196 A 
ENDBRANCH  22  23
ENDBRANCH  17   8
ENDBRANCH  12  17
BRANCH  14  20
ATOM     20  C   UNL     1      -6.452   2.752  26.176  0.00  0.00    +0.190 C 
BRANCH  20   3
ATOM      3  O   UNL     1      -6.591   1.906  25.047  0.00  0.00    -0.392 OA
ATOM     32  H   UNL     1      -5.866   1.259  25.082  0.00  0.00    +0.210 HD
ENDBRANCH  20   3
ENDBRANCH  14  20
TORSDOF 7
ENDMDL
MODEL 3
REMARK VINA RESULT:       1.6      1.939      4.305
REMARK  Name = 28961586
REMARK  7 active torsions:
REMARK  status: ('A' for Active; 'I' for Inactive)
REMARK    1  A    between atoms: O_2  and  C_13
REMARK    2  A    between atoms: O_3  and  C_20
REMARK    3  A    between atoms: N_6  and  C_11
REMARK    4  A    between atoms: N_8  and  C_17
REMARK    5  A    between atoms: C_12  and  C_17
REMARK    6  A    between atoms: C_14  and  C_20
REMARK    7  A    between atoms: C_22  and  C_23
REMARK                            x       y       z     vdW  Elec       q    Type
REMARK                         _______ _______ _______ _____ _____    ______ ____
ROOT
ATOM      1  O   UNL     1      -5.876   2.833  24.958  0.00  0.00    -0.365 OA
ATOM     11  C   UNL     1      -3.698   2.612  24.025  0.00  0.00    +0.118 C 
ATOM     12  C   UNL     1      -4.936   1.838  24.497  0.00  0.00    +0.155 C 
ATOM     13  C   UNL     1      -3.765   3.894  24.840  0.00  0.00    +0.165 C 
ATOM     14  C   UNL     1      -5.270   4.136  24.863  0.00  0.00    +0.174 C 
ENDROOT
BRANCH  11   6
ATOM      6  N   UNL     1      -2.432   1.902  24.091  0.00  0.00    -0.292 NA
ATOM      7  N   UNL     1       0.235   1.250  23.306  0.00  0.00    -0.297 N 
ATOM      9  N   UNL     1       1.677   0.064  21.901  0.00  0.00    -0.223 NA
ATOM     10  N   UNL     1       2.510   1.236  23.834  0.00  0.00    -0.223 NA
ATOM     15  C   UNL     1      -2.183   1.177  22.838  0.00  0.00    +0.104 C 
ATOM     16  C   UNL     1      -1.331   2.835  24.355  0.00  0.00    +0.104 C 
ATOM     18  C   UNL     1      -0.881   0.378  22.916  0.00  0.00    +0.123 C 
ATOM     19  C   UNL     1       0.001   2.092  24.483  0.00  0.00    +0.123 C 
ATOM     21  C   UNL     1       1.535   0.831  22.999  0.00  0.00    +0.218 A 
ATOM     24  C   UNL     1       2.941  -0.321  21.635  0.00  0.00    +0.116 A 
ATOM     25  C   UNL     1       3.750   0.815  23.509  0.00  0.00    +0.116 A 
ATOM     26  C   UNL     1       4.028   0.026  22.411  0.00  0.00    +0.039 A 
ENDBRANCH  11   6
BRANCH  13   2
ATOM      2  O   UNL     1      -3.275   3.699  26.161  0.00  0.00    -0.388 OA
ATOM     30  H   UNL     1      -3.757   4.307  26.746  0.00  0.00    +0.210 HD
ENDBRANCH  13   2
BRANCH  12  17
ATOM     17  C   UNL     1      -4.729   0.849  25.639  0.00  0.00    +0.137 C 
BRANCH  17   8
ATOM      4  O   UNL     1      -4.381  -1.875  24.800  0.00  0.00    -0.267 OA
ATOM      8  N   UNL     1      -3.487   0.149  25.496  0.00  0.00    -0.306 N 
ATOM     22  C   UNL     1      -3.409  -1.177  25.081  0.00  0.00    +0.279 C 
ATOM     31  H   UNL     1      -2.630   0.646  25.722  0.00  0.00    +0.149 HD
BRANCH  22  23
ATOM      5  O   UNL     1      -1.059  -1.171  25.728  0.00  0.00    -0.458 OA
ATOM     23  C   UNL     1      -2.048  -1.765  25.009  0.00  0.00    +0.189 A 
ATOM     27  C   UNL     1      -1.559  -2.852  24.323  0.00  0.00    +0.054 A 
ATOM     28  C   UNL     1      -0.181  -2.931  24.640  0.00  0.00    +0.042 A 
ATOM     29  C   UNL     1       0.073  -1.886  25.498  0.00  0.00    +0.196 A 
ENDBRANCH  22  23
ENDBRANCH  17   8
ENDBRANCH  12  17
BRANCH  14  20
ATOM     20  C   UNL     1      -5.775   5.008  25.997  0.00  0.00    +0.190 C 
BRANCH  20   3
ATOM      3  O   UNL     1      -7.029   5.558  25.629  0.00  0.00    -0.392 OA
ATOM     32  H   UNL     1      -7.713   5.059  26.108  0.00  0.00    +0.210 HD
ENDBRANCH  20   3
ENDBRANCH  14  20
TORSDOF 7
ENDMDL
MODEL 4
REMARK VINA RESULT:       1.8      1.867      2.557
REMARK  Name = 28961586
REMARK  7 active torsions:
REMARK  status: ('A' for Active; 'I' for Inactive)
REMARK    1  A    between atoms: O_2  and  C_13
REMARK    2  A    between atoms: O_3  and  C_20
REMARK    3  A    between atoms: N_6  and  C_11
REMARK    4  A    between atoms: N_8  and  C_17
REMARK    5  A    between atoms: C_12  and  C_17
REMARK    6  A    between atoms: C_14  and  C_20
REMARK    7  A    between atoms: C_22  and  C_23
REMARK                            x       y       z     vdW  Elec       q    Type
REMARK                         _______ _______ _______ _____ _____    ______ ____
ROOT
ATOM      1  O   UNL     1      -4.155   1.417  25.753  0.00  0.00    -0.365 OA
ATOM     11  C   UNL     1      -2.781  -0.180  24.645  0.00  0.00    +0.118 C 
ATOM     12  C   UNL     1      -2.813   0.881  25.753  0.00  0.00    +0.155 C 
ATOM     13  C   UNL     1      -3.874   0.285  23.694  0.00  0.00    +0.165 C 
ATOM     14  C   UNL     1      -4.906   0.808  24.686  0.00  0.00    +0.174 C 
ENDROOT
BRANCH  11   6
ATOM      6  N   UNL     1      -1.489  -0.428  24.030  0.00  0.00    -0.292 NA
ATOM      7  N   UNL     1       1.344  -0.209  23.737  0.00  0.00    -0.297 N 
ATOM      9  N   UNL     1       3.190   0.986  22.950  0.00  0.00    -0.223 NA
ATOM     10  N   UNL     1       3.429  -1.260  23.789  0.00  0.00    -0.223 NA
ATOM     15  C   UNL     1      -0.884   0.832  23.578  0.00  0.00    +0.104 C 
ATOM     16  C   UNL     1      -0.590  -1.103  24.973  0.00  0.00    +0.104 C 
ATOM     18  C   UNL     1       0.452   0.579  22.877  0.00  0.00    +0.123 C 
ATOM     19  C   UNL     1       0.757  -1.420  24.320  0.00  0.00    +0.123 C 
ATOM     21  C   UNL     1       2.719  -0.158  23.480  0.00  0.00    +0.218 A 
ATOM     24  C   UNL     1       4.517   1.001  22.715  0.00  0.00    +0.116 A 
ATOM     25  C   UNL     1       4.750  -1.177  23.529  0.00  0.00    +0.116 A 
ATOM     26  C   UNL     1       5.356  -0.061  22.987  0.00  0.00    +0.039 A 
ENDBRANCH  11   6
BRANCH  13   2
ATOM      2  O   UNL     1      -3.418   1.336  22.852  0.00  0.00    -0.388 OA
ATOM     30  H   UNL     1      -4.104   2.025  22.845  0.00  0.00    +0.210 HD
ENDBRANCH  13   2
BRANCH  12  17
ATOM     17  C   UNL     1      -1.856   2.058  25.600  0.00  0.00    +0.137 C 
BRANCH  17   8
ATOM      4  O   UNL     1       0.948   2.675  25.597  0.00  0.00    -0.267 OA
ATOM      8  N   UNL     1      -1.007   2.185  26.746  0.00  0.00    -0.306 N 
ATOM     22  C   UNL     1       0.349   2.488  26.653  0.00  0.00    +0.279 C 
ATOM     31  H   UNL     1      -1.416   2.031  27.663  0.00  0.00    +0.149 HD
BRANCH  22  23
ATOM      5  O   UNL     1       2.382   2.997  27.898  0.00  0.00    -0.458 OA
ATOM     23  C   UNL     1       1.096   2.557  27.935  0.00  0.00    +0.189 A 
ATOM     27  C   UNL     1       0.728   2.250  29.224  0.00  0.00    +0.054 A 
ATOM     28  C   UNL     1       1.860   2.517  30.031  0.00  0.00    +0.042 A 
ATOM     29  C   UNL     1       2.839   2.969  29.177  0.00  0.00    +0.196 A 
ENDBRANCH  22  23
ENDBRANCH  17   8
ENDBRANCH  12  17
BRANCH  14  20
ATOM     20  C   UNL     1      -5.894   1.817  24.129  0.00  0.00    +0.190 C 
BRANCH  20   3
ATOM      3  O   UNL     1      -6.904   2.052  25.097  0.00  0.00    -0.392 OA
ATOM     32  H   UNL     1      -7.474   1.263  25.113  0.00  0.00    +0.210 HD
ENDBRANCH  20   3
ENDBRANCH  14  20
TORSDOF 7
ENDMDL
MODEL 5
REMARK VINA RESULT:       3.6      2.189      6.323
REMARK  Name = 28961586
REMARK  7 active torsions:
REMARK  status: ('A' for Active; 'I' for Inactive)
REMARK    1  A    between atoms: O_2  and  C_13
REMARK    2  A    between atoms: O_3  and  C_20
REMARK    3  A    between atoms: N_6  and  C_11
REMARK    4  A    between atoms: N_8  and  C_17
REMARK    5  A    between atoms: C_12  and  C_17
REMARK    6  A    between atoms: C_14  and  C_20
REMARK    7  A    between atoms: C_22  and  C_23
REMARK                            x       y       z     vdW  Elec       q    Type
REMARK                         _______ _______ _______ _____ _____    ______ ____
ROOT
ATOM      1  O   UNL     1       3.142   0.920  23.483  0.00  0.00    -0.365 OA
ATOM     11  C   UNL     1       1.003   0.466  22.542  0.00  0.00    +0.118 C 
ATOM     12  C   UNL     1       1.807   1.463  23.386  0.00  0.00    +0.155 C 
ATOM     13  C   UNL     1       1.737  -0.847  22.772  0.00  0.00    +0.165 C 
ATOM     14  C   UNL     1       3.180  -0.359  22.820  0.00  0.00    +0.174 C 
ENDROOT
BRANCH  11   6
ATOM      6  N   UNL     1      -0.428   0.426  22.783  0.00  0.00    -0.292 NA
ATOM      7  N   UNL     1      -2.864   1.069  24.130  0.00  0.00    -0.297 N 
ATOM      9  N   UNL     1      -4.354   0.656  25.881  0.00  0.00    -0.223 NA
ATOM     10  N   UNL     1      -4.946   2.124  24.064  0.00  0.00    -0.223 NA
ATOM     15  C   UNL     1      -0.710  -0.129  24.114  0.00  0.00    +0.104 C 
ATOM     16  C   UNL     1      -1.008   1.769  22.669  0.00  0.00    +0.104 C 
ATOM     18  C   UNL     1      -2.217  -0.230  24.359  0.00  0.00    +0.123 C 
ATOM     19  C   UNL     1      -2.526   1.732  22.867  0.00  0.00    +0.123 C 
ATOM     21  C   UNL     1      -4.113   1.293  24.720  0.00  0.00    +0.218 A 
ATOM     24  C   UNL     1      -5.566   0.895  26.421  0.00  0.00    +0.116 A 
ATOM     25  C   UNL     1      -6.141   2.319  24.660  0.00  0.00    +0.116 A 
ATOM     26  C   UNL     1      -6.510   1.725  25.850  0.00  0.00    +0.039 A 
ENDBRANCH  11   6
BRANCH  13   2
ATOM      2  O   UNL     1       1.372  -1.436  24.014  0.00  0.00    -0.388 OA
ATOM     30  H   UNL     1       0.401  -1.458  24.055  0.00  0.00    +0.210 HD
ENDBRANCH  13   2
BRANCH  12  17
ATOM     17  C   UNL     1       1.314   1.706  24.809  0.00  0.00    +0.137 C 
BRANCH  17   8
ATOM      4  O   UNL     1      -0.325   2.396  27.063  0.00  0.00    -0.267 OA
ATOM      8  N   UNL     1       0.238   2.651  24.827  0.00  0.00    -0.306 N 
ATOM     22  C   UNL     1      -0.508   2.926  25.970  0.00  0.00    +0.279 C 
ATOM     31  H   UNL     1       0.006   3.128  23.961  0.00  0.00    +0.149 HD
BRANCH  22  23
ATOM      5  O   UNL     1      -2.768   3.680  26.484  0.00  0.00    -0.458 OA
ATOM     23  C   UNL     1      -1.607   3.912  25.816  0.00  0.00    +0.189 A 
ATOM     27  C   UNL     1      -1.691   5.080  25.094  0.00  0.00    +0.054 A 
ATOM     28  C   UNL     1      -2.987   5.599  25.333  0.00  0.00    +0.042 A 
ATOM     29  C   UNL     1      -3.602   4.710  26.184  0.00  0.00    +0.196 A 
ENDBRANCH  22  23
ENDBRANCH  17   8
ENDBRANCH  12  17
BRANCH  14  20
ATOM     20  C   UNL     1       4.155  -1.270  23.543  0.00  0.00    +0.190 C 
BRANCH  20   3
ATOM      3  O   UNL     1       5.039  -0.474  24.315  0.00  0.00    -0.392 OA
ATOM     32  H   UNL     1       5.493   0.129  23.700  0.00  0.00    +0.210 HD
ENDBRANCH  20   3
ENDBRANCH  14  20
TORSDOF 7
ENDMDL
