MODEL 1
REMARK VINA RESULT:      -1.6      0.000      0.000
REMARK  Name = 11912243
REMARK  8 active torsions:
REMARK  status: ('A' for Active; 'I' for Inactive)
REMARK    1  A    between atoms: S_1  and  C_24
REMARK    2  A    between atoms: S_1  and  C_26
REMARK    3  A    between atoms: O_6  and  C_27
REMARK    4  A    between atoms: N_10  and  C_16
REMARK    5  A    between atoms: C_12  and  C_17
REMARK    6  A    between atoms: C_22  and  C_25
REMARK    7  A    between atoms: C_23  and  C_24
REMARK    8  A    between atoms: C_26  and  C_27
REMARK                            x       y       z     vdW  Elec       q    Type
REMARK                         _______ _______ _______ _____ _____    ______ ____
ROOT
ATOM      4  O   UNL     1      -6.435   3.760  24.651  0.00  0.00    -0.276 OA
ATOM      5  O   UNL     1       0.681   2.428  25.874  0.00  0.00    -0.275 OA
ATOM      8  N   UNL     1      -4.198   3.729  25.290  0.00  0.00    -0.287 N 
ATOM      9  N   UNL     1      -1.435   2.822  24.998  0.00  0.00    -0.297 N 
ATOM     12  C   UNL     1      -3.833   2.756  24.258  0.00  0.00    +0.179 C 
ATOM     13  C   UNL     1      -2.360   2.820  23.857  0.00  0.00    +0.139 C 
ATOM     14  C   UNL     1      -3.114   4.256  26.126  0.00  0.00    +0.127 C 
ATOM     15  C   UNL     1      -1.964   3.271  26.285  0.00  0.00    +0.127 C 
ATOM     22  C   UNL     1      -5.516   4.195  25.349  0.00  0.00    +0.213 C 
ATOM     23  C   UNL     1      -0.099   2.426  24.919  0.00  0.00    +0.226 C 
ATOM     25  C   UNL     1      -5.795   5.294  26.344  0.00  0.00    +0.109 C 
ENDROOT
BRANCH  12  17
ATOM      2  O   UNL     1      -5.198   1.226  25.486  0.00  0.00    -0.274 OA
ATOM     10  N   UNL     1      -3.295   0.424  24.411  0.00  0.00    -0.302 N 
ATOM     17  C   UNL     1      -4.203   1.399  24.787  0.00  0.00    +0.236 C 
ATOM     28  H   UNL     1      -2.511   0.682  23.818  0.00  0.00    +0.150 HD
BRANCH  10  16
ATOM      3  O   UNL     1      -1.242  -0.687  25.832  0.00  0.00    -0.274 OA
ATOM     11  N   UNL     1      -1.770  -2.777  25.074  0.00  0.00    -0.314 N 
ATOM     16  C   UNL     1      -3.411  -0.955  24.807  0.00  0.00    +0.159 C 
ATOM     18  C   UNL     1      -4.035  -1.788  23.697  0.00  0.00    +0.033 C 
ATOM     19  C   UNL     1      -3.984  -3.259  24.072  0.00  0.00    +0.021 C 
ATOM     20  C   UNL     1      -2.535  -3.680  24.235  0.00  0.00    +0.104 C 
ATOM     21  C   UNL     1      -2.033  -1.433  25.252  0.00  0.00    +0.233 C 
ATOM     29  H   UNL     1      -0.878  -3.117  25.419  0.00  0.00    +0.149 HD
ENDBRANCH  10  16
ENDBRANCH  12  17
BRANCH  23  24
ATOM     24  C   UNL     1       0.384   1.968  23.564  0.00  0.00    +0.165 C 
BRANCH  24   1
ATOM      1  S   UNL     1       0.683   0.197  23.660  0.00  0.00    -0.140 S 
BRANCH   1  26
ATOM     26  C   UNL     1       1.917   0.051  22.343  0.00  0.00    +0.189 C 
BRANCH  26  27
ATOM      7  O   UNL     1       3.939   1.234  22.910  0.00  0.00    -0.250 OA
ATOM     27  C   UNL     1       3.292   0.195  22.930  0.00  0.00    +0.315 C 
BRANCH  27   6
ATOM      6  O   UNL     1       3.741  -0.950  23.502  0.00  0.00    -0.480 OA
ATOM     30  H   UNL     1       3.274  -1.148  24.341  0.00  0.00    +0.295 HD
ENDBRANCH  27   6
ENDBRANCH  26  27
ENDBRANCH   1  26
ENDBRANCH  24   1
ENDBRANCH  23  24
TORSDOF 7
ENDMDL
MODEL 2
REMARK VINA RESULT:      -1.0      2.151      5.161
REMARK  Name = 11912243
REMARK  8 active torsions:
REMARK  status: ('A' for Active; 'I' for Inactive)
REMARK    1  A    between atoms: S_1  and  C_24
REMARK    2  A    between atoms: S_1  and  C_26
REMARK    3  A    between atoms: O_6  and  C_27
REMARK    4  A    between atoms: N_10  and  C_16
REMARK    5  A    between atoms: C_12  and  C_17
REMARK    6  A    between atoms: C_22  and  C_25
REMARK    7  A    between atoms: C_23  and  C_24
REMARK    8  A    between atoms: C_26  and  C_27
REMARK                            x       y       z     vdW  Elec       q    Type
REMARK                         _______ _______ _______ _____ _____    ______ ____
ROOT
ATOM      4  O   UNL     1      -3.326  -1.163  26.463  0.00  0.00    -0.276 OA
ATOM      5  O   UNL     1       1.806  -0.306  21.281  0.00  0.00    -0.275 OA
ATOM      8  N   UNL     1      -1.744  -1.352  24.766  0.00  0.00    -0.287 N 
ATOM      9  N   UNL     1       0.524  -0.350  23.219  0.00  0.00    -0.297 N 
ATOM     12  C   UNL     1      -1.168  -0.035  25.047  0.00  0.00    +0.179 C 
ATOM     13  C   UNL     1       0.286   0.100  24.597  0.00  0.00    +0.139 C 
ATOM     14  C   UNL     1      -1.103  -2.153  23.717  0.00  0.00    +0.127 C 
ATOM     15  C   UNL     1      -0.434  -1.296  22.652  0.00  0.00    +0.127 C 
ATOM     22  C   UNL     1      -2.780  -1.827  25.578  0.00  0.00    +0.213 C 
ATOM     23  C   UNL     1       1.602   0.071  22.438  0.00  0.00    +0.226 C 
ATOM     25  C   UNL     1      -3.236  -3.243  25.323  0.00  0.00    +0.109 C 
ENDROOT
BRANCH  12  17
ATOM      2  O   UNL     1      -1.778   1.444  23.271  0.00  0.00    -0.274 OA
ATOM     10  N   UNL     1      -3.146   1.317  25.150  0.00  0.00    -0.302 N 
ATOM     17  C   UNL     1      -2.050   0.980  24.376  0.00  0.00    +0.236 C 
ATOM     28  H   UNL     1      -3.276   0.857  26.048  0.00  0.00    +0.150 HD
BRANCH  10  16
ATOM      3  O   UNL     1      -2.502   3.967  25.320  0.00  0.00    -0.274 OA
ATOM     11  N   UNL     1      -4.700   4.549  25.534  0.00  0.00    -0.314 N 
ATOM     16  C   UNL     1      -4.132   2.283  24.743  0.00  0.00    +0.159 C 
ATOM     18  C   UNL     1      -5.523   1.863  25.195  0.00  0.00    +0.033 C 
ATOM     19  C   UNL     1      -6.512   2.980  24.907  0.00  0.00    +0.021 C 
ATOM     20  C   UNL     1      -6.105   4.216  25.686  0.00  0.00    +0.104 C 
ATOM     21  C   UNL     1      -3.691   3.649  25.257  0.00  0.00    +0.233 C 
ATOM     29  H   UNL     1      -4.417   5.480  25.822  0.00  0.00    +0.149 HD
ENDBRANCH  10  16
ENDBRANCH  12  17
BRANCH  23  24
ATOM     24  C   UNL     1       2.551   1.052  23.080  0.00  0.00    +0.165 C 
BRANCH  24   1
ATOM      1  S   UNL     1       4.161   0.844  22.305  0.00  0.00    -0.140 S 
BRANCH   1  26
ATOM     26  C   UNL     1       5.150   0.547  23.792  0.00  0.00    +0.189 C 
BRANCH  26  27
ATOM      7  O   UNL     1       4.244  -1.686  23.868  0.00  0.00    -0.250 OA
ATOM     27  C   UNL     1       5.178  -0.925  24.086  0.00  0.00    +0.315 C 
BRANCH  27   6
ATOM      6  O   UNL     1       6.362  -1.333  24.611  0.00  0.00    -0.480 OA
ATOM     30  H   UNL     1       7.107  -0.768  24.315  0.00  0.00    +0.295 HD
ENDBRANCH  27   6
ENDBRANCH  26  27
ENDBRANCH   1  26
ENDBRANCH  24   1
ENDBRANCH  23  24
TORSDOF 7
ENDMDL
MODEL 3
REMARK VINA RESULT:      -0.1      1.983      7.016
REMARK  Name = 11912243
REMARK  8 active torsions:
REMARK  status: ('A' for Active; 'I' for Inactive)
REMARK    1  A    between atoms: S_1  and  C_24
REMARK    2  A    between atoms: S_1  and  C_26
REMARK    3  A    between atoms: O_6  and  C_27
REMARK    4  A    between atoms: N_10  and  C_16
REMARK    5  A    between atoms: C_12  and  C_17
REMARK    6  A    between atoms: C_22  and  C_25
REMARK    7  A    between atoms: C_23  and  C_24
REMARK    8  A    between atoms: C_26  and  C_27
REMARK                            x       y       z     vdW  Elec       q    Type
REMARK                         _______ _______ _______ _____ _____    ______ ____
ROOT
ATOM      4  O   UNL     1       2.694   0.431  22.244  0.00  0.00    -0.276 OA
ATOM      5  O   UNL     1      -3.003  -1.977  26.201  0.00  0.00    -0.275 OA
ATOM      8  N   UNL     1       1.185  -0.664  23.636  0.00  0.00    -0.287 N 
ATOM      9  N   UNL     1      -1.524  -1.256  24.560  0.00  0.00    -0.297 N 
ATOM     12  C   UNL     1       0.026   0.005  23.040  0.00  0.00    +0.179 C 
ATOM     13  C   UNL     1      -1.274  -0.784  23.192  0.00  0.00    +0.139 C 
ATOM     14  C   UNL     1       0.918  -1.668  24.672  0.00  0.00    +0.127 C 
ATOM     15  C   UNL     1      -0.366  -1.390  25.441  0.00  0.00    +0.127 C 
ATOM     22  C   UNL     1       2.458  -0.410  23.115  0.00  0.00    +0.213 C 
ATOM     23  C   UNL     1      -2.789  -1.579  25.053  0.00  0.00    +0.226 C 
ATOM     25  C   UNL     1       3.590  -1.231  23.682  0.00  0.00    +0.109 C 
ENDROOT
BRANCH  12  17
ATOM      2  O   UNL     1       0.922   1.966  24.071  0.00  0.00    -0.274 OA
ATOM     10  N   UNL     1      -1.381   1.801  23.777  0.00  0.00    -0.302 N 
ATOM     17  C   UNL     1      -0.072   1.361  23.678  0.00  0.00    +0.236 C 
ATOM     28  H   UNL     1      -2.127   1.219  23.405  0.00  0.00    +0.150 HD
BRANCH  10  16
ATOM      3  O   UNL     1      -0.684   2.250  26.380  0.00  0.00    -0.274 OA
ATOM     11  N   UNL     1      -2.412   3.720  26.651  0.00  0.00    -0.314 N 
ATOM     16  C   UNL     1      -1.747   3.060  24.370  0.00  0.00    +0.159 C 
ATOM     18  C   UNL     1      -3.139   3.486  23.926  0.00  0.00    +0.033 C 
ATOM     19  C   UNL     1      -3.566   4.722  24.700  0.00  0.00    +0.021 C 
ATOM     20  C   UNL     1      -3.611   4.390  26.180  0.00  0.00    +0.104 C 
ATOM     21  C   UNL     1      -1.580   2.934  25.880  0.00  0.00    +0.233 C 
ATOM     29  H   UNL     1      -2.272   3.687  27.656  0.00  0.00    +0.149 HD
ENDBRANCH  10  16
ENDBRANCH  12  17
BRANCH  23  24
ATOM     24  C   UNL     1      -3.944  -1.413  24.095  0.00  0.00    +0.165 C 
BRANCH  24   1
ATOM      1  S   UNL     1      -4.267   0.349  23.928  0.00  0.00    -0.140 S 
BRANCH   1  26
ATOM     26  C   UNL     1      -4.818   0.693  25.619  0.00  0.00    +0.189 C 
BRANCH  26  27
ATOM      7  O   UNL     1      -6.488   2.067  24.556  0.00  0.00    -0.250 OA
ATOM     27  C   UNL     1      -5.944   1.684  25.584  0.00  0.00    +0.315 C 
BRANCH  27   6
ATOM      6  O   UNL     1      -6.311   2.105  26.821  0.00  0.00    -0.480 OA
ATOM     30  H   UNL     1      -5.795   1.660  27.527  0.00  0.00    +0.295 HD
ENDBRANCH  27   6
ENDBRANCH  26  27
ENDBRANCH   1  26
ENDBRANCH  24   1
ENDBRANCH  23  24
TORSDOF 7
ENDMDL
MODEL 4
REMARK VINA RESULT:      -0.0      1.741      2.045
REMARK  Name = 11912243
REMARK  8 active torsions:
REMARK  status: ('A' for Active; 'I' for Inactive)
REMARK    1  A    between atoms: S_1  and  C_24
REMARK    2  A    between atoms: S_1  and  C_26
REMARK    3  A    between atoms: O_6  and  C_27
REMARK    4  A    between atoms: N_10  and  C_16
REMARK    5  A    between atoms: C_12  and  C_17
REMARK    6  A    between atoms: C_22  and  C_25
REMARK    7  A    between atoms: C_23  and  C_24
REMARK    8  A    between atoms: C_26  and  C_27
REMARK                            x       y       z     vdW  Elec       q    Type
REMARK                         _______ _______ _______ _____ _____    ______ ____
ROOT
ATOM      4  O   UNL     1      -6.839   1.569  24.586  0.00  0.00    -0.276 OA
ATOM      5  O   UNL     1      -0.243   4.472  25.991  0.00  0.00    -0.275 OA
ATOM      8  N   UNL     1      -4.957   2.660  25.411  0.00  0.00    -0.287 N 
ATOM      9  N   UNL     1      -2.283   3.799  25.104  0.00  0.00    -0.297 N 
ATOM     12  C   UNL     1      -4.250   2.580  24.131  0.00  0.00    +0.179 C 
ATOM     13  C   UNL     1      -3.188   3.665  23.955  0.00  0.00    +0.139 C 
ATOM     14  C   UNL     1      -4.285   3.374  26.503  0.00  0.00    +0.127 C 
ATOM     15  C   UNL     1      -2.768   3.316  26.395  0.00  0.00    +0.127 C 
ATOM     22  C   UNL     1      -6.265   2.170  25.497  0.00  0.00    +0.213 C 
ATOM     23  C   UNL     1      -1.006   4.357  25.028  0.00  0.00    +0.226 C 
ATOM     25  C   UNL     1      -6.984   2.405  26.802  0.00  0.00    +0.109 C 
ENDROOT
BRANCH  12  17
ATOM      2  O   UNL     1      -2.972   0.852  23.087  0.00  0.00    -0.274 OA
ATOM     10  N   UNL     1      -3.984   0.421  25.138  0.00  0.00    -0.302 N 
ATOM     17  C   UNL     1      -3.654   1.204  24.046  0.00  0.00    +0.236 C 
ATOM     28  H   UNL     1      -4.548   0.823  25.882  0.00  0.00    +0.150 HD
BRANCH  10  16
ATOM      3  O   UNL     1      -1.452  -0.044  26.054  0.00  0.00    -0.274 OA
ATOM     11  N   UNL     1      -1.379  -2.071  25.002  0.00  0.00    -0.314 N 
ATOM     16  C   UNL     1      -3.555  -0.946  25.287  0.00  0.00    +0.159 C 
ATOM     18  C   UNL     1      -4.059  -1.801  24.133  0.00  0.00    +0.033 C 
ATOM     19  C   UNL     1      -3.448  -3.190  24.223  0.00  0.00    +0.021 C 
ATOM     20  C   UNL     1      -1.939  -3.076  24.118  0.00  0.00    +0.104 C 
ATOM     21  C   UNL     1      -2.041  -0.947  25.455  0.00  0.00    +0.233 C 
ATOM     29  H   UNL     1      -0.377  -2.108  25.161  0.00  0.00    +0.149 HD
ENDBRANCH  10  16
ENDBRANCH  12  17
BRANCH  23  24
ATOM     24  C   UNL     1      -0.562   4.831  23.665  0.00  0.00    +0.165 C 
BRANCH  24   1
ATOM      1  S   UNL     1       0.634   3.645  23.036  0.00  0.00    -0.140 S 
BRANCH   1  26
ATOM     26  C   UNL     1       0.190   2.226  24.069  0.00  0.00    +0.189 C 
BRANCH  26  27
ATOM      7  O   UNL     1       0.395  -0.054  23.315  0.00  0.00    -0.250 OA
ATOM     27  C   UNL     1       0.932   1.011  23.594  0.00  0.00    +0.315 C 
BRANCH  27   6
ATOM      6  O   UNL     1       2.269   1.220  23.488  0.00  0.00    -0.480 OA
ATOM     30  H   UNL     1       2.733   1.056  24.336  0.00  0.00    +0.295 HD
ENDBRANCH  27   6
ENDBRANCH  26  27
ENDBRANCH   1  26
ENDBRANCH  24   1
ENDBRANCH  23  24
TORSDOF 7
ENDMDL
MODEL 5
REMARK VINA RESULT:       0.2      2.164      5.439
REMARK  Name = 11912243
REMARK  8 active torsions:
REMARK  status: ('A' for Active; 'I' for Inactive)
REMARK    1  A    between atoms: S_1  and  C_24
REMARK    2  A    between atoms: S_1  and  C_26
REMARK    3  A    between atoms: O_6  and  C_27
REMARK    4  A    between atoms: N_10  and  C_16
REMARK    5  A    between atoms: C_12  and  C_17
REMARK    6  A    between atoms: C_22  and  C_25
REMARK    7  A    between atoms: C_23  and  C_24
REMARK    8  A    between atoms: C_26  and  C_27
REMARK                            x       y       z     vdW  Elec       q    Type
REMARK                         _______ _______ _______ _____ _____    ______ ____
ROOT
ATOM      4  O   UNL     1      -3.589  -1.615  26.464  0.00  0.00    -0.276 OA
ATOM      5  O   UNL     1       1.667  -0.272  21.516  0.00  0.00    -0.275 OA
ATOM      8  N   UNL     1      -2.009  -1.625  24.755  0.00  0.00    -0.287 N 
ATOM      9  N   UNL     1       0.361  -0.563  23.416  0.00  0.00    -0.297 N 
ATOM     12  C   UNL     1      -1.319  -0.444  25.277  0.00  0.00    +0.179 C 
ATOM     13  C   UNL     1       0.147  -0.361  24.855  0.00  0.00    +0.139 C 
ATOM     14  C   UNL     1      -1.430  -2.270  23.571  0.00  0.00    +0.127 C 
ATOM     15  C   UNL     1      -0.672  -1.293  22.684  0.00  0.00    +0.127 C 
ATOM     22  C   UNL     1      -3.094  -2.148  25.467  0.00  0.00    +0.213 C 
ATOM     23  C   UNL     1       1.483  -0.104  22.724  0.00  0.00    +0.226 C 
ATOM     25  C   UNL     1      -3.674  -3.441  24.951  0.00  0.00    +0.109 C 
ENDROOT
BRANCH  12  17
ATOM      2  O   UNL     1      -3.162   0.646  24.216  0.00  0.00    -0.274 OA
ATOM     10  N   UNL     1      -1.458   1.945  25.122  0.00  0.00    -0.302 N 
ATOM     17  C   UNL     1      -2.095   0.756  24.814  0.00  0.00    +0.236 C 
ATOM     28  H   UNL     1      -0.580   1.916  25.633  0.00  0.00    +0.150 HD
BRANCH  10  16
ATOM      3  O   UNL     1       0.198   3.709  23.851  0.00  0.00    -0.274 OA
ATOM     11  N   UNL     1      -0.989   5.490  24.649  0.00  0.00    -0.314 N 
ATOM     16  C   UNL     1      -1.984   3.237  24.767  0.00  0.00    +0.159 C 
ATOM     18  C   UNL     1      -2.883   3.779  25.870  0.00  0.00    +0.033 C 
ATOM     19  C   UNL     1      -3.280   5.209  25.548  0.00  0.00    +0.021 C 
ATOM     20  C   UNL     1      -2.031   6.068  25.476  0.00  0.00    +0.104 C 
ATOM     21  C   UNL     1      -0.810   4.142  24.413  0.00  0.00    +0.233 C 
ATOM     29  H   UNL     1      -0.236   6.109  24.364  0.00  0.00    +0.149 HD
ENDBRANCH  10  16
ENDBRANCH  12  17
BRANCH  23  24
ATOM     24  C   UNL     1       2.510   0.648  23.536  0.00  0.00    +0.165 C 
BRANCH  24   1
ATOM      1  S   UNL     1       3.741   1.296  22.396  0.00  0.00    -0.140 S 
BRANCH   1  26
ATOM     26  C   UNL     1       5.005   0.015  22.593  0.00  0.00    +0.189 C 
BRANCH  26  27
ATOM      7  O   UNL     1       5.509   0.596  24.878  0.00  0.00    -0.250 OA
ATOM     27  C   UNL     1       5.212  -0.260  24.054  0.00  0.00    +0.315 C 
BRANCH  27   6
ATOM      6  O   UNL     1       5.022  -1.565  24.375  0.00  0.00    -0.480 OA
ATOM     30  H   UNL     1       4.961  -2.133  23.577  0.00  0.00    +0.295 HD
ENDBRANCH  27   6
ENDBRANCH  26  27
ENDBRANCH   1  26
ENDBRANCH  24   1
ENDBRANCH  23  24
TORSDOF 7
ENDMDL
MODEL 6
REMARK VINA RESULT:       0.5      2.317      5.936
REMARK  Name = 11912243
REMARK  8 active torsions:
REMARK  status: ('A' for Active; 'I' for Inactive)
REMARK    1  A    between atoms: S_1  and  C_24
REMARK    2  A    between atoms: S_1  and  C_26
REMARK    3  A    between atoms: O_6  and  C_27
REMARK    4  A    between atoms: N_10  and  C_16
REMARK    5  A    between atoms: C_12  and  C_17
REMARK    6  A    between atoms: C_22  and  C_25
REMARK    7  A    between atoms: C_23  and  C_24
REMARK    8  A    between atoms: C_26  and  C_27
REMARK                            x       y       z     vdW  Elec       q    Type
REMARK                         _______ _______ _______ _____ _____    ______ ____
ROOT
ATOM      4  O   UNL     1      -3.739  -3.454  24.755  0.00  0.00    -0.276 OA
ATOM      5  O   UNL     1       1.096   2.021  24.011  0.00  0.00    -0.275 OA
ATOM      8  N   UNL     1      -1.951  -2.037  24.295  0.00  0.00    -0.287 N 
ATOM      9  N   UNL     1      -0.397   0.397  24.741  0.00  0.00    -0.297 N 
ATOM     12  C   UNL     1      -2.380  -1.044  25.282  0.00  0.00    +0.179 C 
ATOM     13  C   UNL     1      -1.238  -0.172  25.802  0.00  0.00    +0.139 C 
ATOM     14  C   UNL     1      -0.693  -1.777  23.587  0.00  0.00    +0.127 C 
ATOM     15  C   UNL     1      -0.393  -0.291  23.452  0.00  0.00    +0.127 C 
ATOM     22  C   UNL     1      -2.680  -3.224  24.165  0.00  0.00    +0.213 C 
ATOM     23  C   UNL     1       0.388   1.541  24.899  0.00  0.00    +0.226 C 
ATOM     25  C   UNL     1      -2.110  -4.263  23.230  0.00  0.00    +0.109 C 
ENDROOT
BRANCH  12  17
ATOM      2  O   UNL     1      -3.983  -0.558  23.577  0.00  0.00    -0.274 OA
ATOM     10  N   UNL     1      -3.730   0.937  25.343  0.00  0.00    -0.302 N 
ATOM     17  C   UNL     1      -3.453  -0.217  24.632  0.00  0.00    +0.236 C 
ATOM     28  H   UNL     1      -3.235   1.111  26.214  0.00  0.00    +0.150 HD
BRANCH  10  16
ATOM      3  O   UNL     1      -3.093   2.572  23.247  0.00  0.00    -0.274 OA
ATOM     11  N   UNL     1      -4.519   4.191  24.000  0.00  0.00    -0.314 N 
ATOM     16  C   UNL     1      -4.703   1.910  24.919  0.00  0.00    +0.159 C 
ATOM     18  C   UNL     1      -5.402   2.535  26.118  0.00  0.00    +0.033 C 
ATOM     19  C   UNL     1      -6.292   3.675  25.652  0.00  0.00    +0.021 C 
ATOM     20  C   UNL     1      -5.434   4.735  24.986  0.00  0.00    +0.104 C 
ATOM     21  C   UNL     1      -4.002   2.911  24.009  0.00  0.00    +0.233 C 
ATOM     29  H   UNL     1      -4.096   4.851  23.354  0.00  0.00    +0.149 HD
ENDBRANCH  10  16
ENDBRANCH  12  17
BRANCH  23  24
ATOM     24  C   UNL     1       0.335   2.207  26.252  0.00  0.00    +0.165 C 
BRANCH  24   1
ATOM      1  S   UNL     1      -1.185   3.165  26.331  0.00  0.00    -0.140 S 
BRANCH   1  26
ATOM     26  C   UNL     1      -0.787   4.422  25.090  0.00  0.00    +0.189 C 
BRANCH  26  27
ATOM      7  O   UNL     1      -1.745   6.548  24.480  0.00  0.00    -0.250 OA
ATOM     27  C   UNL     1      -1.779   5.545  25.182  0.00  0.00    +0.315 C 
BRANCH  27   6
ATOM      6  O   UNL     1      -2.735   5.326  26.120  0.00  0.00    -0.480 OA
ATOM     30  H   UNL     1      -2.605   4.471  26.582  0.00  0.00    +0.295 HD
ENDBRANCH  27   6
ENDBRANCH  26  27
ENDBRANCH   1  26
ENDBRANCH  24   1
ENDBRANCH  23  24
TORSDOF 7
ENDMDL
MODEL 7
REMARK VINA RESULT:       0.7      2.077      5.753
REMARK  Name = 11912243
REMARK  8 active torsions:
REMARK  status: ('A' for Active; 'I' for Inactive)
REMARK    1  A    between atoms: S_1  and  C_24
REMARK    2  A    between atoms: S_1  and  C_26
REMARK    3  A    between atoms: O_6  and  C_27
REMARK    4  A    between atoms: N_10  and  C_16
REMARK    5  A    between atoms: C_12  and  C_17
REMARK    6  A    between atoms: C_22  and  C_25
REMARK    7  A    between atoms: C_23  and  C_24
REMARK    8  A    between atoms: C_26  and  C_27
REMARK                            x       y       z     vdW  Elec       q    Type
REMARK                         _______ _______ _______ _____ _____    ______ ____
ROOT
ATOM      4  O   UNL     1       1.774  -0.696  24.016  0.00  0.00    -0.276 OA
ATOM      5  O   UNL     1      -3.695   4.186  23.595  0.00  0.00    -0.275 OA
ATOM      8  N   UNL     1       0.165   0.882  23.435  0.00  0.00    -0.287 N 
ATOM      9  N   UNL     1      -1.796   2.944  24.099  0.00  0.00    -0.297 N 
ATOM     12  C   UNL     1      -0.105   1.238  24.829  0.00  0.00    +0.179 C 
ATOM     13  C   UNL     1      -0.672   2.648  24.997  0.00  0.00    +0.139 C 
ATOM     14  C   UNL     1      -0.552   1.636  22.401  0.00  0.00    +0.127 C 
ATOM     15  C   UNL     1      -1.903   2.148  22.879  0.00  0.00    +0.127 C 
ATOM     22  C   UNL     1       1.165  -0.056  23.155  0.00  0.00    +0.213 C 
ATOM     23  C   UNL     1      -2.750   3.933  24.347  0.00  0.00    +0.226 C 
ATOM     25  C   UNL     1       1.487  -0.278  21.698  0.00  0.00    +0.109 C 
ENDROOT
BRANCH  12  17
ATOM      2  O   UNL     1      -0.989  -0.177  26.541  0.00  0.00    -0.274 OA
ATOM     10  N   UNL     1      -1.920  -0.272  24.410  0.00  0.00    -0.302 N 
ATOM     17  C   UNL     1      -1.043   0.198  25.372  0.00  0.00    +0.236 C 
ATOM     28  H   UNL     1      -1.882   0.121  23.474  0.00  0.00    +0.150 HD
BRANCH  10  16
ATOM      3  O   UNL     1      -1.051  -2.821  24.877  0.00  0.00    -0.274 OA
ATOM     11  N   UNL     1      -3.029  -3.694  24.137  0.00  0.00    -0.314 N 
ATOM     16  C   UNL     1      -2.905  -1.289  24.670  0.00  0.00    +0.159 C 
ATOM     18  C   UNL     1      -4.122  -1.109  23.773  0.00  0.00    +0.033 C 
ATOM     19  C   UNL     1      -5.061  -2.290  23.945  0.00  0.00    +0.021 C 
ATOM     20  C   UNL     1      -4.342  -3.561  23.534  0.00  0.00    +0.104 C 
ATOM     21  C   UNL     1      -2.225  -2.647  24.540  0.00  0.00    +0.233 C 
ATOM     29  H   UNL     1      -2.600  -4.613  24.102  0.00  0.00    +0.149 HD
ENDBRANCH  10  16
ENDBRANCH  12  17
BRANCH  23  24
ATOM     24  C   UNL     1      -2.587   4.715  25.627  0.00  0.00    +0.165 C 
BRANCH  24   1
ATOM      1  S   UNL     1      -3.697   4.003  26.850  0.00  0.00    -0.140 S 
BRANCH   1  26
ATOM     26  C   UNL     1      -5.181   3.853  25.824  0.00  0.00    +0.189 C 
BRANCH  26  27
ATOM      7  O   UNL     1      -5.325   1.590  25.005  0.00  0.00    -0.250 OA
ATOM     27  C   UNL     1      -5.654   2.428  25.836  0.00  0.00    +0.315 C 
BRANCH  27   6
ATOM      6  O   UNL     1      -6.478   2.157  26.880  0.00  0.00    -0.480 OA
ATOM     30  H   UNL     1      -7.335   2.627  26.801  0.00  0.00    +0.295 HD
ENDBRANCH  27   6
ENDBRANCH  26  27
ENDBRANCH   1  26
ENDBRANCH  24   1
ENDBRANCH  23  24
TORSDOF 7
ENDMDL
MODEL 8
REMARK VINA RESULT:       1.5      2.613      5.802
REMARK  Name = 11912243
REMARK  8 active torsions:
REMARK  status: ('A' for Active; 'I' for Inactive)
REMARK    1  A    between atoms: S_1  and  C_24
REMARK    2  A    between atoms: S_1  and  C_26
REMARK    3  A    between atoms: O_6  and  C_27
REMARK    4  A    between atoms: N_10  and  C_16
REMARK    5  A    between atoms: C_12  and  C_17
REMARK    6  A    between atoms: C_22  and  C_25
REMARK    7  A    between atoms: C_23  and  C_24
REMARK    8  A    between atoms: C_26  and  C_27
REMARK                            x       y       z     vdW  Elec       q    Type
REMARK                         _______ _______ _______ _____ _____    ______ ____
ROOT
ATOM      4  O   UNL     1      -3.593  -3.531  24.711  0.00  0.00    -0.276 OA
ATOM      5  O   UNL     1       0.593   2.502  24.673  0.00  0.00    -0.275 OA
ATOM      8  N   UNL     1      -1.975  -1.880  24.446  0.00  0.00    -0.287 N 
ATOM      9  N   UNL     1      -0.711   0.648  25.189  0.00  0.00    -0.297 N 
ATOM     12  C   UNL     1      -2.521  -1.058  25.528  0.00  0.00    +0.179 C 
ATOM     13  C   UNL     1      -1.489  -0.127  26.164  0.00  0.00    +0.139 C 
ATOM     14  C   UNL     1      -0.749  -1.402  23.796  0.00  0.00    +0.127 C 
ATOM     15  C   UNL     1      -0.619   0.114  23.832  0.00  0.00    +0.127 C 
ATOM     22  C   UNL     1      -2.563  -3.119  24.171  0.00  0.00    +0.213 C 
ATOM     23  C   UNL     1      -0.063   1.848  25.488  0.00  0.00    +0.226 C 
ATOM     25  C   UNL     1      -1.871  -3.976  23.139  0.00  0.00    +0.109 C 
ENDROOT
BRANCH  12  17
ATOM      2  O   UNL     1      -4.512  -0.823  24.226  0.00  0.00    -0.274 OA
ATOM     10  N   UNL     1      -3.655   1.045  25.318  0.00  0.00    -0.302 N 
ATOM     17  C   UNL     1      -3.677  -0.289  24.951  0.00  0.00    +0.236 C 
ATOM     28  H   UNL     1      -2.918   1.375  25.935  0.00  0.00    +0.150 HD
BRANCH  10  16
ATOM      3  O   UNL     1      -2.820   3.146  23.782  0.00  0.00    -0.274 OA
ATOM     11  N   UNL     1      -4.571   4.433  24.486  0.00  0.00    -0.314 N 
ATOM     16  C   UNL     1      -4.639   2.000  24.879  0.00  0.00    +0.159 C 
ATOM     18  C   UNL     1      -5.647   2.286  25.982  0.00  0.00    +0.033 C 
ATOM     19  C   UNL     1      -6.564   3.420  25.554  0.00  0.00    +0.021 C 
ATOM     20  C   UNL     1      -5.734   4.668  25.322  0.00  0.00    +0.104 C 
ATOM     21  C   UNL     1      -3.903   3.232  24.366  0.00  0.00    +0.233 C 
ATOM     29  H   UNL     1      -4.115   5.252  24.096  0.00  0.00    +0.149 HD
ENDBRANCH  10  16
ENDBRANCH  12  17
BRANCH  23  24
ATOM     24  C   UNL     1      -0.201   2.349  26.905  0.00  0.00    +0.165 C 
BRANCH  24   1
ATOM      1  S   UNL     1       1.383   3.044  27.397  0.00  0.00    -0.140 S 
BRANCH   1  26
ATOM     26  C   UNL     1       1.172   2.974  29.194  0.00  0.00    +0.189 C 
BRANCH  26  27
ATOM      7  O   UNL     1       2.142   1.564  30.891  0.00  0.00    -0.250 OA
ATOM     27  C   UNL     1       2.226   2.084  29.786  0.00  0.00    +0.315 C 
BRANCH  27   6
ATOM      6  O   UNL     1       3.285   1.902  28.956  0.00  0.00    -0.480 OA
ATOM     30  H   UNL     1       3.361   2.623  28.296  0.00  0.00    +0.295 HD
ENDBRANCH  27   6
ENDBRANCH  26  27
ENDBRANCH   1  26
ENDBRANCH  24   1
ENDBRANCH  23  24
TORSDOF 7
ENDMDL
MODEL 9
REMARK VINA RESULT:       1.5      2.258      6.142
REMARK  Name = 11912243
REMARK  8 active torsions:
REMARK  status: ('A' for Active; 'I' for Inactive)
REMARK    1  A    between atoms: S_1  and  C_24
REMARK    2  A    between atoms: S_1  and  C_26
REMARK    3  A    between atoms: O_6  and  C_27
REMARK    4  A    between atoms: N_10  and  C_16
REMARK    5  A    between atoms: C_12  and  C_17
REMARK    6  A    between atoms: C_22  and  C_25
REMARK    7  A    between atoms: C_23  and  C_24
REMARK    8  A    between atoms: C_26  and  C_27
REMARK                            x       y       z     vdW  Elec       q    Type
REMARK                         _______ _______ _______ _____ _____    ______ ____
ROOT
ATOM      4  O   UNL     1       3.120  -0.639  23.464  0.00  0.00    -0.276 OA
ATOM      5  O   UNL     1      -1.811   4.717  24.425  0.00  0.00    -0.275 OA
ATOM      8  N   UNL     1       1.890   1.333  23.593  0.00  0.00    -0.287 N 
ATOM      9  N   UNL     1      -0.327   2.937  24.616  0.00  0.00    -0.297 N 
ATOM     12  C   UNL     1       0.908   0.755  24.513  0.00  0.00    +0.179 C 
ATOM     13  C   UNL     1       0.199   1.797  25.377  0.00  0.00    +0.139 C 
ATOM     14  C   UNL     1       1.735   2.751  23.254  0.00  0.00    +0.127 C 
ATOM     15  C   UNL     1       0.287   3.215  23.319  0.00  0.00    +0.127 C 
ATOM     22  C   UNL     1       2.979   0.554  23.185  0.00  0.00    +0.213 C 
ATOM     23  C   UNL     1      -1.366   3.757  25.060  0.00  0.00    +0.226 C 
ATOM     25  C   UNL     1       4.024   1.250  22.348  0.00  0.00    +0.109 C 
ENDROOT
BRANCH  12  17
ATOM      2  O   UNL     1       0.085  -0.167  22.467  0.00  0.00    -0.274 OA
ATOM     10  N   UNL     1      -1.121  -0.521  24.426  0.00  0.00    -0.302 N 
ATOM     17  C   UNL     1      -0.066  -0.026  23.678  0.00  0.00    +0.236 C 
ATOM     28  H   UNL     1      -1.137  -0.352  25.428  0.00  0.00    +0.150 HD
BRANCH  10  16
ATOM      3  O   UNL     1      -3.248   0.836  23.378  0.00  0.00    -0.274 OA
ATOM     11  N   UNL     1      -4.640  -0.936  23.753  0.00  0.00    -0.314 N 
ATOM     16  C   UNL     1      -2.201  -1.285  23.858  0.00  0.00    +0.159 C 
ATOM     18  C   UNL     1      -2.493  -2.519  24.699  0.00  0.00    +0.033 C 
ATOM     19  C   UNL     1      -3.744  -3.207  24.177  0.00  0.00    +0.021 C 
ATOM     20  C   UNL     1      -4.919  -2.254  24.292  0.00  0.00    +0.104 C 
ATOM     21  C   UNL     1      -3.392  -0.351  23.678  0.00  0.00    +0.233 C 
ATOM     29  H   UNL     1      -5.439  -0.335  23.577  0.00  0.00    +0.149 HD
ENDBRANCH  10  16
ENDBRANCH  12  17
BRANCH  23  24
ATOM     24  C   UNL     1      -1.963   3.413  26.404  0.00  0.00    +0.165 C 
BRANCH  24   1
ATOM      1  S   UNL     1      -3.644   4.052  26.436  0.00  0.00    -0.140 S 
BRANCH   1  26
ATOM     26  C   UNL     1      -4.316   3.137  25.026  0.00  0.00    +0.189 C 
BRANCH  26  27
ATOM      7  O   UNL     1      -6.193   1.653  24.738  0.00  0.00    -0.250 OA
ATOM     27  C   UNL     1      -5.598   2.468  25.431  0.00  0.00    +0.315 C 
BRANCH  27   6
ATOM      6  O   UNL     1      -6.024   2.852  26.660  0.00  0.00    -0.480 OA
ATOM     30  H   UNL     1      -6.055   2.100  27.289  0.00  0.00    +0.295 HD
ENDBRANCH  27   6
ENDBRANCH  26  27
ENDBRANCH   1  26
ENDBRANCH  24   1
ENDBRANCH  23  24
TORSDOF 7
ENDMDL
MODEL 10
REMARK VINA RESULT:       1.6      1.636      1.942
REMARK  Name = 11912243
REMARK  8 active torsions:
REMARK  status: ('A' for Active; 'I' for Inactive)
REMARK    1  A    between atoms: S_1  and  C_24
REMARK    2  A    between atoms: S_1  and  C_26
REMARK    3  A    between atoms: O_6  and  C_27
REMARK    4  A    between atoms: N_10  and  C_16
REMARK    5  A    between atoms: C_12  and  C_17
REMARK    6  A    between atoms: C_22  and  C_25
REMARK    7  A    between atoms: C_23  and  C_24
REMARK    8  A    between atoms: C_26  and  C_27
REMARK                            x       y       z     vdW  Elec       q    Type
REMARK                         _______ _______ _______ _____ _____    ______ ____
ROOT
ATOM      4  O   UNL     1      -6.640   4.057  24.608  0.00  0.00    -0.276 OA
ATOM      5  O   UNL     1       0.337   2.305  26.078  0.00  0.00    -0.275 OA
ATOM      8  N   UNL     1      -4.430   3.897  25.320  0.00  0.00    -0.287 N 
ATOM      9  N   UNL     1      -1.722   2.817  25.129  0.00  0.00    -0.297 N 
ATOM     12  C   UNL     1      -4.095   2.889  24.313  0.00  0.00    +0.179 C 
ATOM     13  C   UNL     1      -2.608   2.856  23.959  0.00  0.00    +0.139 C 
ATOM     14  C   UNL     1      -3.342   4.368  26.184  0.00  0.00    +0.127 C 
ATOM     15  C   UNL     1      -2.262   3.317  26.392  0.00  0.00    +0.127 C 
ATOM     22  C   UNL     1      -5.718   4.445  25.330  0.00  0.00    +0.213 C 
ATOM     23  C   UNL     1      -0.411   2.338  25.098  0.00  0.00    +0.226 C 
ATOM     25  C   UNL     1      -5.959   5.574  26.302  0.00  0.00    +0.109 C 
ENDROOT
BRANCH  12  17
ATOM      2  O   UNL     1      -5.315   1.487  25.815  0.00  0.00    -0.274 OA
ATOM     10  N   UNL     1      -4.041   0.498  24.138  0.00  0.00    -0.302 N 
ATOM     17  C   UNL     1      -4.565   1.565  24.846  0.00  0.00    +0.236 C 
ATOM     28  H   UNL     1      -3.437   0.683  23.341  0.00  0.00    +0.150 HD
BRANCH  10  16
ATOM      3  O   UNL     1      -3.115  -0.480  26.516  0.00  0.00    -0.274 OA
ATOM     11  N   UNL     1      -3.064  -2.609  25.689  0.00  0.00    -0.314 N 
ATOM     16  C   UNL     1      -4.320  -0.877  24.462  0.00  0.00    +0.159 C 
ATOM     18  C   UNL     1      -4.186  -1.763  23.232  0.00  0.00    +0.033 C 
ATOM     19  C   UNL     1      -4.312  -3.222  23.638  0.00  0.00    +0.021 C 
ATOM     20  C   UNL     1      -3.196  -3.566  24.607  0.00  0.00    +0.104 C 
ATOM     21  C   UNL     1      -3.420  -1.277  25.626  0.00  0.00    +0.233 C 
ATOM     29  H   UNL     1      -2.512  -2.898  26.491  0.00  0.00    +0.149 HD
ENDBRANCH  10  16
ENDBRANCH  12  17
BRANCH  23  24
ATOM     24  C   UNL     1       0.085   1.830  23.765  0.00  0.00    +0.165 C 
BRANCH  24   1
ATOM      1  S   UNL     1      -0.818   0.322  23.384  0.00  0.00    -0.140 S 
BRANCH   1  26
ATOM     26  C   UNL     1       0.424  -0.886  23.908  0.00  0.00    +0.189 C 
BRANCH  26  27
ATOM      7  O   UNL     1      -0.010  -2.769  25.350  0.00  0.00    -0.250 OA
ATOM     27  C   UNL     1      -0.035  -1.557  25.170  0.00  0.00    +0.315 C 
BRANCH  27   6
ATOM      6  O   UNL     1      -0.470  -0.675  26.105  0.00  0.00    -0.480 OA
ATOM     30  H   UNL     1      -0.561   0.230  25.740  0.00  0.00    +0.295 HD
ENDBRANCH  27   6
ENDBRANCH  26  27
ENDBRANCH   1  26
ENDBRANCH  24   1
ENDBRANCH  23  24
TORSDOF 7
ENDMDL
