MODEL 1
REMARK VINA RESULT:       7.2      0.000      0.000
REMARK  Name = 11883092
REMARK  10 active torsions:
REMARK  status: ('A' for Active; 'I' for Inactive)
REMARK    1  A    between atoms: O_2  and  C_15
REMARK    2  A    between atoms: O_3  and  C_20
REMARK    3  A    between atoms: N_9  and  C_31
REMARK    4  A    between atoms: C_10  and  C_18
REMARK    5  A    between atoms: C_12  and  C_20
REMARK    6  A    between atoms: C_12  and  C_21
REMARK    7  A    between atoms: C_13  and  C_23
REMARK    8  A    between atoms: C_23  and  C_24
REMARK    9  A    between atoms: C_26  and  C_27
REMARK   10  A    between atoms: C_31  and  C_32
REMARK                            x       y       z     vdW  Elec       q    Type
REMARK                         _______ _______ _______ _____ _____    ______ ____
ROOT
ATOM      1  S   UNL     1       0.715   2.032  25.579  0.00  0.00    -0.057 S 
ATOM      5  O   UNL     1       2.118   0.088  21.598  0.00  0.00    -0.275 OA
ATOM      7  N   UNL     1      -0.023   1.328  23.201  0.00  0.00    -0.229 NA
ATOM      8  N   UNL     1       2.269   0.891  23.802  0.00  0.00    -0.264 N 
ATOM     10  C   UNL     1      -3.625   2.305  24.171  0.00  0.00    -0.019 C 
ATOM     11  C   UNL     1      -3.131   3.443  25.169  0.00  0.00    +0.011 C 
ATOM     12  C   UNL     1      -4.238   4.179  26.020  0.00  0.00    +0.021 C 
ATOM     13  C   UNL     1      -2.448   2.020  23.129  0.00  0.00    +0.054 C 
ATOM     14  C   UNL     1      -4.863   2.810  23.385  0.00  0.00    +0.010 C 
ATOM     15  C   UNL     1      -5.421   4.573  25.090  0.00  0.00    +0.123 C 
ATOM     16  C   UNL     1      -1.907   2.974  26.006  0.00  0.00    +0.049 C 
ATOM     17  C   UNL     1      -5.951   3.407  24.265  0.00  0.00    +0.032 C 
ATOM     18  C   UNL     1      -4.000   0.990  24.897  0.00  0.00    +0.012 C 
ATOM     19  C   UNL     1      -1.122   1.881  23.832  0.00  0.00    +0.058 A 
ATOM     21  C   UNL     1      -3.642   5.495  26.595  0.00  0.00    +0.016 C 
ATOM     22  C   UNL     1      -0.896   2.331  25.117  0.00  0.00    +0.015 A 
ATOM     25  C   UNL     1       0.999   1.349  24.029  0.00  0.00    +0.165 A 
ATOM     27  C   UNL     1       2.764   0.296  22.629  0.00  0.00    +0.222 C 
ATOM     38  H   UNL     1       2.913   1.004  24.581  0.00  0.00    +0.157 HD
ENDROOT
BRANCH  27  26
ATOM     26  C   UNL     1       4.251  -0.104  22.730  0.00  0.00    +0.075 C 
ATOM     28  C   UNL     1       4.615  -1.243  23.706  0.00  0.00    +0.013 C 
ATOM     29  C   UNL     1       5.176   0.805  23.567  0.00  0.00    +0.013 C 
ATOM     30  C   UNL     1       5.923  -0.477  23.991  0.00  0.00    +0.001 C 
ENDBRANCH  27  26
BRANCH  15   2
ATOM      2  O   UNL     1      -6.495   5.125  25.849  0.00  0.00    -0.391 OA
ATOM     36  H   UNL     1      -7.316   4.698  25.554  0.00  0.00    +0.210 HD
ENDBRANCH  15   2
BRANCH  12  20
ATOM     20  C   UNL     1      -4.742   3.381  27.243  0.00  0.00    +0.165 C 
BRANCH  20   3
ATOM      3  O   UNL     1      -5.912   2.695  26.858  0.00  0.00    -0.394 OA
ATOM     37  H   UNL     1      -6.297   2.307  27.663  0.00  0.00    +0.209 HD
ENDBRANCH  20   3
ENDBRANCH  12  20
BRANCH  13  23
ATOM     23  C   UNL     1      -2.707   0.840  22.181  0.00  0.00    +0.106 C 
BRANCH  23  24
ATOM      4  O   UNL     1      -3.995  -0.948  23.179  0.00  0.00    -0.276 OA
ATOM      9  N   UNL     1      -1.674  -1.005  23.292  0.00  0.00    -0.308 N 
ATOM     24  C   UNL     1      -2.897  -0.458  22.930  0.00  0.00    +0.214 C 
ATOM     39  H   UNL     1      -0.818  -0.527  23.024  0.00  0.00    +0.149 HD
BRANCH   9  31
ATOM     31  C   UNL     1      -1.549  -2.246  24.023  0.00  0.00    +0.178 C 
BRANCH  31  32
ATOM      6  O   UNL     1      -1.446  -1.198  26.210  0.00  0.00    -0.466 OA
ATOM     32  C   UNL     1      -2.103  -2.072  25.404  0.00  0.00    +0.122 A 
ATOM     33  C   UNL     1      -3.173  -2.627  26.065  0.00  0.00    +0.046 A 
ATOM     34  C   UNL     1      -3.175  -2.058  27.360  0.00  0.00    +0.041 A 
ATOM     35  C   UNL     1      -2.105  -1.194  27.399  0.00  0.00    +0.195 A 
ENDBRANCH  31  32
ENDBRANCH   9  31
ENDBRANCH  23  24
ENDBRANCH  13  23
TORSDOF 8
ENDMDL
MODEL 2
REMARK VINA RESULT:       7.9      2.735      4.023
REMARK  Name = 11883092
REMARK  10 active torsions:
REMARK  status: ('A' for Active; 'I' for Inactive)
REMARK    1  A    between atoms: O_2  and  C_15
REMARK    2  A    between atoms: O_3  and  C_20
REMARK    3  A    between atoms: N_9  and  C_31
REMARK    4  A    between atoms: C_10  and  C_18
REMARK    5  A    between atoms: C_12  and  C_20
REMARK    6  A    between atoms: C_12  and  C_21
REMARK    7  A    between atoms: C_13  and  C_23
REMARK    8  A    between atoms: C_23  and  C_24
REMARK    9  A    between atoms: C_26  and  C_27
REMARK   10  A    between atoms: C_31  and  C_32
REMARK                            x       y       z     vdW  Elec       q    Type
REMARK                         _______ _______ _______ _____ _____    ______ ____
ROOT
ATOM      1  S   UNL     1      -0.790  -1.047  23.798  0.00  0.00    -0.057 S 
ATOM      5  O   UNL     1       3.005   1.615  23.469  0.00  0.00    -0.275 OA
ATOM      7  N   UNL     1       0.125   1.361  24.047  0.00  0.00    -0.229 NA
ATOM      8  N   UNL     1       1.701  -0.339  23.386  0.00  0.00    -0.264 N 
ATOM     10  C   UNL     1      -3.499   2.538  24.636  0.00  0.00    -0.019 C 
ATOM     11  C   UNL     1      -3.920   1.159  25.311  0.00  0.00    +0.011 C 
ATOM     12  C   UNL     1      -5.442   0.982  25.689  0.00  0.00    +0.021 C 
ATOM     13  C   UNL     1      -1.911   2.675  24.747  0.00  0.00    +0.054 C 
ATOM     14  C   UNL     1      -4.147   3.712  25.415  0.00  0.00    +0.010 C 
ATOM     15  C   UNL     1      -5.940   2.262  26.419  0.00  0.00    +0.123 C 
ATOM     16  C   UNL     1      -3.320  -0.056  24.546  0.00  0.00    +0.049 C 
ATOM     17  C   UNL     1      -5.640   3.545  25.653  0.00  0.00    +0.032 C 
ATOM     18  C   UNL     1      -3.922   2.634  23.151  0.00  0.00    +0.012 C 
ATOM     19  C   UNL     1      -1.226   1.397  24.337  0.00  0.00    +0.058 A 
ATOM     21  C   UNL     1      -5.582  -0.204  26.686  0.00  0.00    +0.016 C 
ATOM     22  C   UNL     1      -1.873   0.179  24.270  0.00  0.00    +0.015 A 
ATOM     25  C   UNL     1       0.463   0.126  23.742  0.00  0.00    +0.165 A 
ATOM     27  C   UNL     1       2.889   0.403  23.267  0.00  0.00    +0.222 C 
ATOM     38  H   UNL     1       1.746  -1.336  23.190  0.00  0.00    +0.157 HD
ENDROOT
BRANCH  27  26
ATOM     26  C   UNL     1       4.100  -0.452  22.838  0.00  0.00    +0.075 C 
ATOM     28  C   UNL     1       4.512  -1.615  23.765  0.00  0.00    +0.013 C 
ATOM     29  C   UNL     1       5.506   0.136  23.079  0.00  0.00    +0.013 C 
ATOM     30  C   UNL     1       5.973  -1.304  23.380  0.00  0.00    +0.001 C 
ENDBRANCH  27  26
BRANCH  15   2
ATOM      2  O   UNL     1      -7.344   2.188  26.660  0.00  0.00    -0.391 OA
ATOM     36  H   UNL     1      -7.509   2.529  27.556  0.00  0.00    +0.210 HD
ENDBRANCH  15   2
BRANCH  12  20
ATOM     20  C   UNL     1      -6.362   0.634  24.498  0.00  0.00    +0.165 C 
BRANCH  20   3
ATOM      3  O   UNL     1      -7.261   1.705  24.320  0.00  0.00    -0.394 OA
ATOM     37  H   UNL     1      -7.792   1.509  23.529  0.00  0.00    +0.209 HD
ENDBRANCH  20   3
ENDBRANCH  12  20
BRANCH  13  23
ATOM     23  C   UNL     1      -1.322   3.888  24.012  0.00  0.00    +0.106 C 
BRANCH  23  24
ATOM      4  O   UNL     1       0.076   5.741  24.692  0.00  0.00    -0.276 OA
ATOM      9  N   UNL     1       0.379   3.655  25.672  0.00  0.00    -0.308 N 
ATOM     24  C   UNL     1      -0.226   4.556  24.808  0.00  0.00    +0.214 C 
ATOM     39  H   UNL     1       0.044   2.696  25.704  0.00  0.00    +0.149 HD
BRANCH   9  31
ATOM     31  C   UNL     1       1.463   4.016  26.557  0.00  0.00    +0.178 C 
BRANCH  31  32
ATOM      6  O   UNL     1       2.553   3.067  28.508  0.00  0.00    -0.466 OA
ATOM     32  C   UNL     1       1.402   3.174  27.794  0.00  0.00    +0.122 A 
ATOM     33  C   UNL     1       0.395   2.453  28.393  0.00  0.00    +0.046 A 
ATOM     34  C   UNL     1       0.963   1.866  29.548  0.00  0.00    +0.041 A 
ATOM     35  C   UNL     1       2.278   2.269  29.574  0.00  0.00    +0.195 A 
ENDBRANCH  31  32
ENDBRANCH   9  31
ENDBRANCH  23  24
ENDBRANCH  13  23
TORSDOF 8
ENDMDL
MODEL 3
REMARK VINA RESULT:      10.2      1.864      2.999
REMARK  Name = 11883092
REMARK  10 active torsions:
REMARK  status: ('A' for Active; 'I' for Inactive)
REMARK    1  A    between atoms: O_2  and  C_15
REMARK    2  A    between atoms: O_3  and  C_20
REMARK    3  A    between atoms: N_9  and  C_31
REMARK    4  A    between atoms: C_10  and  C_18
REMARK    5  A    between atoms: C_12  and  C_20
REMARK    6  A    between atoms: C_12  and  C_21
REMARK    7  A    between atoms: C_13  and  C_23
REMARK    8  A    between atoms: C_23  and  C_24
REMARK    9  A    between atoms: C_26  and  C_27
REMARK   10  A    between atoms: C_31  and  C_32
REMARK                            x       y       z     vdW  Elec       q    Type
REMARK                         _______ _______ _______ _____ _____    ______ ____
ROOT
ATOM      1  S   UNL     1       0.474   2.756  24.095  0.00  0.00    -0.057 S 
ATOM      5  O   UNL     1       2.888  -1.010  22.836  0.00  0.00    -0.275 OA
ATOM      7  N   UNL     1       0.314   0.228  23.566  0.00  0.00    -0.229 NA
ATOM      8  N   UNL     1       2.497   1.237  23.403  0.00  0.00    -0.264 N 
ATOM     10  C   UNL     1      -3.378   0.364  24.667  0.00  0.00    -0.019 C 
ATOM     11  C   UNL     1      -3.547   1.874  24.191  0.00  0.00    +0.011 C 
ATOM     12  C   UNL     1      -4.923   2.576  24.510  0.00  0.00    +0.021 C 
ATOM     13  C   UNL     1      -2.140  -0.266  23.879  0.00  0.00    +0.054 C 
ATOM     14  C   UNL     1      -4.653  -0.438  24.297  0.00  0.00    +0.010 C 
ATOM     15  C   UNL     1      -6.087   1.621  24.123  0.00  0.00    +0.123 C 
ATOM     16  C   UNL     1      -2.304   2.731  24.568  0.00  0.00    +0.049 C 
ATOM     17  C   UNL     1      -5.950   0.230  24.730  0.00  0.00    +0.032 C 
ATOM     18  C   UNL     1      -3.138   0.238  26.191  0.00  0.00    +0.012 C 
ATOM     19  C   UNL     1      -0.955   0.665  23.897  0.00  0.00    +0.058 A 
ATOM     21  C   UNL     1      -5.057   3.851  23.628  0.00  0.00    +0.016 C 
ATOM     22  C   UNL     1      -1.053   2.010  24.192  0.00  0.00    +0.015 A 
ATOM     25  C   UNL     1       1.149   1.243  23.643  0.00  0.00    +0.165 A 
ATOM     27  C   UNL     1       3.290   0.142  23.020  0.00  0.00    +0.222 C 
ATOM     38  H   UNL     1       2.958   2.136  23.521  0.00  0.00    +0.157 HD
ENDROOT
BRANCH  27  26
ATOM     26  C   UNL     1       4.780   0.503  22.842  0.00  0.00    +0.075 C 
ATOM     28  C   UNL     1       5.772  -0.659  22.629  0.00  0.00    +0.013 C 
ATOM     29  C   UNL     1       5.582   0.853  24.112  0.00  0.00    +0.013 C 
ATOM     30  C   UNL     1       6.790   0.161  23.447  0.00  0.00    +0.001 C 
ENDBRANCH  27  26
BRANCH  15   2
ATOM      2  O   UNL     1      -7.343   2.172  24.517  0.00  0.00    -0.391 OA
ATOM     36  H   UNL     1      -7.518   2.943  23.951  0.00  0.00    +0.210 HD
ENDBRANCH  15   2
BRANCH  12  20
ATOM     20  C   UNL     1      -5.072   3.062  25.969  0.00  0.00    +0.165 C 
BRANCH  20   3
ATOM      3  O   UNL     1      -6.073   4.055  25.993  0.00  0.00    -0.394 OA
ATOM     37  H   UNL     1      -6.162   4.353  26.914  0.00  0.00    +0.209 HD
ENDBRANCH  20   3
ENDBRANCH  12  20
BRANCH  13  23
ATOM     23  C   UNL     1      -1.749  -1.680  24.330  0.00  0.00    +0.106 C 
BRANCH  23  24
ATOM      4  O   UNL     1       0.247  -2.383  25.503  0.00  0.00    -0.276 OA
ATOM      9  N   UNL     1      -1.097  -0.721  26.418  0.00  0.00    -0.308 N 
ATOM     24  C   UNL     1      -0.745  -1.658  25.458  0.00  0.00    +0.214 C 
ATOM     39  H   UNL     1      -1.932  -0.159  26.279  0.00  0.00    +0.149 HD
BRANCH   9  31
ATOM     31  C   UNL     1      -0.320  -0.484  27.613  0.00  0.00    +0.178 C 
BRANCH  31  32
ATOM      6  O   UNL     1       0.817   1.336  28.749  0.00  0.00    -0.466 OA
ATOM     32  C   UNL     1       0.093   0.955  27.664  0.00  0.00    +0.122 A 
ATOM     33  C   UNL     1      -0.109   2.022  26.820  0.00  0.00    +0.046 A 
ATOM     34  C   UNL     1       0.532   3.129  27.425  0.00  0.00    +0.041 A 
ATOM     35  C   UNL     1       1.081   2.661  28.596  0.00  0.00    +0.195 A 
ENDBRANCH  31  32
ENDBRANCH   9  31
ENDBRANCH  23  24
ENDBRANCH  13  23
TORSDOF 8
ENDMDL
