MODEL 1
REMARK VINA RESULT:      10.7      0.000      0.000
REMARK  Name = 45361707
REMARK  8 active torsions:
REMARK  status: ('A' for Active; 'I' for Inactive)
REMARK    1  A    between atoms: S_1  and  N_8
REMARK    2  A    between atoms: S_1  and  C_25
REMARK    3  A    between atoms: N_10  and  C_24
REMARK    4  A    between atoms: C_13  and  C_23
REMARK    5  A    between atoms: C_14  and  C_18
REMARK    6  A    between atoms: C_24  and  C_26
REMARK    7  A    between atoms: C_24  and  C_30
REMARK    8  A    between atoms: C_26  and  C_27
REMARK                            x       y       z     vdW  Elec       q    Type
REMARK                         _______ _______ _______ _____ _____    ______ ____
ROOT
ATOM      2  O   UNL     1      -3.266   0.255  23.614  0.00  0.00    -0.275 OA
ATOM      7  N   UNL     1      -0.991   0.610  23.948  0.00  0.00    -0.287 N 
ATOM      8  N   UNL     1       1.593   1.160  22.858  0.00  0.00    -0.173 NA
ATOM     13  C   UNL     1       0.187   0.601  24.831  0.00  0.00    +0.177 C 
ATOM     15  C   UNL     1       1.490   0.315  24.085  0.00  0.00    +0.141 C 
ATOM     16  C   UNL     1      -0.844   1.331  22.679  0.00  0.00    +0.125 C 
ATOM     17  C   UNL     1       0.433   0.942  21.950  0.00  0.00    +0.128 C 
ATOM     18  C   UNL     1      -2.253   0.120  24.303  0.00  0.00    +0.219 C 
ENDROOT
BRANCH  18  14
ATOM      9  N   UNL     1      -3.063  -3.428  25.139  0.00  0.00    -0.316 NA
ATOM     14  C   UNL     1      -2.347  -0.622  25.607  0.00  0.00    +0.078 C 
ATOM     19  C   UNL     1      -1.320  -1.754  25.665  0.00  0.00    +0.028 C 
ATOM     20  C   UNL     1      -3.763  -1.157  25.827  0.00  0.00    +0.028 C 
ATOM     21  C   UNL     1      -1.724  -2.949  24.800  0.00  0.00    +0.081 C 
ATOM     22  C   UNL     1      -4.065  -2.377  24.956  0.00  0.00    +0.081 C 
ATOM     41  H   UNL     1      -3.297  -4.224  24.547  0.00  0.00    +0.122 HD
ENDBRANCH  18  14
BRANCH  13  23
ATOM      3  O   UNL     1       1.090   2.221  26.338  0.00  0.00    -0.274 OA
ATOM     10  N   UNL     1      -0.830   2.751  25.132  0.00  0.00    -0.302 N 
ATOM     23  C   UNL     1       0.220   1.935  25.518  0.00  0.00    +0.235 C 
ATOM     42  H   UNL     1      -1.418   2.464  24.355  0.00  0.00    +0.150 HD
BRANCH  10  24
ATOM     24  C   UNL     1      -1.037   4.078  25.665  0.00  0.00    +0.163 C 
BRANCH  24  30
ATOM      6  O   UNL     1       0.080   4.769  23.619  0.00  0.00    -0.274 OA
ATOM     12  N   UNL     1      -1.170   6.318  24.765  0.00  0.00    -0.328 N 
ATOM     30  C   UNL     1      -0.625   5.065  24.581  0.00  0.00    +0.231 C 
ATOM     44  H   UNL     1      -1.771   6.542  25.552  0.00  0.00    +0.145 HD
ATOM     45  H   UNL     1      -0.986   7.068  24.107  0.00  0.00    +0.145 HD
ENDBRANCH  24  30
BRANCH  24  26
ATOM     26  C   UNL     1      -2.494   4.317  26.077  0.00  0.00    +0.069 C 
BRANCH  26  27
ATOM     11  N   UNL     1      -4.495   2.928  23.314  0.00  0.00    -0.360 N 
ATOM     27  C   UNL     1      -3.479   3.641  25.154  0.00  0.00    -0.020 A 
ATOM     31  C   UNL     1      -4.624   2.889  25.541  0.00  0.00    +0.003 A 
ATOM     32  C   UNL     1      -3.427   3.648  23.779  0.00  0.00    +0.087 A 
ATOM     35  C   UNL     1      -5.243   2.452  24.368  0.00  0.00    +0.047 A 
ATOM     37  C   UNL     1      -5.192   2.535  26.781  0.00  0.00    +0.010 A 
ATOM     38  C   UNL     1      -6.407   1.677  24.372  0.00  0.00    +0.026 A 
ATOM     39  C   UNL     1      -6.358   1.760  26.800  0.00  0.00    +0.001 A 
ATOM     40  C   UNL     1      -6.954   1.338  25.613  0.00  0.00    +0.002 A 
ATOM     43  H   UNL     1      -4.705   2.767  22.339  0.00  0.00    +0.165 HD
ENDBRANCH  26  27
ENDBRANCH  24  26
ENDBRANCH  10  24
ENDBRANCH  13  23
BRANCH   8   1
ATOM      1  S   UNL     1       3.130   1.169  22.100  0.00  0.00    +0.061 S 
ATOM      4  O   UNL     1       3.728   2.477  22.262  0.00  0.00    -0.153 OA
ATOM      5  O   UNL     1       3.013   0.559  20.793  0.00  0.00    -0.153 OA
BRANCH   1  25
ATOM     25  C   UNL     1       3.997   0.044  23.149  0.00  0.00    +0.105 A 
ATOM     28  C   UNL     1       5.131   0.469  23.841  0.00  0.00    +0.028 A 
ATOM     29  C   UNL     1       3.549  -1.270  23.285  0.00  0.00    +0.028 A 
ATOM     33  C   UNL     1       5.818  -0.419  24.667  0.00  0.00    +0.002 A 
ATOM     34  C   UNL     1       4.236  -2.159  24.111  0.00  0.00    +0.002 A 
ATOM     36  C   UNL     1       5.371  -1.734  24.803  0.00  0.00    +0.000 A 
ENDBRANCH   1  25
ENDBRANCH   8   1
TORSDOF 8
ENDMDL
MODEL 2
REMARK VINA RESULT:      12.2      2.327      6.125
REMARK  Name = 45361707
REMARK  8 active torsions:
REMARK  status: ('A' for Active; 'I' for Inactive)
REMARK    1  A    between atoms: S_1  and  N_8
REMARK    2  A    between atoms: S_1  and  C_25
REMARK    3  A    between atoms: N_10  and  C_24
REMARK    4  A    between atoms: C_13  and  C_23
REMARK    5  A    between atoms: C_14  and  C_18
REMARK    6  A    between atoms: C_24  and  C_26
REMARK    7  A    between atoms: C_24  and  C_30
REMARK    8  A    between atoms: C_26  and  C_27
REMARK                            x       y       z     vdW  Elec       q    Type
REMARK                         _______ _______ _______ _____ _____    ______ ____
ROOT
ATOM      2  O   UNL     1       3.142  -1.702  24.022  0.00  0.00    -0.275 OA
ATOM      7  N   UNL     1       0.897  -1.093  24.043  0.00  0.00    -0.287 N 
ATOM      8  N   UNL     1      -1.833  -1.799  24.509  0.00  0.00    -0.173 NA
ATOM     13  C   UNL     1      -0.168  -0.128  23.723  0.00  0.00    +0.177 C 
ATOM     15  C   UNL     1      -1.516  -0.796  23.450  0.00  0.00    +0.141 C 
ATOM     16  C   UNL     1       0.542  -2.158  24.987  0.00  0.00    +0.125 C 
ATOM     17  C   UNL     1      -0.768  -2.835  24.613  0.00  0.00    +0.128 C 
ATOM     18  C   UNL     1       2.229  -0.968  23.636  0.00  0.00    +0.219 C 
ENDROOT
BRANCH  18  14
ATOM      9  N   UNL     1       5.369   0.881  22.819  0.00  0.00    -0.316 NA
ATOM     14  C   UNL     1       2.537   0.132  22.660  0.00  0.00    +0.078 C 
ATOM     19  C   UNL     1       3.569  -0.327  21.628  0.00  0.00    +0.028 C 
ATOM     20  C   UNL     1       3.016   1.389  23.389  0.00  0.00    +0.028 C 
ATOM     21  C   UNL     1       4.982  -0.391  22.210  0.00  0.00    +0.081 C 
ATOM     22  C   UNL     1       4.452   1.254  23.896  0.00  0.00    +0.081 C 
ATOM     41  H   UNL     1       6.314   0.803  23.193  0.00  0.00    +0.122 HD
ENDBRANCH  18  14
BRANCH  13  23
ATOM      3  O   UNL     1      -0.618   0.472  25.991  0.00  0.00    -0.274 OA
ATOM     10  N   UNL     1       0.126   2.113  24.517  0.00  0.00    -0.302 N 
ATOM     23  C   UNL     1      -0.245   0.829  24.876  0.00  0.00    +0.235 C 
ATOM     42  H   UNL     1       0.537   2.271  23.603  0.00  0.00    +0.150 HD
BRANCH  10  24
ATOM     24  C   UNL     1       0.117   3.225  25.440  0.00  0.00    +0.163 C 
BRANCH  24  30
ATOM      6  O   UNL     1      -0.396   5.569  25.051  0.00  0.00    -0.274 OA
ATOM     12  N   UNL     1       0.448   4.327  23.314  0.00  0.00    -0.328 N 
ATOM     30  C   UNL     1       0.004   4.495  24.609  0.00  0.00    +0.231 C 
ATOM     44  H   UNL     1       0.798   3.439  22.968  0.00  0.00    +0.145 HD
ATOM     45  H   UNL     1       0.440   5.099  22.656  0.00  0.00    +0.145 HD
ENDBRANCH  24  30
BRANCH  24  26
ATOM     26  C   UNL     1      -1.042   3.139  26.440  0.00  0.00    +0.069 C 
BRANCH  26  27
ATOM     11  N   UNL     1      -4.334   4.583  25.637  0.00  0.00    -0.360 N 
ATOM     27  C   UNL     1      -2.354   3.604  25.856  0.00  0.00    -0.020 A 
ATOM     31  C   UNL     1      -2.846   3.325  24.550  0.00  0.00    +0.003 A 
ATOM     32  C   UNL     1      -3.291   4.379  26.500  0.00  0.00    +0.087 A 
ATOM     35  C   UNL     1      -4.089   3.951  24.438  0.00  0.00    +0.047 A 
ATOM     37  C   UNL     1      -2.350   2.599  23.449  0.00  0.00    +0.010 A 
ATOM     38  C   UNL     1      -4.865   3.886  23.276  0.00  0.00    +0.026 A 
ATOM     39  C   UNL     1      -3.116   2.524  22.279  0.00  0.00    +0.001 A 
ATOM     40  C   UNL     1      -4.354   3.159  22.196  0.00  0.00    +0.002 A 
ATOM     43  H   UNL     1      -5.164   5.119  25.847  0.00  0.00    +0.165 HD
ENDBRANCH  26  27
ENDBRANCH  24  26
ENDBRANCH  10  24
ENDBRANCH  13  23
BRANCH   8   1
ATOM      1  S   UNL     1      -3.440  -2.393  24.500  0.00  0.00    +0.061 S 
ATOM      4  O   UNL     1      -3.608  -3.319  25.601  0.00  0.00    -0.153 OA
ATOM      5  O   UNL     1      -3.794  -2.770  23.149  0.00  0.00    -0.153 OA
BRANCH   1  25
ATOM     25  C   UNL     1      -4.318  -0.914  24.899  0.00  0.00    +0.105 A 
ATOM     28  C   UNL     1      -5.283  -0.418  24.024  0.00  0.00    +0.028 A 
ATOM     29  C   UNL     1      -4.044  -0.240  26.089  0.00  0.00    +0.028 A 
ATOM     33  C   UNL     1      -5.975   0.752  24.336  0.00  0.00    +0.002 A 
ATOM     34  C   UNL     1      -4.735   0.930  26.402  0.00  0.00    +0.002 A 
ATOM     36  C   UNL     1      -5.701   1.427  25.526  0.00  0.00    +0.000 A 
ENDBRANCH   1  25
ENDBRANCH   8   1
TORSDOF 8
ENDMDL
MODEL 3
REMARK VINA RESULT:      12.5      2.135      6.364
REMARK  Name = 45361707
REMARK  8 active torsions:
REMARK  status: ('A' for Active; 'I' for Inactive)
REMARK    1  A    between atoms: S_1  and  N_8
REMARK    2  A    between atoms: S_1  and  C_25
REMARK    3  A    between atoms: N_10  and  C_24
REMARK    4  A    between atoms: C_13  and  C_23
REMARK    5  A    between atoms: C_14  and  C_18
REMARK    6  A    between atoms: C_24  and  C_26
REMARK    7  A    between atoms: C_24  and  C_30
REMARK    8  A    between atoms: C_26  and  C_27
REMARK                            x       y       z     vdW  Elec       q    Type
REMARK                         _______ _______ _______ _____ _____    ______ ____
ROOT
ATOM      2  O   UNL     1       2.817  -1.118  22.976  0.00  0.00    -0.275 OA
ATOM      7  N   UNL     1       1.225   0.555  23.261  0.00  0.00    -0.287 N 
ATOM      8  N   UNL     1      -1.484   1.431  23.015  0.00  0.00    -0.173 NA
ATOM     13  C   UNL     1       0.882   1.951  23.577  0.00  0.00    +0.177 C 
ATOM     15  C   UNL     1      -0.384   2.430  22.866  0.00  0.00    +0.141 C 
ATOM     16  C   UNL     1       0.116  -0.405  23.279  0.00  0.00    +0.125 C 
ATOM     17  C   UNL     1      -1.082   0.098  22.488  0.00  0.00    +0.128 C 
ATOM     18  C   UNL     1       2.530   0.075  23.102  0.00  0.00    +0.219 C 
ENDROOT
BRANCH  18  14
ATOM      9  N   UNL     1       6.251  -0.207  23.221  0.00  0.00    -0.316 NA
ATOM     14  C   UNL     1       3.628   1.100  23.079  0.00  0.00    +0.078 C 
ATOM     19  C   UNL     1       4.522   0.913  21.851  0.00  0.00    +0.028 C 
ATOM     20  C   UNL     1       4.451   1.045  24.367  0.00  0.00    +0.028 C 
ATOM     21  C   UNL     1       5.460  -0.287  21.994  0.00  0.00    +0.081 C 
ATOM     22  C   UNL     1       5.392  -0.160  24.404  0.00  0.00    +0.081 C 
ATOM     41  H   UNL     1       6.864  -1.018  23.281  0.00  0.00    +0.122 HD
ENDBRANCH  18  14
BRANCH  13  23
ATOM      3  O   UNL     1       1.176   2.994  25.706  0.00  0.00    -0.274 OA
ATOM     10  N   UNL     1       0.122   0.921  25.603  0.00  0.00    -0.302 N 
ATOM     23  C   UNL     1       0.747   2.034  25.069  0.00  0.00    +0.235 C 
ATOM     42  H   UNL     1      -0.304   0.245  24.976  0.00  0.00    +0.150 HD
BRANCH  10  24
ATOM     24  C   UNL     1      -0.108   0.746  27.019  0.00  0.00    +0.163 C 
BRANCH  24  30
ATOM      6  O   UNL     1      -1.162   2.915  27.326  0.00  0.00    -0.274 OA
ATOM     12  N   UNL     1       0.697   2.411  28.577  0.00  0.00    -0.328 N 
ATOM     30  C   UNL     1      -0.259   2.135  27.622  0.00  0.00    +0.231 C 
ATOM     44  H   UNL     1       1.424   1.748  28.828  0.00  0.00    +0.145 HD
ATOM     45  H   UNL     1       0.704   3.299  29.067  0.00  0.00    +0.145 HD
ENDBRANCH  24  30
BRANCH  24  26
ATOM     26  C   UNL     1      -1.356  -0.097  27.304  0.00  0.00    +0.069 C 
BRANCH  26  27
ATOM     11  N   UNL     1      -1.289  -2.912  24.929  0.00  0.00    -0.360 N 
ATOM     27  C   UNL     1      -1.593  -1.161  26.260  0.00  0.00    -0.020 A 
ATOM     31  C   UNL     1      -2.762  -1.323  25.465  0.00  0.00    +0.003 A 
ATOM     32  C   UNL     1      -0.705  -2.152  25.907  0.00  0.00    +0.087 A 
ATOM     35  C   UNL     1      -2.546  -2.429  24.639  0.00  0.00    +0.047 A 
ATOM     37  C   UNL     1      -3.987  -0.634  25.371  0.00  0.00    +0.010 A 
ATOM     38  C   UNL     1      -3.498  -2.881  23.719  0.00  0.00    +0.026 A 
ATOM     39  C   UNL     1      -4.949  -1.075  24.453  0.00  0.00    +0.001 A 
ATOM     40  C   UNL     1      -4.706  -2.181  23.642  0.00  0.00    +0.002 A 
ATOM     43  H   UNL     1      -0.862  -3.711  24.483  0.00  0.00    +0.165 HD
ENDBRANCH  26  27
ENDBRANCH  24  26
ENDBRANCH  10  24
ENDBRANCH  13  23
BRANCH   8   1
ATOM      1  S   UNL     1      -3.038   1.974  22.539  0.00  0.00    +0.061 S 
ATOM      4  O   UNL     1      -3.907   0.828  22.368  0.00  0.00    -0.153 OA
ATOM      5  O   UNL     1      -2.891   2.961  21.491  0.00  0.00    -0.153 OA
BRANCH   1  25
ATOM     25  C   UNL     1      -3.535   2.814  24.011  0.00  0.00    +0.105 A 
ATOM     28  C   UNL     1      -2.669   3.720  24.622  0.00  0.00    +0.028 A 
ATOM     29  C   UNL     1      -4.792   2.569  24.563  0.00  0.00    +0.028 A 
ATOM     33  C   UNL     1      -3.059   4.382  25.786  0.00  0.00    +0.002 A 
ATOM     34  C   UNL     1      -5.182   3.231  25.727  0.00  0.00    +0.002 A 
ATOM     36  C   UNL     1      -4.316   4.137  26.339  0.00  0.00    +0.000 A 
ENDBRANCH   1  25
ENDBRANCH   8   1
TORSDOF 8
ENDMDL
MODEL 4
REMARK VINA RESULT:      12.7      2.718      8.043
REMARK  Name = 45361707
REMARK  8 active torsions:
REMARK  status: ('A' for Active; 'I' for Inactive)
REMARK    1  A    between atoms: S_1  and  N_8
REMARK    2  A    between atoms: S_1  and  C_25
REMARK    3  A    between atoms: N_10  and  C_24
REMARK    4  A    between atoms: C_13  and  C_23
REMARK    5  A    between atoms: C_14  and  C_18
REMARK    6  A    between atoms: C_24  and  C_26
REMARK    7  A    between atoms: C_24  and  C_30
REMARK    8  A    between atoms: C_26  and  C_27
REMARK                            x       y       z     vdW  Elec       q    Type
REMARK                         _______ _______ _______ _____ _____    ______ ____
ROOT
ATOM      2  O   UNL     1       2.101   3.182  27.321  0.00  0.00    -0.275 OA
ATOM      7  N   UNL     1       0.055   2.485  26.462  0.00  0.00    -0.287 N 
ATOM      8  N   UNL     1      -1.954   2.686  24.438  0.00  0.00    -0.173 NA
ATOM     13  C   UNL     1      -1.198   1.726  26.603  0.00  0.00    +0.177 C 
ATOM     15  C   UNL     1      -2.364   2.347  25.833  0.00  0.00    +0.141 C 
ATOM     16  C   UNL     1       0.390   2.933  25.106  0.00  0.00    +0.125 C 
ATOM     17  C   UNL     1      -0.788   3.613  24.425  0.00  0.00    +0.128 C 
ATOM     18  C   UNL     1       0.993   2.666  27.483  0.00  0.00    +0.219 C 
ENDROOT
BRANCH  18  14
ATOM      9  N   UNL     1       2.794   2.615  30.754  0.00  0.00    -0.316 NA
ATOM     14  C   UNL     1       0.596   2.200  28.855  0.00  0.00    +0.078 C 
ATOM     19  C   UNL     1       0.615   3.361  29.851  0.00  0.00    +0.028 C 
ATOM     20  C   UNL     1       1.502   1.061  29.327  0.00  0.00    +0.028 C 
ATOM     21  C   UNL     1       2.037   3.760  30.250  0.00  0.00    +0.081 C 
ATOM     22  C   UNL     1       2.886   1.556  29.749  0.00  0.00    +0.081 C 
ATOM     41  H   UNL     1       3.732   2.918  31.012  0.00  0.00    +0.122 HD
ENDBRANCH  18  14
BRANCH  13  23
ATOM      3  O   UNL     1      -1.080  -0.646  26.874  0.00  0.00    -0.274 OA
ATOM     10  N   UNL     1      -0.425   0.291  24.846  0.00  0.00    -0.302 N 
ATOM     23  C   UNL     1      -0.909   0.327  26.142  0.00  0.00    +0.235 C 
ATOM     42  H   UNL     1      -0.442   1.141  24.289  0.00  0.00    +0.150 HD
BRANCH  10  24
ATOM     24  C   UNL     1      -0.049  -0.932  24.176  0.00  0.00    +0.163 C 
BRANCH  24  30
ATOM      6  O   UNL     1      -1.340  -2.971  23.883  0.00  0.00    -0.274 OA
ATOM     12  N   UNL     1      -2.460  -0.969  23.991  0.00  0.00    -0.328 N 
ATOM     30  C   UNL     1      -1.321  -1.747  23.986  0.00  0.00    +0.231 C 
ATOM     44  H   UNL     1      -2.431   0.040  24.101  0.00  0.00    +0.145 HD
ATOM     45  H   UNL     1      -3.377  -1.388  23.886  0.00  0.00    +0.145 HD
ENDBRANCH  24  30
BRANCH  24  26
ATOM     26  C   UNL     1       0.622  -0.670  22.822  0.00  0.00    +0.069 C 
BRANCH  26  27
ATOM     11  N   UNL     1       3.347   1.806  22.950  0.00  0.00    -0.360 N 
ATOM     27  C   UNL     1       1.902   0.120  22.949  0.00  0.00    -0.020 A 
ATOM     31  C   UNL     1       3.181  -0.390  23.309  0.00  0.00    +0.003 A 
ATOM     32  C   UNL     1       2.036   1.473  22.734  0.00  0.00    +0.087 A 
ATOM     35  C   UNL     1       4.069   0.687  23.302  0.00  0.00    +0.047 A 
ATOM     37  C   UNL     1       3.668  -1.670  23.641  0.00  0.00    +0.010 A 
ATOM     38  C   UNL     1       5.426   0.549  23.612  0.00  0.00    +0.026 A 
ATOM     39  C   UNL     1       5.025  -1.823  23.953  0.00  0.00    +0.001 A 
ATOM     40  C   UNL     1       5.888  -0.729  23.938  0.00  0.00    +0.002 A 
ATOM     43  H   UNL     1       3.730   2.736  22.863  0.00  0.00    +0.165 HD
ENDBRANCH  26  27
ENDBRANCH  24  26
ENDBRANCH  10  24
ENDBRANCH  13  23
BRANCH   8   1
ATOM      1  S   UNL     1      -3.235   3.098  23.377  0.00  0.00    +0.061 S 
ATOM      4  O   UNL     1      -3.214   2.200  22.242  0.00  0.00    -0.153 OA
ATOM      5  O   UNL     1      -3.249   4.533  23.192  0.00  0.00    -0.153 OA
BRANCH   1  25
ATOM     25  C   UNL     1      -4.619   2.666  24.383  0.00  0.00    +0.105 A 
ATOM     28  C   UNL     1      -5.215   3.627  25.200  0.00  0.00    +0.028 A 
ATOM     29  C   UNL     1      -5.117   1.363  24.364  0.00  0.00    +0.028 A 
ATOM     33  C   UNL     1      -6.307   3.286  25.998  0.00  0.00    +0.002 A 
ATOM     34  C   UNL     1      -6.208   1.021  25.161  0.00  0.00    +0.002 A 
ATOM     36  C   UNL     1      -6.804   1.982  25.979  0.00  0.00    +0.000 A 
ENDBRANCH   1  25
ENDBRANCH   8   1
TORSDOF 8
ENDMDL
MODEL 5
REMARK VINA RESULT:      12.8      1.802      5.174
REMARK  Name = 45361707
REMARK  8 active torsions:
REMARK  status: ('A' for Active; 'I' for Inactive)
REMARK    1  A    between atoms: S_1  and  N_8
REMARK    2  A    between atoms: S_1  and  C_25
REMARK    3  A    between atoms: N_10  and  C_24
REMARK    4  A    between atoms: C_13  and  C_23
REMARK    5  A    between atoms: C_14  and  C_18
REMARK    6  A    between atoms: C_24  and  C_26
REMARK    7  A    between atoms: C_24  and  C_30
REMARK    8  A    between atoms: C_26  and  C_27
REMARK                            x       y       z     vdW  Elec       q    Type
REMARK                         _______ _______ _______ _____ _____    ______ ____
ROOT
ATOM      2  O   UNL     1      -1.018   4.010  26.487  0.00  0.00    -0.275 OA
ATOM      7  N   UNL     1      -1.103   2.616  24.626  0.00  0.00    -0.287 N 
ATOM      8  N   UNL     1      -0.011   0.427  23.148  0.00  0.00    -0.173 NA
ATOM     13  C   UNL     1      -1.661   2.280  23.306  0.00  0.00    +0.177 C 
ATOM     15  C   UNL     1      -0.667   1.545  22.407  0.00  0.00    +0.141 C 
ATOM     16  C   UNL     1      -0.344   1.555  25.297  0.00  0.00    +0.125 C 
ATOM     17  C   UNL     1       0.682   0.919  24.371  0.00  0.00    +0.128 C 
ATOM     18  C   UNL     1      -1.375   3.796  25.326  0.00  0.00    +0.219 C 
ENDROOT
BRANCH  18  14
ATOM      9  N   UNL     1      -4.829   5.156  25.738  0.00  0.00    -0.316 NA
ATOM     14  C   UNL     1      -2.145   4.856  24.590  0.00  0.00    +0.078 C 
ATOM     19  C   UNL     1      -2.516   6.008  25.525  0.00  0.00    +0.028 C 
ATOM     20  C   UNL     1      -3.393   4.264  23.931  0.00  0.00    +0.028 C 
ATOM     21  C   UNL     1      -3.661   5.643  26.471  0.00  0.00    +0.081 C 
ATOM     22  C   UNL     1      -4.501   3.971  24.944  0.00  0.00    +0.081 C 
ATOM     41  H   UNL     1      -5.570   4.925  26.398  0.00  0.00    +0.122 HD
ENDBRANCH  18  14
BRANCH  13  23
ATOM      3  O   UNL     1      -3.534   0.957  22.635  0.00  0.00    -0.274 OA
ATOM     10  N   UNL     1      -3.211   1.387  24.901  0.00  0.00    -0.302 N 
ATOM     23  C   UNL     1      -2.896   1.465  23.555  0.00  0.00    +0.235 C 
ATOM     42  H   UNL     1      -2.547   1.736  25.585  0.00  0.00    +0.150 HD
BRANCH  10  24
ATOM     24  C   UNL     1      -4.366   0.678  25.402  0.00  0.00    +0.163 C 
BRANCH  24  30
ATOM      6  O   UNL     1      -5.442   2.508  26.587  0.00  0.00    -0.274 OA
ATOM     12  N   UNL     1      -6.433   1.703  24.678  0.00  0.00    -0.328 N 
ATOM     30  C   UNL     1      -5.454   1.714  25.649  0.00  0.00    +0.231 C 
ATOM     44  H   UNL     1      -6.418   1.056  23.895  0.00  0.00    +0.145 HD
ATOM     45  H   UNL     1      -7.211   2.352  24.715  0.00  0.00    +0.145 HD
ENDBRANCH  24  30
BRANCH  24  26
ATOM     26  C   UNL     1      -4.862  -0.391  24.421  0.00  0.00    +0.069 C 
BRANCH  26  27
ATOM     11  N   UNL     1      -3.006  -3.479  23.656  0.00  0.00    -0.360 N 
ATOM     27  C   UNL     1      -3.903  -1.549  24.286  0.00  0.00    -0.020 A 
ATOM     31  C   UNL     1      -2.645  -1.687  24.935  0.00  0.00    +0.003 A 
ATOM     32  C   UNL     1      -4.098  -2.667  23.508  0.00  0.00    +0.087 A 
ATOM     35  C   UNL     1      -2.102  -2.906  24.523  0.00  0.00    +0.047 A 
ATOM     37  C   UNL     1      -1.912  -0.888  25.836  0.00  0.00    +0.010 A 
ATOM     38  C   UNL     1      -0.859  -3.368  24.968  0.00  0.00    +0.026 A 
ATOM     39  C   UNL     1      -0.667  -1.338  26.291  0.00  0.00    +0.001 A 
ATOM     40  C   UNL     1      -0.150  -2.559  25.862  0.00  0.00    +0.002 A 
ATOM     43  H   UNL     1      -2.879  -4.370  23.198  0.00  0.00    +0.165 HD
ENDBRANCH  26  27
ENDBRANCH  24  26
ENDBRANCH  10  24
ENDBRANCH  13  23
BRANCH   8   1
ATOM      1  S   UNL     1       0.887  -0.667  22.182  0.00  0.00    +0.061 S 
ATOM      4  O   UNL     1       0.793  -0.260  20.796  0.00  0.00    -0.153 OA
ATOM      5  O   UNL     1       0.569  -2.020  22.585  0.00  0.00    -0.153 OA
BRANCH   1  25
ATOM     25  C   UNL     1       2.521  -0.303  22.743  0.00  0.00    +0.105 A 
ATOM     28  C   UNL     1       3.094   0.938  22.462  0.00  0.00    +0.028 A 
ATOM     29  C   UNL     1       3.239  -1.255  23.465  0.00  0.00    +0.028 A 
ATOM     33  C   UNL     1       4.385   1.225  22.902  0.00  0.00    +0.002 A 
ATOM     34  C   UNL     1       4.531  -0.968  23.905  0.00  0.00    +0.002 A 
ATOM     36  C   UNL     1       5.105   0.273  23.624  0.00  0.00    +0.000 A 
ENDBRANCH   1  25
ENDBRANCH   8   1
TORSDOF 8
ENDMDL
MODEL 6
REMARK VINA RESULT:      13.1      1.408      2.297
REMARK  Name = 45361707
REMARK  8 active torsions:
REMARK  status: ('A' for Active; 'I' for Inactive)
REMARK    1  A    between atoms: S_1  and  N_8
REMARK    2  A    between atoms: S_1  and  C_25
REMARK    3  A    between atoms: N_10  and  C_24
REMARK    4  A    between atoms: C_13  and  C_23
REMARK    5  A    between atoms: C_14  and  C_18
REMARK    6  A    between atoms: C_24  and  C_26
REMARK    7  A    between atoms: C_24  and  C_30
REMARK    8  A    between atoms: C_26  and  C_27
REMARK                            x       y       z     vdW  Elec       q    Type
REMARK                         _______ _______ _______ _____ _____    ______ ____
ROOT
ATOM      2  O   UNL     1      -3.612   0.882  23.504  0.00  0.00    -0.275 OA
ATOM      7  N   UNL     1      -1.330   0.470  23.695  0.00  0.00    -0.287 N 
ATOM      8  N   UNL     1       1.221   0.155  22.445  0.00  0.00    -0.173 NA
ATOM     13  C   UNL     1      -0.168   0.068  24.505  0.00  0.00    +0.177 C 
ATOM     15  C   UNL     1       0.922  -0.621  23.685  0.00  0.00    +0.141 C 
ATOM     16  C   UNL     1      -1.033   1.115  22.413  0.00  0.00    +0.125 C 
ATOM     17  C   UNL     1       0.000   0.337  21.611  0.00  0.00    +0.128 C 
ATOM     18  C   UNL     1      -2.658   0.416  24.132  0.00  0.00    +0.219 C 
ENDROOT
BRANCH  18  14
ATOM      9  N   UNL     1      -3.441  -3.122  25.033  0.00  0.00    -0.316 NA
ATOM     14  C   UNL     1      -2.910  -0.266  25.447  0.00  0.00    +0.078 C 
ATOM     19  C   UNL     1      -1.859  -1.345  25.711  0.00  0.00    +0.028 C 
ATOM     20  C   UNL     1      -4.321  -0.856  25.492  0.00  0.00    +0.028 C 
ATOM     21  C   UNL     1      -2.086  -2.598  24.863  0.00  0.00    +0.081 C 
ATOM     22  C   UNL     1      -4.446  -2.129  24.654  0.00  0.00    +0.081 C 
ATOM     41  H   UNL     1      -3.555  -3.955  24.458  0.00  0.00    +0.122 HD
ENDBRANCH  18  14
BRANCH  13  23
ATOM      3  O   UNL     1       1.281   1.957  24.715  0.00  0.00    -0.274 OA
ATOM     10  N   UNL     1      -0.349   1.602  26.339  0.00  0.00    -0.302 N 
ATOM     23  C   UNL     1       0.341   1.311  25.175  0.00  0.00    +0.235 C 
ATOM     42  H   UNL     1      -1.189   1.074  26.559  0.00  0.00    +0.150 HD
BRANCH  10  24
ATOM     24  C   UNL     1      -0.038   2.733  27.181  0.00  0.00    +0.163 C 
BRANCH  24  30
ATOM      6  O   UNL     1       2.362   2.794  27.560  0.00  0.00    -0.274 OA
ATOM     12  N   UNL     1       1.043   1.654  29.055  0.00  0.00    -0.328 N 
ATOM     30  C   UNL     1       1.254   2.402  27.916  0.00  0.00    +0.231 C 
ATOM     44  H   UNL     1       0.118   1.357  29.350  0.00  0.00    +0.145 HD
ATOM     45  H   UNL     1       1.820   1.375  29.646  0.00  0.00    +0.145 HD
ENDBRANCH  24  30
BRANCH  24  26
ATOM     26  C   UNL     1       0.124   4.028  26.377  0.00  0.00    +0.069 C 
BRANCH  26  27
ATOM     11  N   UNL     1      -1.978   4.679  23.423  0.00  0.00    -0.360 N 
ATOM     27  C   UNL     1      -0.953   4.206  25.334  0.00  0.00    -0.020 A 
ATOM     31  C   UNL     1      -2.341   3.941  25.497  0.00  0.00    +0.003 A 
ATOM     32  C   UNL     1      -0.760   4.659  24.049  0.00  0.00    +0.087 A 
ATOM     35  C   UNL     1      -2.962   4.245  24.283  0.00  0.00    +0.047 A 
ATOM     37  C   UNL     1      -3.132   3.469  26.563  0.00  0.00    +0.010 A 
ATOM     38  C   UNL     1      -4.339   4.101  24.082  0.00  0.00    +0.026 A 
ATOM     39  C   UNL     1      -4.511   3.320  26.377  0.00  0.00    +0.001 A 
ATOM     40  C   UNL     1      -5.103   3.631  25.154  0.00  0.00    +0.002 A 
ATOM     43  H   UNL     1      -2.134   4.969  22.468  0.00  0.00    +0.165 HD
ENDBRANCH  26  27
ENDBRANCH  24  26
ENDBRANCH  10  24
ENDBRANCH  13  23
BRANCH   8   1
ATOM      1  S   UNL     1       2.627  -0.332  21.595  0.00  0.00    +0.061 S 
ATOM      4  O   UNL     1       2.952   0.674  20.606  0.00  0.00    -0.153 OA
ATOM      5  O   UNL     1       2.496  -1.725  21.228  0.00  0.00    -0.153 OA
BRANCH   1  25
ATOM     25  C   UNL     1       3.822  -0.222  22.891  0.00  0.00    +0.105 A 
ATOM     28  C   UNL     1       4.376   1.013  23.225  0.00  0.00    +0.028 A 
ATOM     29  C   UNL     1       4.214  -1.371  23.578  0.00  0.00    +0.028 A 
ATOM     33  C   UNL     1       5.322   1.101  24.246  0.00  0.00    +0.002 A 
ATOM     34  C   UNL     1       5.160  -1.284  24.599  0.00  0.00    +0.002 A 
ATOM     36  C   UNL     1       5.714  -0.048  24.933  0.00  0.00    +0.000 A 
ENDBRANCH   1  25
ENDBRANCH   8   1
TORSDOF 8
ENDMDL
MODEL 7
REMARK VINA RESULT:      13.3      2.915      5.888
REMARK  Name = 45361707
REMARK  8 active torsions:
REMARK  status: ('A' for Active; 'I' for Inactive)
REMARK    1  A    between atoms: S_1  and  N_8
REMARK    2  A    between atoms: S_1  and  C_25
REMARK    3  A    between atoms: N_10  and  C_24
REMARK    4  A    between atoms: C_13  and  C_23
REMARK    5  A    between atoms: C_14  and  C_18
REMARK    6  A    between atoms: C_24  and  C_26
REMARK    7  A    between atoms: C_24  and  C_30
REMARK    8  A    between atoms: C_26  and  C_27
REMARK                            x       y       z     vdW  Elec       q    Type
REMARK                         _______ _______ _______ _____ _____    ______ ____
ROOT
ATOM      2  O   UNL     1      -3.307   0.767  25.608  0.00  0.00    -0.275 OA
ATOM      7  N   UNL     1      -1.352   2.019  25.751  0.00  0.00    -0.287 N 
ATOM      8  N   UNL     1       1.134   2.548  27.058  0.00  0.00    -0.173 NA
ATOM     13  C   UNL     1      -0.542   3.175  25.331  0.00  0.00    +0.177 C 
ATOM     15  C   UNL     1       0.390   3.681  26.432  0.00  0.00    +0.141 C 
ATOM     16  C   UNL     1      -0.644   0.964  26.483  0.00  0.00    +0.125 C 
ATOM     17  C   UNL     1       0.202   1.528  27.614  0.00  0.00    +0.128 C 
ATOM     18  C   UNL     1      -2.680   1.801  25.369  0.00  0.00    +0.219 C 
ENDROOT
BRANCH  18  14
ATOM      9  N   UNL     1      -6.044   3.381  25.728  0.00  0.00    -0.316 NA
ATOM     14  C   UNL     1      -3.363   2.918  24.631  0.00  0.00    +0.078 C 
ATOM     19  C   UNL     1      -3.677   4.081  25.573  0.00  0.00    +0.028 C 
ATOM     20  C   UNL     1      -4.632   2.417  23.939  0.00  0.00    +0.028 C 
ATOM     21  C   UNL     1      -4.863   3.781  26.492  0.00  0.00    +0.081 C 
ATOM     22  C   UNL     1      -5.779   2.187  24.925  0.00  0.00    +0.081 C 
ATOM     41  H   UNL     1      -6.813   3.191  26.370  0.00  0.00    +0.122 HD
ENDBRANCH  18  14
BRANCH  13  23
ATOM      3  O   UNL     1       0.714   3.563  23.336  0.00  0.00    -0.274 OA
ATOM     10  N   UNL     1       0.264   1.370  23.975  0.00  0.00    -0.302 N 
ATOM     23  C   UNL     1       0.219   2.747  24.111  0.00  0.00    +0.235 C 
ATOM     42  H   UNL     1      -0.068   0.788  24.738  0.00  0.00    +0.150 HD
BRANCH  10  24
ATOM     24  C   UNL     1       0.918   0.705  22.871  0.00  0.00    +0.163 C 
BRANCH  24  30
ATOM      6  O   UNL     1       2.822  -0.625  23.588  0.00  0.00    -0.274 OA
ATOM     12  N   UNL     1       3.126   1.623  23.227  0.00  0.00    -0.328 N 
ATOM     30  C   UNL     1       2.365   0.474  23.282  0.00  0.00    +0.231 C 
ATOM     44  H   UNL     1       2.741   2.520  22.950  0.00  0.00    +0.145 HD
ATOM     45  H   UNL     1       4.112   1.606  23.464  0.00  0.00    +0.145 HD
ENDBRANCH  24  30
BRANCH  24  26
ATOM     26  C   UNL     1       0.245  -0.626  22.516  0.00  0.00    +0.069 C 
BRANCH  26  27
ATOM     11  N   UNL     1      -0.688  -2.308  25.657  0.00  0.00    -0.360 N 
ATOM     27  C   UNL     1      -0.406  -1.286  23.706  0.00  0.00    -0.020 A 
ATOM     31  C   UNL     1      -1.800  -1.497  23.901  0.00  0.00    +0.003 A 
ATOM     32  C   UNL     1       0.252  -1.796  24.802  0.00  0.00    +0.087 A 
ATOM     35  C   UNL     1      -1.950  -2.139  25.132  0.00  0.00    +0.047 A 
ATOM     37  C   UNL     1      -2.952  -1.200  23.146  0.00  0.00    +0.010 A 
ATOM     38  C   UNL     1      -3.199  -2.501  25.648  0.00  0.00    +0.026 A 
ATOM     39  C   UNL     1      -4.209  -1.558  23.649  0.00  0.00    +0.001 A 
ATOM     40  C   UNL     1      -4.328  -2.197  24.881  0.00  0.00    +0.002 A 
ATOM     43  H   UNL     1      -0.487  -2.746  26.545  0.00  0.00    +0.165 HD
ENDBRANCH  26  27
ENDBRANCH  24  26
ENDBRANCH  10  24
ENDBRANCH  13  23
BRANCH   8   1
ATOM      1  S   UNL     1       2.431   2.998  28.083  0.00  0.00    +0.061 S 
ATOM      4  O   UNL     1       2.650   4.425  27.969  0.00  0.00    -0.153 OA
ATOM      5  O   UNL     1       3.518   2.060  27.905  0.00  0.00    -0.153 OA
BRANCH   1  25
ATOM     25  C   UNL     1       1.698   2.689  29.660  0.00  0.00    +0.105 A 
ATOM     28  C   UNL     1       0.535   3.363  30.032  0.00  0.00    +0.028 A 
ATOM     29  C   UNL     1       2.283   1.772  30.533  0.00  0.00    +0.028 A 
ATOM     33  C   UNL     1      -0.043   3.121  31.278  0.00  0.00    +0.002 A 
ATOM     34  C   UNL     1       1.705   1.531  31.779  0.00  0.00    +0.002 A 
ATOM     36  C   UNL     1       0.542   2.205  32.152  0.00  0.00    +0.000 A 
ENDBRANCH   1  25
ENDBRANCH   8   1
TORSDOF 8
ENDMDL
MODEL 8
REMARK VINA RESULT:      13.6      2.452      5.765
REMARK  Name = 45361707
REMARK  8 active torsions:
REMARK  status: ('A' for Active; 'I' for Inactive)
REMARK    1  A    between atoms: S_1  and  N_8
REMARK    2  A    between atoms: S_1  and  C_25
REMARK    3  A    between atoms: N_10  and  C_24
REMARK    4  A    between atoms: C_13  and  C_23
REMARK    5  A    between atoms: C_14  and  C_18
REMARK    6  A    between atoms: C_24  and  C_26
REMARK    7  A    between atoms: C_24  and  C_30
REMARK    8  A    between atoms: C_26  and  C_27
REMARK                            x       y       z     vdW  Elec       q    Type
REMARK                         _______ _______ _______ _____ _____    ______ ____
ROOT
ATOM      2  O   UNL     1       3.516   1.194  21.637  0.00  0.00    -0.275 OA
ATOM      7  N   UNL     1       1.920   0.934  23.310  0.00  0.00    -0.287 N 
ATOM      8  N   UNL     1       0.003   2.106  25.076  0.00  0.00    -0.173 NA
ATOM     13  C   UNL     1       1.244   0.092  24.311  0.00  0.00    +0.177 C 
ATOM     15  C   UNL     1       0.741   0.885  25.517  0.00  0.00    +0.141 C 
ATOM     16  C   UNL     1       1.258   2.199  22.974  0.00  0.00    +0.125 C 
ATOM     17  C   UNL     1       0.854   2.976  24.218  0.00  0.00    +0.128 C 
ATOM     18  C   UNL     1       3.040   0.541  22.569  0.00  0.00    +0.219 C 
ENDROOT
BRANCH  18  14
ATOM      9  N   UNL     1       6.424  -0.288  23.911  0.00  0.00    -0.316 NA
ATOM     14  C   UNL     1       3.688  -0.756  22.961  0.00  0.00    +0.078 C 
ATOM     19  C   UNL     1       4.055  -0.755  24.446  0.00  0.00    +0.028 C 
ATOM     20  C   UNL     1       4.918  -1.033  22.095  0.00  0.00    +0.028 C 
ATOM     21  C   UNL     1       5.285   0.105  24.740  0.00  0.00    +0.081 C 
ATOM     22  C   UNL     1       6.113  -0.162  22.487  0.00  0.00    +0.081 C 
ATOM     41  H   UNL     1       7.224   0.302  24.135  0.00  0.00    +0.122 HD
ENDBRANCH  18  14
BRANCH  13  23
ATOM      3  O   UNL     1       0.245  -1.022  22.448  0.00  0.00    -0.274 OA
ATOM     10  N   UNL     1      -1.018  -0.698  24.377  0.00  0.00    -0.302 N 
ATOM     23  C   UNL     1       0.124  -0.608  23.599  0.00  0.00    +0.235 C 
ATOM     42  H   UNL     1      -0.969  -0.435  25.357  0.00  0.00    +0.150 HD
BRANCH  10  24
ATOM     24  C   UNL     1      -2.244  -1.307  23.915  0.00  0.00    +0.163 C 
BRANCH  24  30
ATOM      6  O   UNL     1      -4.081  -2.308  25.151  0.00  0.00    -0.274 OA
ATOM     12  N   UNL     1      -2.656  -0.889  26.260  0.00  0.00    -0.328 N 
ATOM     30  C   UNL     1      -3.109  -1.557  25.142  0.00  0.00    +0.231 C 
ATOM     44  H   UNL     1      -1.837  -0.290  26.243  0.00  0.00    +0.145 HD
ATOM     45  H   UNL     1      -3.135  -0.979  27.150  0.00  0.00    +0.145 HD
ENDBRANCH  24  30
BRANCH  24  26
ATOM     26  C   UNL     1      -2.989  -0.420  22.910  0.00  0.00    +0.069 C 
BRANCH  26  27
ATOM     11  N   UNL     1      -2.714   3.176  23.659  0.00  0.00    -0.360 N 
ATOM     27  C   UNL     1      -3.113   1.011  23.374  0.00  0.00    -0.020 A 
ATOM     31  C   UNL     1      -4.119   1.540  24.230  0.00  0.00    +0.003 A 
ATOM     32  C   UNL     1      -2.263   2.040  23.040  0.00  0.00    +0.087 A 
ATOM     35  C   UNL     1      -3.846   2.900  24.393  0.00  0.00    +0.047 A 
ATOM     37  C   UNL     1      -5.240   0.990  24.883  0.00  0.00    +0.010 A 
ATOM     38  C   UNL     1      -4.641   3.740  25.179  0.00  0.00    +0.026 A 
ATOM     39  C   UNL     1      -6.044   1.819  25.674  0.00  0.00    +0.001 A 
ATOM     40  C   UNL     1      -5.748   3.173  25.818  0.00  0.00    +0.002 A 
ATOM     43  H   UNL     1      -2.280   4.085  23.589  0.00  0.00    +0.165 HD
ENDBRANCH  26  27
ENDBRANCH  24  26
ENDBRANCH  10  24
ENDBRANCH  13  23
BRANCH   8   1
ATOM      1  S   UNL     1      -0.876   2.916  26.304  0.00  0.00    +0.061 S 
ATOM      4  O   UNL     1      -2.022   2.111  26.673  0.00  0.00    -0.153 OA
ATOM      5  O   UNL     1      -1.029   4.306  25.933  0.00  0.00    -0.153 OA
BRANCH   1  25
ATOM     25  C   UNL     1       0.292   2.830  27.625  0.00  0.00    +0.105 A 
ATOM     28  C   UNL     1       1.638   3.104  27.384  0.00  0.00    +0.028 A 
ATOM     29  C   UNL     1      -0.131   2.488  28.910  0.00  0.00    +0.028 A 
ATOM     33  C   UNL     1       2.562   3.033  28.427  0.00  0.00    +0.002 A 
ATOM     34  C   UNL     1       0.792   2.418  29.952  0.00  0.00    +0.002 A 
ATOM     36  C   UNL     1       2.139   2.690  29.711  0.00  0.00    +0.000 A 
ENDBRANCH   1  25
ENDBRANCH   8   1
TORSDOF 8
ENDMDL
MODEL 9
REMARK VINA RESULT:      13.7      3.022      7.020
REMARK  Name = 45361707
REMARK  8 active torsions:
REMARK  status: ('A' for Active; 'I' for Inactive)
REMARK    1  A    between atoms: S_1  and  N_8
REMARK    2  A    between atoms: S_1  and  C_25
REMARK    3  A    between atoms: N_10  and  C_24
REMARK    4  A    between atoms: C_13  and  C_23
REMARK    5  A    between atoms: C_14  and  C_18
REMARK    6  A    between atoms: C_24  and  C_26
REMARK    7  A    between atoms: C_24  and  C_30
REMARK    8  A    between atoms: C_26  and  C_27
REMARK                            x       y       z     vdW  Elec       q    Type
REMARK                         _______ _______ _______ _____ _____    ______ ____
ROOT
ATOM      2  O   UNL     1       2.624  -1.614  23.858  0.00  0.00    -0.275 OA
ATOM      7  N   UNL     1       0.526  -0.612  23.942  0.00  0.00    -0.287 N 
ATOM      8  N   UNL     1      -2.287  -0.843  24.392  0.00  0.00    -0.173 NA
ATOM     13  C   UNL     1      -0.347   0.547  23.696  0.00  0.00    +0.177 C 
ATOM     15  C   UNL     1      -1.793   0.152  23.396  0.00  0.00    +0.141 C 
ATOM     16  C   UNL     1      -0.016  -1.656  24.820  0.00  0.00    +0.125 C 
ATOM     17  C   UNL     1      -1.427  -2.059  24.418  0.00  0.00    +0.128 C 
ATOM     18  C   UNL     1       1.860  -0.704  23.530  0.00  0.00    +0.219 C 
ENDROOT
BRANCH  18  14
ATOM      9  N   UNL     1       5.288   0.550  22.745  0.00  0.00    -0.316 NA
ATOM     14  C   UNL     1       2.362   0.384  22.622  0.00  0.00    +0.078 C 
ATOM     19  C   UNL     1       3.265  -0.192  21.530  0.00  0.00    +0.028 C 
ATOM     20  C   UNL     1       3.091   1.466  23.421  0.00  0.00    +0.028 C 
ATOM     21  C   UNL     1       4.648  -0.573  22.062  0.00  0.00    +0.081 C 
ATOM     22  C   UNL     1       4.481   1.015  23.873  0.00  0.00    +0.081 C 
ATOM     41  H   UNL     1       6.205   0.261  23.082  0.00  0.00    +0.122 HD
ENDBRANCH  18  14
BRANCH  13  23
ATOM      3  O   UNL     1      -0.320   0.969  26.048  0.00  0.00    -0.274 OA
ATOM     10  N   UNL     1      -0.101   2.761  24.578  0.00  0.00    -0.302 N 
ATOM     23  C   UNL     1      -0.250   1.425  24.909  0.00  0.00    +0.235 C 
ATOM     42  H   UNL     1       0.071   3.015  23.610  0.00  0.00    +0.150 HD
BRANCH  10  24
ATOM     24  C   UNL     1      -0.008   3.814  25.564  0.00  0.00    +0.163 C 
BRANCH  24  30
ATOM      6  O   UNL     1      -0.558   5.832  24.327  0.00  0.00    -0.274 OA
ATOM     12  N   UNL     1      -2.196   4.841  25.595  0.00  0.00    -0.328 N 
ATOM     30  C   UNL     1      -0.914   4.945  25.098  0.00  0.00    +0.231 C 
ATOM     44  H   UNL     1      -2.483   4.089  26.214  0.00  0.00    +0.145 HD
ATOM     45  H   UNL     1      -2.906   5.524  25.352  0.00  0.00    +0.145 HD
ENDBRANCH  24  30
BRANCH  24  26
ATOM     26  C   UNL     1      -0.425   3.338  26.961  0.00  0.00    +0.069 C 
BRANCH  26  27
ATOM     11  N   UNL     1       2.804   2.364  28.441  0.00  0.00    -0.360 N 
ATOM     27  C   UNL     1       0.752   2.932  27.814  0.00  0.00    -0.020 A 
ATOM     31  C   UNL     1       0.741   2.703  29.219  0.00  0.00    +0.003 A 
ATOM     32  C   UNL     1       2.034   2.715  27.364  0.00  0.00    +0.087 A 
ATOM     35  C   UNL     1       2.041   2.349  29.587  0.00  0.00    +0.047 A 
ATOM     37  C   UNL     1      -0.253   2.766  30.215  0.00  0.00    +0.010 A 
ATOM     38  C   UNL     1       2.397   2.051  30.906  0.00  0.00    +0.026 A 
ATOM     39  C   UNL     1       0.089   2.470  31.541  0.00  0.00    +0.001 A 
ATOM     40  C   UNL     1       1.395   2.119  31.879  0.00  0.00    +0.002 A 
ATOM     43  H   UNL     1       3.790   2.147  28.402  0.00  0.00    +0.165 HD
ENDBRANCH  26  27
ENDBRANCH  24  26
ENDBRANCH  10  24
ENDBRANCH  13  23
BRANCH   8   1
ATOM      1  S   UNL     1      -3.975  -1.137  24.363  0.00  0.00    +0.061 S 
ATOM      4  O   UNL     1      -4.324  -1.998  25.473  0.00  0.00    -0.153 OA
ATOM      5  O   UNL     1      -4.372  -1.465  23.010  0.00  0.00    -0.153 OA
BRANCH   1  25
ATOM     25  C   UNL     1      -4.575   0.484  24.727  0.00  0.00    +0.105 A 
ATOM     28  C   UNL     1      -4.107   1.580  24.003  0.00  0.00    +0.028 A 
ATOM     29  C   UNL     1      -5.515   0.668  25.741  0.00  0.00    +0.028 A 
ATOM     33  C   UNL     1      -4.578   2.860  24.292  0.00  0.00    +0.002 A 
ATOM     34  C   UNL     1      -5.986   1.948  26.030  0.00  0.00    +0.002 A 
ATOM     36  C   UNL     1      -5.518   3.045  25.306  0.00  0.00    +0.000 A 
ENDBRANCH   1  25
ENDBRANCH   8   1
TORSDOF 8
ENDMDL
MODEL 10
REMARK VINA RESULT:      13.8      2.620      7.103
REMARK  Name = 45361707
REMARK  8 active torsions:
REMARK  status: ('A' for Active; 'I' for Inactive)
REMARK    1  A    between atoms: S_1  and  N_8
REMARK    2  A    between atoms: S_1  and  C_25
REMARK    3  A    between atoms: N_10  and  C_24
REMARK    4  A    between atoms: C_13  and  C_23
REMARK    5  A    between atoms: C_14  and  C_18
REMARK    6  A    between atoms: C_24  and  C_26
REMARK    7  A    between atoms: C_24  and  C_30
REMARK    8  A    between atoms: C_26  and  C_27
REMARK                            x       y       z     vdW  Elec       q    Type
REMARK                         _______ _______ _______ _____ _____    ______ ____
ROOT
ATOM      2  O   UNL     1       1.698   4.562  27.089  0.00  0.00    -0.275 OA
ATOM      7  N   UNL     1      -0.009   3.618  25.821  0.00  0.00    -0.287 N 
ATOM      8  N   UNL     1      -2.414   3.945  24.312  0.00  0.00    -0.173 NA
ATOM     13  C   UNL     1      -0.712   2.431  25.308  0.00  0.00    +0.177 C 
ATOM     15  C   UNL     1      -2.202   2.676  25.069  0.00  0.00    +0.141 C 
ATOM     16  C   UNL     1      -0.319   4.890  25.160  0.00  0.00    +0.125 C 
ATOM     17  C   UNL     1      -1.818   5.109  25.026  0.00  0.00    +0.128 C 
ATOM     18  C   UNL     1       1.021   3.583  26.768  0.00  0.00    +0.219 C 
ENDROOT
BRANCH  18  14
ATOM      9  N   UNL     1       1.721   2.611  30.304  0.00  0.00    -0.316 NA
ATOM     14  C   UNL     1       1.290   2.258  27.424  0.00  0.00    +0.078 C 
ATOM     19  C   UNL     1       0.214   1.936  28.462  0.00  0.00    +0.028 C 
ATOM     20  C   UNL     1       2.683   2.237  28.056  0.00  0.00    +0.028 C 
ATOM     21  C   UNL     1       0.379   2.757  29.743  0.00  0.00    +0.081 C 
ATOM     22  C   UNL     1       2.745   3.045  29.353  0.00  0.00    +0.081 C 
ATOM     41  H   UNL     1       1.794   3.168  31.155  0.00  0.00    +0.122 HD
ENDBRANCH  18  14
BRANCH  13  23
ATOM      3  O   UNL     1       0.175   2.810  23.122  0.00  0.00    -0.274 OA
ATOM     10  N   UNL     1       0.372   0.691  24.066  0.00  0.00    -0.302 N 
ATOM     23  C   UNL     1      -0.007   2.023  24.048  0.00  0.00    +0.235 C 
ATOM     42  H   UNL     1       0.285   0.165  24.930  0.00  0.00    +0.150 HD
BRANCH  10  24
ATOM     24  C   UNL     1       1.048   0.046  22.963  0.00  0.00    +0.163 C 
BRANCH  24  30
ATOM      6  O   UNL     1       3.229  -0.887  23.492  0.00  0.00    -0.274 OA
ATOM     12  N   UNL     1       3.050   1.382  23.185  0.00  0.00    -0.328 N 
ATOM     30  C   UNL     1       2.540   0.103  23.257  0.00  0.00    +0.231 C 
ATOM     44  H   UNL     1       2.473   2.189  22.967  0.00  0.00    +0.145 HD
ATOM     45  H   UNL     1       4.036   1.560  23.347  0.00  0.00    +0.145 HD
ENDBRANCH  24  30
BRANCH  24  26
ATOM     26  C   UNL     1       0.596  -1.407  22.777  0.00  0.00    +0.069 C 
BRANCH  26  27
ATOM     11  N   UNL     1      -1.104  -2.882  25.693  0.00  0.00    -0.360 N 
ATOM     27  C   UNL     1      -0.332  -1.874  23.871  0.00  0.00    -0.020 A 
ATOM     31  C   UNL     1      -1.713  -1.558  24.003  0.00  0.00    +0.003 A 
ATOM     32  C   UNL     1       0.013  -2.690  24.924  0.00  0.00    +0.087 A 
ATOM     35  C   UNL     1      -2.174  -2.202  25.154  0.00  0.00    +0.047 A 
ATOM     37  C   UNL     1      -2.618  -0.782  23.252  0.00  0.00    +0.010 A 
ATOM     38  C   UNL     1      -3.499  -2.109  25.593  0.00  0.00    +0.026 A 
ATOM     39  C   UNL     1      -3.948  -0.680  23.679  0.00  0.00    +0.001 A 
ATOM     40  C   UNL     1      -4.379  -1.333  24.832  0.00  0.00    +0.002 A 
ATOM     43  H   UNL     1      -1.140  -3.441  26.533  0.00  0.00    +0.165 HD
ENDBRANCH  26  27
ENDBRANCH  24  26
ENDBRANCH  10  24
ENDBRANCH  13  23
BRANCH   8   1
ATOM      1  S   UNL     1      -4.000   4.184  23.709  0.00  0.00    +0.061 S 
ATOM      4  O   UNL     1      -4.111   3.554  22.411  0.00  0.00    -0.153 OA
ATOM      5  O   UNL     1      -4.372   5.570  23.900  0.00  0.00    -0.153 OA
BRANCH   1  25
ATOM     25  C   UNL     1      -4.917   3.211  24.863  0.00  0.00    +0.105 A 
ATOM     28  C   UNL     1      -4.968   3.586  26.205  0.00  0.00    +0.028 A 
ATOM     29  C   UNL     1      -5.590   2.068  24.432  0.00  0.00    +0.028 A 
ATOM     33  C   UNL     1      -5.689   2.816  27.117  0.00  0.00    +0.002 A 
ATOM     34  C   UNL     1      -6.311   1.298  25.344  0.00  0.00    +0.002 A 
ATOM     36  C   UNL     1      -6.361   1.672  26.687  0.00  0.00    +0.000 A 
ENDBRANCH   1  25
ENDBRANCH   8   1
TORSDOF 8
ENDMDL
