MODEL 1
REMARK VINA RESULT:      -3.8      0.000      0.000
REMARK  Name = 11912453
REMARK  8 active torsions:
REMARK  status: ('A' for Active; 'I' for Inactive)
REMARK    1  A    between atoms: N_4  and  C_17
REMARK    2  A    between atoms: N_4  and  C_18
REMARK    3  A    between atoms: N_5  and  C_19
REMARK    4  A    between atoms: C_7  and  C_13
REMARK    5  A    between atoms: C_8  and  C_12
REMARK    6  A    between atoms: C_12  and  C_14
REMARK    7  A    between atoms: C_13  and  C_15
REMARK    8  A    between atoms: C_17  and  C_22
REMARK                            x       y       z     vdW  Elec       q    Type
REMARK                         _______ _______ _______ _____ _____    ______ ____
ROOT
ATOM      2  O   UNL     1       1.556   2.178  24.209  0.00  0.00    -0.252 OA
ATOM      3  N   UNL     1      -0.305   0.812  24.041  0.00  0.00    -0.285 N 
ATOM      5  N   UNL     1       1.783   0.104  23.196  0.00  0.00    -0.269 N 
ATOM      7  C   UNL     1      -2.831  -0.002  25.309  0.00  0.00    +0.004 C 
ATOM      8  C   UNL     1      -1.877  -1.028  24.655  0.00  0.00    +0.010 C 
ATOM      9  C   UNL     1      -2.010   1.203  25.797  0.00  0.00    +0.023 C 
ATOM     10  C   UNL     1      -1.000  -0.395  23.560  0.00  0.00    +0.113 C 
ATOM     11  C   UNL     1      -1.159   1.811  24.688  0.00  0.00    +0.109 C 
ATOM     16  C   UNL     1       1.065   1.105  23.848  0.00  0.00    +0.306 C 
ATOM     26  H   UNL     1       1.288  -0.504  22.552  0.00  0.00    +0.156 HD
ENDROOT
BRANCH   5  19
ATOM     19  C   UNL     1       3.176  -0.142  23.276  0.00  0.00    +0.035 A 
ATOM     20  C   UNL     1       4.077   0.834  22.856  0.00  0.00    +0.023 A 
ATOM     21  C   UNL     1       3.637  -1.357  23.777  0.00  0.00    +0.023 A 
ATOM     23  C   UNL     1       5.447   0.593  22.935  0.00  0.00    +0.002 A 
ATOM     24  C   UNL     1       5.009  -1.598  23.856  0.00  0.00    +0.002 A 
ATOM     25  C   UNL     1       5.914  -0.624  23.436  0.00  0.00    +0.000 A 
ENDBRANCH   5  19
BRANCH   8  12
ATOM     12  C   UNL     1      -2.605  -2.259  24.114  0.00  0.00    +0.002 C 
ATOM     14  C   UNL     1      -3.488  -2.881  25.176  0.00  0.00    +0.004 C 
ENDBRANCH   8  12
BRANCH   7  13
ATOM     13  C   UNL     1      -3.984   0.442  24.404  0.00  0.00    +0.100 C 
BRANCH  13  15
ATOM      1  O   UNL     1      -5.795   0.833  25.927  0.00  0.00    -0.276 OA
ATOM      4  N   UNL     1      -4.923   2.689  24.842  0.00  0.00    -0.291 N 
ATOM     15  C   UNL     1      -4.986   1.322  25.133  0.00  0.00    +0.216 C 
ATOM     18  C   UNL     1      -5.816   3.661  25.462  0.00  0.00    +0.133 C 
BRANCH   4  17
ATOM     17  C   UNL     1      -3.957   3.246  23.899  0.00  0.00    +0.226 C 
BRANCH  17  22
ATOM      6  N   UNL     1      -2.375   4.966  25.087  0.00  0.00    -0.195 NA
ATOM     22  C   UNL     1      -3.076   4.205  24.559  0.00  0.00    +0.082 C 
ENDBRANCH  17  22
ENDBRANCH   4  17
ENDBRANCH  13  15
ENDBRANCH   7  13
TORSDOF 6
ENDMDL
MODEL 2
REMARK VINA RESULT:      -2.6      1.278      1.853
REMARK  Name = 11912453
REMARK  8 active torsions:
REMARK  status: ('A' for Active; 'I' for Inactive)
REMARK    1  A    between atoms: N_4  and  C_17
REMARK    2  A    between atoms: N_4  and  C_18
REMARK    3  A    between atoms: N_5  and  C_19
REMARK    4  A    between atoms: C_7  and  C_13
REMARK    5  A    between atoms: C_8  and  C_12
REMARK    6  A    between atoms: C_12  and  C_14
REMARK    7  A    between atoms: C_13  and  C_15
REMARK    8  A    between atoms: C_17  and  C_22
REMARK                            x       y       z     vdW  Elec       q    Type
REMARK                         _______ _______ _______ _____ _____    ______ ____
ROOT
ATOM      2  O   UNL     1       1.622   2.001  23.934  0.00  0.00    -0.252 OA
ATOM      3  N   UNL     1      -0.127   0.485  23.919  0.00  0.00    -0.285 N 
ATOM      5  N   UNL     1       2.028  -0.161  23.198  0.00  0.00    -0.269 N 
ATOM      7  C   UNL     1      -2.611  -0.355  25.249  0.00  0.00    +0.004 C 
ATOM      8  C   UNL     1      -1.568  -1.379  24.744  0.00  0.00    +0.010 C 
ATOM      9  C   UNL     1      -1.895   0.962  25.589  0.00  0.00    +0.023 C 
ATOM     10  C   UNL     1      -0.718  -0.824  23.588  0.00  0.00    +0.113 C 
ATOM     11  C   UNL     1      -1.068   1.489  24.422  0.00  0.00    +0.109 C 
ATOM     16  C   UNL     1       1.221   0.857  23.707  0.00  0.00    +0.306 C 
ATOM     26  H   UNL     1       1.594  -0.881  22.631  0.00  0.00    +0.156 HD
ENDROOT
BRANCH   5  19
ATOM     19  C   UNL     1       3.433  -0.286  23.326  0.00  0.00    +0.035 A 
ATOM     20  C   UNL     1       3.979  -1.462  23.834  0.00  0.00    +0.023 A 
ATOM     21  C   UNL     1       4.260   0.766  22.942  0.00  0.00    +0.023 A 
ATOM     23  C   UNL     1       5.362  -1.587  23.960  0.00  0.00    +0.002 A 
ATOM     24  C   UNL     1       5.644   0.641  23.068  0.00  0.00    +0.002 A 
ATOM     25  C   UNL     1       6.195  -0.534  23.577  0.00  0.00    +0.000 A 
ENDBRANCH   5  19
BRANCH   8  12
ATOM     12  C   UNL     1      -2.189  -2.721  24.357  0.00  0.00    +0.002 C 
ATOM     14  C   UNL     1      -3.656  -2.773  24.733  0.00  0.00    +0.004 C 
ENDBRANCH   8  12
BRANCH   7  13
ATOM     13  C   UNL     1      -3.775  -0.120  24.280  0.00  0.00    +0.100 C 
BRANCH  13  15
ATOM      1  O   UNL     1      -2.954   1.233  22.479  0.00  0.00    -0.276 OA
ATOM      4  N   UNL     1      -4.305   2.284  24.044  0.00  0.00    -0.291 N 
ATOM     15  C   UNL     1      -3.631   1.181  23.509  0.00  0.00    +0.216 C 
ATOM     18  C   UNL     1      -4.267   3.601  23.420  0.00  0.00    +0.133 C 
BRANCH   4  17
ATOM     17  C   UNL     1      -5.101   2.200  25.266  0.00  0.00    +0.226 C 
BRANCH  17  22
ATOM      6  N   UNL     1      -6.085   4.543  25.911  0.00  0.00    -0.195 NA
ATOM     22  C   UNL     1      -5.649   3.506  25.624  0.00  0.00    +0.082 C 
ENDBRANCH  17  22
ENDBRANCH   4  17
ENDBRANCH  13  15
ENDBRANCH   7  13
TORSDOF 6
ENDMDL
MODEL 3
REMARK VINA RESULT:      -0.9      1.480      2.208
REMARK  Name = 11912453
REMARK  8 active torsions:
REMARK  status: ('A' for Active; 'I' for Inactive)
REMARK    1  A    between atoms: N_4  and  C_17
REMARK    2  A    between atoms: N_4  and  C_18
REMARK    3  A    between atoms: N_5  and  C_19
REMARK    4  A    between atoms: C_7  and  C_13
REMARK    5  A    between atoms: C_8  and  C_12
REMARK    6  A    between atoms: C_12  and  C_14
REMARK    7  A    between atoms: C_13  and  C_15
REMARK    8  A    between atoms: C_17  and  C_22
REMARK                            x       y       z     vdW  Elec       q    Type
REMARK                         _______ _______ _______ _____ _____    ______ ____
ROOT
ATOM      2  O   UNL     1       2.364   2.437  23.354  0.00  0.00    -0.252 OA
ATOM      3  N   UNL     1       0.335   1.440  23.849  0.00  0.00    -0.285 N 
ATOM      5  N   UNL     1       2.208   0.125  23.264  0.00  0.00    -0.269 N 
ATOM      7  C   UNL     1      -2.118   1.618  25.461  0.00  0.00    +0.004 C 
ATOM      8  C   UNL     1      -1.383   0.276  25.236  0.00  0.00    +0.010 C 
ATOM      9  C   UNL     1      -1.100   2.766  25.374  0.00  0.00    +0.023 C 
ATOM     10  C   UNL     1      -0.559   0.271  23.936  0.00  0.00    +0.113 C 
ATOM     11  C   UNL     1      -0.306   2.738  24.073  0.00  0.00    +0.109 C 
ATOM     16  C   UNL     1       1.701   1.405  23.486  0.00  0.00    +0.306 C 
ATOM     26  H   UNL     1       1.570  -0.598  22.950  0.00  0.00    +0.156 HD
ENDROOT
BRANCH   5  19
ATOM     19  C   UNL     1       3.557  -0.293  23.370  0.00  0.00    +0.035 A 
ATOM     20  C   UNL     1       4.583   0.593  23.050  0.00  0.00    +0.023 A 
ATOM     21  C   UNL     1       3.851  -1.586  23.794  0.00  0.00    +0.023 A 
ATOM     23  C   UNL     1       5.911   0.183  23.153  0.00  0.00    +0.002 A 
ATOM     24  C   UNL     1       5.180  -1.996  23.898  0.00  0.00    +0.002 A 
ATOM     25  C   UNL     1       6.210  -1.112  23.578  0.00  0.00    +0.000 A 
ENDBRANCH   5  19
BRANCH   8  12
ATOM     12  C   UNL     1      -2.320  -0.932  25.281  0.00  0.00    +0.002 C 
ATOM     14  C   UNL     1      -1.788  -2.067  24.431  0.00  0.00    +0.004 C 
ENDBRANCH   8  12
BRANCH   7  13
ATOM     13  C   UNL     1      -3.298   1.849  24.511  0.00  0.00    +0.100 C 
BRANCH  13  15
ATOM      1  O   UNL     1      -3.381   4.239  24.688  0.00  0.00    -0.276 OA
ATOM      4  N   UNL     1      -5.355   3.092  25.099  0.00  0.00    -0.291 N 
ATOM     15  C   UNL     1      -3.998   3.173  24.770  0.00  0.00    +0.216 C 
ATOM     18  C   UNL     1      -6.164   4.273  25.373  0.00  0.00    +0.133 C 
BRANCH   4  17
ATOM     17  C   UNL     1      -6.065   1.819  25.189  0.00  0.00    +0.226 C 
BRANCH  17  22
ATOM      6  N   UNL     1      -7.002   1.438  27.608  0.00  0.00    -0.195 NA
ATOM     22  C   UNL     1      -6.589   1.608  26.537  0.00  0.00    +0.082 C 
ENDBRANCH  17  22
ENDBRANCH   4  17
ENDBRANCH  13  15
ENDBRANCH   7  13
TORSDOF 6
ENDMDL
MODEL 4
REMARK VINA RESULT:      -0.3      1.898      3.645
REMARK  Name = 11912453
REMARK  8 active torsions:
REMARK  status: ('A' for Active; 'I' for Inactive)
REMARK    1  A    between atoms: N_4  and  C_17
REMARK    2  A    between atoms: N_4  and  C_18
REMARK    3  A    between atoms: N_5  and  C_19
REMARK    4  A    between atoms: C_7  and  C_13
REMARK    5  A    between atoms: C_8  and  C_12
REMARK    6  A    between atoms: C_12  and  C_14
REMARK    7  A    between atoms: C_13  and  C_15
REMARK    8  A    between atoms: C_17  and  C_22
REMARK                            x       y       z     vdW  Elec       q    Type
REMARK                         _______ _______ _______ _____ _____    ______ ____
ROOT
ATOM      2  O   UNL     1       0.735  -0.708  23.042  0.00  0.00    -0.252 OA
ATOM      3  N   UNL     1      -0.130   1.166  24.091  0.00  0.00    -0.285 N 
ATOM      5  N   UNL     1       2.196   0.752  24.097  0.00  0.00    -0.269 N 
ATOM      7  C   UNL     1      -2.248   3.204  24.042  0.00  0.00    +0.004 C 
ATOM      8  C   UNL     1      -0.779   3.560  24.364  0.00  0.00    +0.010 C 
ATOM      9  C   UNL     1      -2.274   1.962  23.137  0.00  0.00    +0.023 C 
ATOM     10  C   UNL     1      -0.000   2.364  24.939  0.00  0.00    +0.113 C 
ATOM     11  C   UNL     1      -1.502   0.793  23.738  0.00  0.00    +0.109 C 
ATOM     16  C   UNL     1       0.933   0.326  23.684  0.00  0.00    +0.306 C 
ATOM     26  H   UNL     1       2.266   1.300  24.947  0.00  0.00    +0.156 HD
ENDROOT
BRANCH   5  19
ATOM     19  C   UNL     1       3.441   0.454  23.491  0.00  0.00    +0.035 A 
ATOM     20  C   UNL     1       4.528   0.093  24.284  0.00  0.00    +0.023 A 
ATOM     21  C   UNL     1       3.572   0.522  22.107  0.00  0.00    +0.023 A 
ATOM     23  C   UNL     1       5.754  -0.200  23.689  0.00  0.00    +0.002 A 
ATOM     24  C   UNL     1       4.799   0.228  21.511  0.00  0.00    +0.002 A 
ATOM     25  C   UNL     1       5.889  -0.133  22.301  0.00  0.00    +0.000 A 
ENDBRANCH   5  19
BRANCH   8  12
ATOM     12  C   UNL     1      -0.647   4.776  25.282  0.00  0.00    +0.002 C 
ATOM     14  C   UNL     1      -1.720   5.804  24.984  0.00  0.00    +0.004 C 
ENDBRANCH   8  12
BRANCH   7  13
ATOM     13  C   UNL     1      -3.129   3.008  25.281  0.00  0.00    +0.100 C 
BRANCH  13  15
ATOM      1  O   UNL     1      -5.200   3.943  24.517  0.00  0.00    -0.276 OA
ATOM      4  N   UNL     1      -5.225   1.704  25.123  0.00  0.00    -0.291 N 
ATOM     15  C   UNL     1      -4.607   2.945  24.935  0.00  0.00    +0.216 C 
ATOM     18  C   UNL     1      -6.637   1.483  24.835  0.00  0.00    +0.133 C 
BRANCH   4  17
ATOM     17  C   UNL     1      -4.503   0.536  25.620  0.00  0.00    +0.226 C 
BRANCH  17  22
ATOM      6  N   UNL     1      -4.404  -1.345  23.796  0.00  0.00    -0.195 NA
ATOM     22  C   UNL     1      -4.447  -0.514  24.605  0.00  0.00    +0.082 C 
ENDBRANCH  17  22
ENDBRANCH   4  17
ENDBRANCH  13  15
ENDBRANCH   7  13
TORSDOF 6
ENDMDL
