MODEL 1
REMARK VINA RESULT:      -1.7      0.000      0.000
REMARK  Name = 45784303
REMARK  11 active torsions:
REMARK  status: ('A' for Active; 'I' for Inactive)
REMARK    1  A    between atoms: O_1  and  C_21
REMARK    2  A    between atoms: O_1  and  C_26
REMARK    3  A    between atoms: O_2  and  C_22
REMARK    4  A    between atoms: O_2  and  C_27
REMARK    5  A    between atoms: O_3  and  C_23
REMARK    6  A    between atoms: O_3  and  C_28
REMARK    7  A    between atoms: O_4  and  C_24
REMARK    8  A    between atoms: O_4  and  C_29
REMARK    9  A    between atoms: N_5  and  C_13
REMARK   10  A    between atoms: C_8  and  C_12
REMARK   11  A    between atoms: C_13  and  C_14
REMARK                            x       y       z     vdW  Elec       q    Type
REMARK                         _______ _______ _______ _____ _____    ______ ____
ROOT
ATOM      5  N   UNL     1      -5.056  -9.468   9.911  0.00  0.00    -0.297 NA
ATOM      8  C   UNL     1      -7.247 -10.263  10.373  0.00  0.00    +0.070 C 
ATOM      9  C   UNL     1      -7.265  -9.188   9.276  0.00  0.00    +0.028 C 
ATOM     10  C   UNL     1      -5.754 -10.540  10.628  0.00  0.00    +0.096 C 
ATOM     11  C   UNL     1      -5.853  -9.208   8.714  0.00  0.00    +0.085 C 
ENDROOT
BRANCH   8  12
ATOM      6  N   UNL     1      -7.479  -9.903  12.847  0.00  0.00    -0.341 N 
ATOM      7  N   UNL     1      -9.280  -9.437  11.630  0.00  0.00    -0.232 NA
ATOM     12  C   UNL     1      -8.035  -9.858  11.599  0.00  0.00    +0.113 A 
ATOM     15  C   UNL     1      -8.429  -9.484  13.743  0.00  0.00    +0.070 A 
ATOM     16  C   UNL     1      -9.543  -9.198  12.959  0.00  0.00    +0.089 A 
ATOM     19  C   UNL     1      -8.409  -9.332  15.130  0.00  0.00    +0.073 A 
ATOM     20  C   UNL     1     -10.716  -8.734  13.579  0.00  0.00    +0.033 A 
ATOM     23  C   UNL     1      -9.586  -8.869  15.730  0.00  0.00    +0.122 A 
ATOM     25  C   UNL     1     -10.720  -8.575  14.969  0.00  0.00    +0.048 A 
ATOM     30  H   UNL     1      -6.538 -10.196  13.074  0.00  0.00    +0.167 HD
BRANCH  23   3
ATOM      3  O   UNL     1      -9.623  -8.703  17.083  0.00  0.00    -0.495 OA
ATOM     28  C   UNL     1     -10.353  -7.582  17.577  0.00  0.00    +0.277 C 
ENDBRANCH  23   3
ENDBRANCH   8  12
BRANCH   5  13
ATOM     13  C   UNL     1      -3.676  -9.812   9.601  0.00  0.00    +0.119 C 
BRANCH  13  14
ATOM     14  C   UNL     1      -2.783  -9.689  10.806  0.00  0.00    -0.026 A 
ATOM     17  C   UNL     1      -1.591  -8.969  10.719  0.00  0.00    +0.054 A 
ATOM     18  C   UNL     1      -3.145 -10.297  12.008  0.00  0.00    +0.054 A 
ATOM     21  C   UNL     1      -2.316 -10.183  13.124  0.00  0.00    +0.165 A 
ATOM     22  C   UNL     1      -0.763  -8.855  11.836  0.00  0.00    +0.165 A 
ATOM     24  C   UNL     1      -1.125  -9.462  13.039  0.00  0.00    +0.204 A 
BRANCH  21   1
ATOM      1  O   UNL     1      -2.683 -10.780  14.293  0.00  0.00    -0.491 OA
ATOM     26  C   UNL     1      -4.016 -10.552  14.746  0.00  0.00    +0.277 C 
ENDBRANCH  21   1
BRANCH  22   2
ATOM      2  O   UNL     1       0.399  -8.149  11.739  0.00  0.00    -0.491 OA
ATOM     27  C   UNL     1       1.250  -8.454  10.637  0.00  0.00    +0.277 C 
ENDBRANCH  22   2
BRANCH  24   4
ATOM      4  O   UNL     1      -0.316  -9.351  14.130  0.00  0.00    -0.488 OA
ATOM     29  C   UNL     1      -0.941  -9.009  15.366  0.00  0.00    +0.277 C 
ENDBRANCH  24   4
ENDBRANCH  13  14
ENDBRANCH   5  13
TORSDOF 7
ENDMDL
MODEL 2
REMARK VINA RESULT:      -1.4      1.019      2.526
REMARK  Name = 45784303
REMARK  11 active torsions:
REMARK  status: ('A' for Active; 'I' for Inactive)
REMARK    1  A    between atoms: O_1  and  C_21
REMARK    2  A    between atoms: O_1  and  C_26
REMARK    3  A    between atoms: O_2  and  C_22
REMARK    4  A    between atoms: O_2  and  C_27
REMARK    5  A    between atoms: O_3  and  C_23
REMARK    6  A    between atoms: O_3  and  C_28
REMARK    7  A    between atoms: O_4  and  C_24
REMARK    8  A    between atoms: O_4  and  C_29
REMARK    9  A    between atoms: N_5  and  C_13
REMARK   10  A    between atoms: C_8  and  C_12
REMARK   11  A    between atoms: C_13  and  C_14
REMARK                            x       y       z     vdW  Elec       q    Type
REMARK                         _______ _______ _______ _____ _____    ______ ____
ROOT
ATOM      5  N   UNL     1      -4.358  -9.488  10.121  0.00  0.00    -0.297 NA
ATOM      8  C   UNL     1      -6.471 -10.565  10.268  0.00  0.00    +0.070 C 
ATOM      9  C   UNL     1      -6.479  -9.466   9.194  0.00  0.00    +0.028 C 
ATOM     10  C   UNL     1      -5.003 -10.661  10.721  0.00  0.00    +0.096 C 
ATOM     11  C   UNL     1      -5.014  -9.292   8.830  0.00  0.00    +0.085 C 
ENDROOT
BRANCH   8  12
ATOM      6  N   UNL     1      -7.060 -10.228  12.686  0.00  0.00    -0.341 N 
ATOM      7  N   UNL     1      -8.756 -10.117  11.253  0.00  0.00    -0.232 NA
ATOM     12  C   UNL     1      -7.461 -10.300  11.381  0.00  0.00    +0.113 A 
ATOM     15  C   UNL     1      -8.171  -9.983  13.452  0.00  0.00    +0.070 A 
ATOM     16  C   UNL     1      -9.216  -9.917  12.535  0.00  0.00    +0.089 A 
ATOM     19  C   UNL     1      -8.346  -9.815  14.826  0.00  0.00    +0.073 A 
ATOM     20  C   UNL     1     -10.520  -9.673  12.999  0.00  0.00    +0.033 A 
ATOM     23  C   UNL     1      -9.650  -9.573  15.270  0.00  0.00    +0.122 A 
ATOM     25  C   UNL     1     -10.719  -9.503  14.374  0.00  0.00    +0.048 A 
ATOM     30  H   UNL     1      -6.115 -10.339  13.029  0.00  0.00    +0.167 HD
BRANCH  23   3
ATOM      3  O   UNL     1      -9.879  -9.402  16.603  0.00  0.00    -0.495 OA
ATOM     28  C   UNL     1      -8.884  -8.702  17.346  0.00  0.00    +0.277 C 
ENDBRANCH  23   3
ENDBRANCH   8  12
BRANCH   5  13
ATOM     13  C   UNL     1      -2.916  -9.647   9.997  0.00  0.00    +0.119 C 
BRANCH  13  14
ATOM     14  C   UNL     1      -2.224  -9.548  11.329  0.00  0.00    -0.026 A 
ATOM     17  C   UNL     1      -2.747 -10.215  12.438  0.00  0.00    +0.054 A 
ATOM     18  C   UNL     1      -1.062  -8.788  11.458  0.00  0.00    +0.054 A 
ATOM     21  C   UNL     1      -0.421  -8.696  12.693  0.00  0.00    +0.165 A 
ATOM     22  C   UNL     1      -2.105 -10.124  13.673  0.00  0.00    +0.165 A 
ATOM     24  C   UNL     1      -0.943  -9.363  13.801  0.00  0.00    +0.204 A 
BRANCH  21   1
ATOM      1  O   UNL     1       0.715  -7.951  12.804  0.00  0.00    -0.491 OA
ATOM     26  C   UNL     1       0.585  -6.541  12.630  0.00  0.00    +0.277 C 
ENDBRANCH  21   1
BRANCH  22   2
ATOM      2  O   UNL     1      -2.626 -10.780  14.748  0.00  0.00    -0.491 OA
ATOM     27  C   UNL     1      -3.993 -10.525  15.061  0.00  0.00    +0.277 C 
ENDBRANCH  22   2
BRANCH  24   4
ATOM      4  O   UNL     1      -0.317  -9.273  15.009  0.00  0.00    -0.488 OA
ATOM     29  C   UNL     1      -0.270 -10.457  15.802  0.00  0.00    +0.277 C 
ENDBRANCH  24   4
ENDBRANCH  13  14
ENDBRANCH   5  13
TORSDOF 7
ENDMDL
