MODEL 1
REMARK VINA RESULT:      -5.9      0.000      0.000
REMARK  Name = 56774285
REMARK  10 active torsions:
REMARK  status: ('A' for Active; 'I' for Inactive)
REMARK    1  A    between atoms: O_3  and  C_21
REMARK    2  A    between atoms: N_4  and  C_9
REMARK    3  A    between atoms: N_6  and  C_18
REMARK    4  A    between atoms: C_7  and  C_12
REMARK    5  A    between atoms: C_7  and  C_13
REMARK    6  A    between atoms: C_8  and  C_11
REMARK    7  A    between atoms: C_11  and  C_14
REMARK    8  A    between atoms: C_17  and  C_19
REMARK    9  A    between atoms: C_18  and  C_20
REMARK   10  A    between atoms: C_19  and  C_21
REMARK                            x       y       z     vdW  Elec       q    Type
REMARK                         _______ _______ _______ _____ _____    ______ ____
ROOT
ATOM      7  C   UNL     1      -3.540  -1.310  24.370  0.00  0.00    -0.013 C 
ATOM      8  C   UNL     1      -3.968  -0.362  25.510  0.00  0.00    +0.004 C 
ATOM      9  C   UNL     1      -2.152  -1.366  25.042  0.00  0.00    +0.081 C 
ATOM     10  C   UNL     1      -2.478   0.012  25.654  0.00  0.00    +0.027 C 
ATOM     12  C   UNL     1      -3.496  -0.698  22.983  0.00  0.00    +0.013 C 
ATOM     13  C   UNL     1      -4.319  -2.607  24.339  0.00  0.00    +0.013 C 
ENDROOT
BRANCH   9   4
ATOM      2  O   UNL     1      -0.333   0.828  24.579  0.00  0.00    -0.253 OA
ATOM      4  N   UNL     1      -0.999  -1.346  24.126  0.00  0.00    -0.296 N 
ATOM      6  N   UNL     1       0.838  -0.469  23.052  0.00  0.00    -0.295 N 
ATOM     15  C   UNL     1      -0.177  -0.231  23.973  0.00  0.00    +0.300 C 
ATOM     27  H   UNL     1      -0.777  -2.165  23.565  0.00  0.00    +0.151 HD
ATOM     28  H   UNL     1       0.873  -1.369  22.583  0.00  0.00    +0.151 HD
BRANCH   6  18
ATOM     18  C   UNL     1       1.828   0.523  22.708  0.00  0.00    +0.141 C 
BRANCH  18  20
ATOM     20  C   UNL     1       3.210   0.105  23.117  0.00  0.00    -0.030 A 
ATOM     22  C   UNL     1       4.263   1.019  23.059  0.00  0.00    +0.005 A 
ATOM     23  C   UNL     1       3.443  -1.198  23.556  0.00  0.00    +0.005 A 
ATOM     24  C   UNL     1       5.547   0.630  23.439  0.00  0.00    +0.000 A 
ATOM     25  C   UNL     1       4.728  -1.587  23.937  0.00  0.00    +0.000 A 
ATOM     26  C   UNL     1       5.779  -0.673  23.878  0.00  0.00    +0.000 A 
ENDBRANCH  18  20
ENDBRANCH   6  18
ENDBRANCH   9   4
BRANCH   8  11
ATOM     11  C   UNL     1      -4.879   0.788  25.148  0.00  0.00    +0.063 C 
BRANCH  11  14
ATOM      1  O   UNL     1      -3.206   3.687  23.799  0.00  0.00    -0.359 OA
ATOM      5  N   UNL     1      -4.017   2.565  23.674  0.00  0.00    -0.083 NA
ATOM     14  C   UNL     1      -4.070   2.039  24.900  0.00  0.00    +0.084 A 
ATOM     16  C   UNL     1      -3.320   2.778  25.831  0.00  0.00    +0.071 A 
ATOM     17  C   UNL     1      -2.797   3.804  25.088  0.00  0.00    +0.140 A 
BRANCH  17  19
ATOM     19  C   UNL     1      -1.928   4.944  25.399  0.00  0.00    +0.105 C 
BRANCH  19  21
ATOM     21  C   UNL     1      -0.549   4.881  24.712  0.00  0.00    +0.163 C 
BRANCH  21   3
ATOM      3  O   UNL     1      -0.378   3.601  24.118  0.00  0.00    -0.395 OA
ATOM     29  H   UNL     1       0.518   3.300  24.343  0.00  0.00    +0.209 HD
ENDBRANCH  21   3
ENDBRANCH  19  21
ENDBRANCH  17  19
ENDBRANCH  11  14
ENDBRANCH   8  11
TORSDOF 8
ENDMDL
MODEL 2
REMARK VINA RESULT:      -4.5      1.721      4.078
REMARK  Name = 56774285
REMARK  10 active torsions:
REMARK  status: ('A' for Active; 'I' for Inactive)
REMARK    1  A    between atoms: O_3  and  C_21
REMARK    2  A    between atoms: N_4  and  C_9
REMARK    3  A    between atoms: N_6  and  C_18
REMARK    4  A    between atoms: C_7  and  C_12
REMARK    5  A    between atoms: C_7  and  C_13
REMARK    6  A    between atoms: C_8  and  C_11
REMARK    7  A    between atoms: C_11  and  C_14
REMARK    8  A    between atoms: C_17  and  C_19
REMARK    9  A    between atoms: C_18  and  C_20
REMARK   10  A    between atoms: C_19  and  C_21
REMARK                            x       y       z     vdW  Elec       q    Type
REMARK                         _______ _______ _______ _____ _____    ______ ____
ROOT
ATOM      7  C   UNL     1      -2.446   3.568  25.198  0.00  0.00    -0.013 C 
ATOM      8  C   UNL     1      -3.805   3.105  24.632  0.00  0.00    +0.004 C 
ATOM      9  C   UNL     1      -1.884   3.410  23.770  0.00  0.00    +0.081 C 
ATOM     10  C   UNL     1      -3.010   2.384  23.523  0.00  0.00    +0.027 C 
ATOM     12  C   UNL     1      -1.791   2.628  26.194  0.00  0.00    +0.013 C 
ATOM     13  C   UNL     1      -2.470   4.975  25.754  0.00  0.00    +0.013 C 
ENDROOT
BRANCH   9   4
ATOM      2  O   UNL     1      -1.195   0.666  23.191  0.00  0.00    -0.253 OA
ATOM      4  N   UNL     1      -0.531   2.834  23.677  0.00  0.00    -0.296 N 
ATOM      6  N   UNL     1       1.058   1.199  23.359  0.00  0.00    -0.295 N 
ATOM     15  C   UNL     1      -0.303   1.489  23.390  0.00  0.00    +0.300 C 
ATOM     27  H   UNL     1       0.286   3.419  23.832  0.00  0.00    +0.151 HD
ATOM     28  H   UNL     1       1.721   1.941  23.559  0.00  0.00    +0.151 HD
BRANCH   6  18
ATOM     18  C   UNL     1       1.567  -0.123  23.084  0.00  0.00    +0.141 C 
BRANCH  18  20
ATOM     20  C   UNL     1       3.053  -0.206  23.284  0.00  0.00    -0.030 A 
ATOM     22  C   UNL     1       3.632  -1.398  23.725  0.00  0.00    +0.005 A 
ATOM     23  C   UNL     1       3.855   0.906  23.030  0.00  0.00    +0.005 A 
ATOM     24  C   UNL     1       5.012  -1.475  23.911  0.00  0.00    +0.000 A 
ATOM     25  C   UNL     1       5.235   0.828  23.216  0.00  0.00    +0.000 A 
ATOM     26  C   UNL     1       5.813  -0.362  23.656  0.00  0.00    +0.000 A 
ENDBRANCH  18  20
ENDBRANCH   6  18
ENDBRANCH   9   4
BRANCH   8  11
ATOM     11  C   UNL     1      -4.644   2.200  25.502  0.00  0.00    +0.063 C 
BRANCH  11  14
ATOM      1  O   UNL     1      -4.724  -1.113  24.073  0.00  0.00    -0.359 OA
ATOM      5  N   UNL     1      -5.183   0.195  24.173  0.00  0.00    -0.083 NA
ATOM     14  C   UNL     1      -4.426   0.755  25.120  0.00  0.00    +0.084 A 
ATOM     16  C   UNL     1      -3.481  -0.142  25.649  0.00  0.00    +0.071 A 
ATOM     17  C   UNL     1      -3.711  -1.302  24.957  0.00  0.00    +0.140 A 
BRANCH  17  19
ATOM     19  C   UNL     1      -3.105  -2.638  24.983  0.00  0.00    +0.105 C 
BRANCH  19  21
ATOM     21  C   UNL     1      -1.714  -2.704  24.322  0.00  0.00    +0.163 C 
BRANCH  21   3
ATOM      3  O   UNL     1      -0.821  -1.847  25.021  0.00  0.00    -0.395 OA
ATOM     29  H   UNL     1      -0.706  -1.050  24.476  0.00  0.00    +0.209 HD
ENDBRANCH  21   3
ENDBRANCH  19  21
ENDBRANCH  17  19
ENDBRANCH  11  14
ENDBRANCH   8  11
TORSDOF 8
ENDMDL
MODEL 3
REMARK VINA RESULT:      -3.0      1.756      6.139
REMARK  Name = 56774285
REMARK  10 active torsions:
REMARK  status: ('A' for Active; 'I' for Inactive)
REMARK    1  A    between atoms: O_3  and  C_21
REMARK    2  A    between atoms: N_4  and  C_9
REMARK    3  A    between atoms: N_6  and  C_18
REMARK    4  A    between atoms: C_7  and  C_12
REMARK    5  A    between atoms: C_7  and  C_13
REMARK    6  A    between atoms: C_8  and  C_11
REMARK    7  A    between atoms: C_11  and  C_14
REMARK    8  A    between atoms: C_17  and  C_19
REMARK    9  A    between atoms: C_18  and  C_20
REMARK   10  A    between atoms: C_19  and  C_21
REMARK                            x       y       z     vdW  Elec       q    Type
REMARK                         _______ _______ _______ _____ _____    ______ ____
ROOT
ATOM      7  C   UNL     1      -3.329  -2.048  24.838  0.00  0.00    -0.013 C 
ATOM      8  C   UNL     1      -2.054  -1.881  23.983  0.00  0.00    +0.004 C 
ATOM      9  C   UNL     1      -3.996  -1.015  23.906  0.00  0.00    +0.081 C 
ATOM     10  C   UNL     1      -2.580  -0.478  23.613  0.00  0.00    +0.027 C 
ATOM     12  C   UNL     1      -3.230  -1.565  26.273  0.00  0.00    +0.013 C 
ATOM     13  C   UNL     1      -3.901  -3.448  24.801  0.00  0.00    +0.013 C 
ENDROOT
BRANCH   9   4
ATOM      2  O   UNL     1      -3.624   1.846  24.035  0.00  0.00    -0.253 OA
ATOM      4  N   UNL     1      -4.874  -0.034  24.566  0.00  0.00    -0.296 N 
ATOM      6  N   UNL     1      -5.586   2.042  25.261  0.00  0.00    -0.295 N 
ATOM     15  C   UNL     1      -4.606   1.334  24.572  0.00  0.00    +0.300 C 
ATOM     27  H   UNL     1      -5.713  -0.343  25.051  0.00  0.00    +0.151 HD
ATOM     28  H   UNL     1      -6.349   1.529  25.692  0.00  0.00    +0.151 HD
BRANCH   6  18
ATOM     18  C   UNL     1      -5.548   3.477  25.416  0.00  0.00    +0.141 C 
BRANCH  18  20
ATOM     20  C   UNL     1      -4.148   4.014  25.335  0.00  0.00    -0.030 A 
ATOM     22  C   UNL     1      -3.778   4.842  24.275  0.00  0.00    +0.005 A 
ATOM     23  C   UNL     1      -3.217   3.685  26.320  0.00  0.00    +0.005 A 
ATOM     24  C   UNL     1      -2.478   5.340  24.199  0.00  0.00    +0.000 A 
ATOM     25  C   UNL     1      -1.917   4.185  26.246  0.00  0.00    +0.000 A 
ATOM     26  C   UNL     1      -1.547   5.012  25.186  0.00  0.00    +0.000 A 
ENDBRANCH  18  20
ENDBRANCH   6  18
ENDBRANCH   9   4
BRANCH   8  11
ATOM     11  C   UNL     1      -0.729  -1.891  24.708  0.00  0.00    +0.063 C 
BRANCH  11  14
ATOM      1  O   UNL     1       0.742   1.341  24.067  0.00  0.00    -0.359 OA
ATOM      5  N   UNL     1      -0.235   0.522  24.619  0.00  0.00    -0.083 NA
ATOM     14  C   UNL     1       0.117  -0.719  24.272  0.00  0.00    +0.084 A 
ATOM     16  C   UNL     1       1.296  -0.745  23.507  0.00  0.00    +0.071 A 
ATOM     17  C   UNL     1       1.649   0.575  23.407  0.00  0.00    +0.140 A 
BRANCH  17  19
ATOM     19  C   UNL     1       2.758   1.285  22.760  0.00  0.00    +0.105 C 
BRANCH  19  21
ATOM     21  C   UNL     1       4.061   0.465  22.684  0.00  0.00    +0.163 C 
BRANCH  21   3
ATOM      3  O   UNL     1       4.834   0.703  23.853  0.00  0.00    -0.395 OA
ATOM     29  H   UNL     1       5.013   1.658  23.886  0.00  0.00    +0.209 HD
ENDBRANCH  21   3
ENDBRANCH  19  21
ENDBRANCH  17  19
ENDBRANCH  11  14
ENDBRANCH   8  11
TORSDOF 8
ENDMDL
MODEL 4
REMARK VINA RESULT:      -2.8      2.809      5.907
REMARK  Name = 56774285
REMARK  10 active torsions:
REMARK  status: ('A' for Active; 'I' for Inactive)
REMARK    1  A    between atoms: O_3  and  C_21
REMARK    2  A    between atoms: N_4  and  C_9
REMARK    3  A    between atoms: N_6  and  C_18
REMARK    4  A    between atoms: C_7  and  C_12
REMARK    5  A    between atoms: C_7  and  C_13
REMARK    6  A    between atoms: C_8  and  C_11
REMARK    7  A    between atoms: C_11  and  C_14
REMARK    8  A    between atoms: C_17  and  C_19
REMARK    9  A    between atoms: C_18  and  C_20
REMARK   10  A    between atoms: C_19  and  C_21
REMARK                            x       y       z     vdW  Elec       q    Type
REMARK                         _______ _______ _______ _____ _____    ______ ____
ROOT
ATOM      7  C   UNL     1      -3.409  -2.297  24.857  0.00  0.00    -0.013 C 
ATOM      8  C   UNL     1      -2.298  -2.111  23.802  0.00  0.00    +0.004 C 
ATOM      9  C   UNL     1      -4.242  -1.282  24.047  0.00  0.00    +0.081 C 
ATOM     10  C   UNL     1      -2.904  -0.720  23.522  0.00  0.00    +0.027 C 
ATOM     12  C   UNL     1      -3.082  -1.805  26.255  0.00  0.00    +0.013 C 
ATOM     13  C   UNL     1      -3.953  -3.707  24.920  0.00  0.00    +0.013 C 
ENDROOT
BRANCH   9   4
ATOM      2  O   UNL     1      -4.143   1.599  23.861  0.00  0.00    -0.253 OA
ATOM      4  N   UNL     1      -5.016  -0.313  24.842  0.00  0.00    -0.296 N 
ATOM      6  N   UNL     1      -5.734   1.758  25.544  0.00  0.00    -0.295 N 
ATOM     15  C   UNL     1      -4.896   1.066  24.675  0.00  0.00    +0.300 C 
ATOM     27  H   UNL     1      -5.666  -0.638  25.553  0.00  0.00    +0.151 HD
ATOM     28  H   UNL     1      -6.304   1.232  26.199  0.00  0.00    +0.151 HD
BRANCH   6  18
ATOM     18  C   UNL     1      -5.803   3.200  25.577  0.00  0.00    +0.141 C 
BRANCH  18  20
ATOM     20  C   UNL     1      -4.448   3.831  25.446  0.00  0.00    -0.030 A 
ATOM     22  C   UNL     1      -3.620   3.946  26.564  0.00  0.00    +0.005 A 
ATOM     23  C   UNL     1      -4.015   4.303  24.207  0.00  0.00    +0.005 A 
ATOM     24  C   UNL     1      -2.361   4.533  26.442  0.00  0.00    +0.000 A 
ATOM     25  C   UNL     1      -2.756   4.890  24.085  0.00  0.00    +0.000 A 
ATOM     26  C   UNL     1      -1.929   5.005  25.202  0.00  0.00    +0.000 A 
ENDBRANCH  18  20
ENDBRANCH   6  18
ENDBRANCH   9   4
BRANCH   8  11
ATOM     11  C   UNL     1      -0.871  -2.094  24.297  0.00  0.00    +0.063 C 
BRANCH  11  14
ATOM      1  O   UNL     1       0.657   1.144  23.845  0.00  0.00    -0.359 OA
ATOM      5  N   UNL     1       0.377  -0.153  23.431  0.00  0.00    -0.083 NA
ATOM     14  C   UNL     1      -0.371  -0.673  24.408  0.00  0.00    +0.084 A 
ATOM     16  C   UNL     1      -0.594   0.239  25.454  0.00  0.00    +0.071 A 
ATOM     17  C   UNL     1       0.073   1.366  25.051  0.00  0.00    +0.140 A 
BRANCH  17  19
ATOM     19  C   UNL     1       0.269   2.696  25.639  0.00  0.00    +0.105 C 
BRANCH  19  21
ATOM     21  C   UNL     1       0.261   2.703  27.180  0.00  0.00    +0.163 C 
BRANCH  21   3
ATOM      3  O   UNL     1       1.599   2.646  27.656  0.00  0.00    -0.395 OA
ATOM     29  H   UNL     1       1.716   1.775  28.070  0.00  0.00    +0.209 HD
ENDBRANCH  21   3
ENDBRANCH  19  21
ENDBRANCH  17  19
ENDBRANCH  11  14
ENDBRANCH   8  11
TORSDOF 8
ENDMDL
