MODEL 1
REMARK VINA RESULT:      -0.9      0.000      0.000
REMARK  Name = 7662744
REMARK  6 active torsions:
REMARK  status: ('A' for Active; 'I' for Inactive)
REMARK    1  A    between atoms: N_5  and  C_20
REMARK    2  A    between atoms: N_5  and  C_25
REMARK    3  A    between atoms: N_5  and  C_26
REMARK    4  A    between atoms: C_14  and  C_19
REMARK    5  A    between atoms: C_16  and  C_20
REMARK    6  A    between atoms: C_23  and  C_28
REMARK                            x       y       z     vdW  Elec       q    Type
REMARK                         _______ _______ _______ _____ _____    ______ ____
ROOT
ATOM      1  O   UNL     1      -2.292   4.232  27.112  0.00  0.00    -0.268 OA
ATOM      2  O   UNL     1      -5.464  -0.257  25.433  0.00  0.00    -0.274 OA
ATOM      3  N   UNL     1      -3.999   0.769  23.951  0.00  0.00    -0.299 N 
ATOM      4  N   UNL     1      -2.165   3.127  25.050  0.00  0.00    -0.311 N 
ATOM      7  C   UNL     1      -4.104   3.190  23.374  0.00  0.00    +0.027 C 
ATOM      8  C   UNL     1      -2.074   1.905  22.855  0.00  0.00    +0.054 C 
ATOM      9  C   UNL     1      -3.017   2.985  22.330  0.00  0.00    +0.018 C 
ATOM     10  C   UNL     1      -4.882   1.885  23.614  0.00  0.00    +0.113 C 
ATOM     11  C   UNL     1      -3.454   3.713  24.655  0.00  0.00    +0.130 C 
ATOM     12  C   UNL     1      -2.856   0.589  23.046  0.00  0.00    +0.117 C 
ATOM     13  C   UNL     1      -1.413   2.323  24.171  0.00  0.00    +0.034 A 
ATOM     14  C   UNL     1      -0.161   1.927  24.520  0.00  0.00    +0.002 A 
ATOM     15  C   UNL     1      -1.684   3.520  26.312  0.00  0.00    +0.252 A 
ATOM     16  C   UNL     1      -4.317  -0.065  25.023  0.00  0.00    +0.230 C 
ATOM     17  C   UNL     1       0.368   2.312  25.816  0.00  0.00    +0.015 A 
ATOM     18  C   UNL     1      -0.331   3.046  26.681  0.00  0.00    +0.071 A 
ENDROOT
BRANCH  14  19
ATOM     19  C   UNL     1       0.674   1.099  23.623  0.00  0.00    -0.015 A 
ATOM     21  C   UNL     1       2.060   1.139  23.732  0.00  0.00    +0.027 A 
ATOM     22  C   UNL     1       0.065   0.286  22.671  0.00  0.00    +0.008 A 
ATOM     23  C   UNL     1       2.845   0.359  22.884  0.00  0.00    +0.052 A 
ATOM     24  C   UNL     1       0.849  -0.495  21.822  0.00  0.00    +0.002 A 
ATOM     27  C   UNL     1       2.240  -0.458  21.929  0.00  0.00    +0.019 A 
BRANCH  23  28
ATOM      6  N   UNL     1       5.427   0.426  23.081  0.00  0.00    -0.191 NA
ATOM     28  C   UNL     1       4.270   0.396  22.992  0.00  0.00    +0.099 C 
ENDBRANCH  23  28
ENDBRANCH  14  19
BRANCH  16  20
ATOM     20  C   UNL     1      -3.164  -0.753  25.709  0.00  0.00    +0.180 C 
BRANCH  20   5
ATOM      5  N   UNL     1      -2.625  -1.693  24.750  0.00  0.00    -0.300 NA
ATOM     25  C   UNL     1      -3.440  -2.913  24.694  0.00  0.00    +0.105 C 
ATOM     26  C   UNL     1      -1.235  -2.036  25.074  0.00  0.00    +0.105 C 
ENDBRANCH  20   5
ENDBRANCH  16  20
TORSDOF 4
ENDMDL
