MODEL 1
REMARK VINA RESULT:      -3.5      0.000      0.000
REMARK  Name = 26742452
REMARK  7 active torsions:
REMARK  status: ('A' for Active; 'I' for Inactive)
REMARK    1  A    between atoms: S_1  and  N_6
REMARK    2  A    between atoms: S_1  and  C_21
REMARK    3  A    between atoms: N_6  and  C_16
REMARK    4  A    between atoms: C_10  and  C_17
REMARK    5  A    between atoms: C_11  and  C_16
REMARK    6  A    between atoms: C_19  and  C_22
REMARK    7  A    between atoms: C_20  and  C_23
REMARK                            x       y       z     vdW  Elec       q    Type
REMARK                         _______ _______ _______ _____ _____    ______ ____
ROOT
ATOM      5  N   UNL     1      -3.670  -1.237  25.987  0.00  0.00    -0.297 NA
ATOM      9  C   UNL     1      -2.555  -1.408  23.640  0.00  0.00    +0.002 C 
ATOM     10  C   UNL     1      -1.503  -1.017  24.714  0.00  0.00    +0.055 C 
ATOM     11  C   UNL     1      -4.454  -0.457  24.993  0.00  0.00    +0.072 C 
ATOM     12  C   UNL     1      -3.701  -0.375  23.648  0.00  0.00    +0.024 C 
ATOM     13  C   UNL     1      -3.159  -2.759  24.078  0.00  0.00    +0.019 C 
ATOM     14  C   UNL     1      -2.273  -0.739  26.037  0.00  0.00    +0.094 C 
ATOM     15  C   UNL     1      -3.642  -2.649  25.535  0.00  0.00    +0.085 C 
ENDROOT
BRANCH  10  17
ATOM      7  N   UNL     1      -0.924   1.356  24.582  0.00  0.00    -0.237 NA
ATOM      8  N   UNL     1       1.226   2.110  23.799  0.00  0.00    -0.229 NA
ATOM     17  C   UNL     1      -0.510   0.087  24.380  0.00  0.00    +0.050 A 
ATOM     18  C   UNL     1       0.739  -0.245  23.897  0.00  0.00    +0.055 A 
ATOM     19  C   UNL     1       1.573   0.819  23.620  0.00  0.00    +0.110 A 
ATOM     20  C   UNL     1      -0.018   2.305  24.274  0.00  0.00    +0.127 A 
ATOM     23  C   UNL     1      -0.438   3.720  24.486  0.00  0.00    +0.088 C 
BRANCH  19  22
ATOM      4  O   UNL     1       3.898   0.671  24.034  0.00  0.00    -0.461 OA
ATOM     22  C   UNL     1       2.903   0.616  23.110  0.00  0.00    +0.153 A 
ATOM     24  C   UNL     1       3.420   0.371  21.859  0.00  0.00    +0.051 A 
ATOM     25  C   UNL     1       4.822   0.269  22.026  0.00  0.00    +0.042 A 
ATOM     26  C   UNL     1       5.062   0.460  23.367  0.00  0.00    +0.196 A 
ENDBRANCH  19  22
ENDBRANCH  10  17
BRANCH  11  16
ATOM     16  C   UNL     1      -4.841   0.929  25.514  0.00  0.00    +0.124 C 
BRANCH  16   6
ATOM      6  N   UNL     1      -3.980   1.942  24.883  0.00  0.00    -0.193 NA
ATOM     27  H   UNL     1      -3.651   1.674  23.946  0.00  0.00    +0.148 HD
BRANCH   6   1
ATOM      1  S   UNL     1      -4.327   3.597  25.118  0.00  0.00    +0.027 S 
ATOM      2  O   UNL     1      -5.655   3.745  25.682  0.00  0.00    -0.158 OA
ATOM      3  O   UNL     1      -3.944   4.323  23.923  0.00  0.00    -0.158 OA
ATOM     21  C   UNL     1      -3.147   4.001  26.385  0.00  0.00    +0.214 C 
ENDBRANCH   6   1
ENDBRANCH  16   6
ENDBRANCH  11  16
TORSDOF 5
ENDMDL
MODEL 2
REMARK VINA RESULT:      -3.0      2.490      5.574
REMARK  Name = 26742452
REMARK  7 active torsions:
REMARK  status: ('A' for Active; 'I' for Inactive)
REMARK    1  A    between atoms: S_1  and  N_6
REMARK    2  A    between atoms: S_1  and  C_21
REMARK    3  A    between atoms: N_6  and  C_16
REMARK    4  A    between atoms: C_10  and  C_17
REMARK    5  A    between atoms: C_11  and  C_16
REMARK    6  A    between atoms: C_19  and  C_22
REMARK    7  A    between atoms: C_20  and  C_23
REMARK                            x       y       z     vdW  Elec       q    Type
REMARK                         _______ _______ _______ _____ _____    ______ ____
ROOT
ATOM      5  N   UNL     1      -2.670  -2.207  23.718  0.00  0.00    -0.297 NA
ATOM      9  C   UNL     1      -2.921  -1.217  26.114  0.00  0.00    +0.002 C 
ATOM     10  C   UNL     1      -3.897  -0.515  25.130  0.00  0.00    +0.055 C 
ATOM     11  C   UNL     1      -1.334  -1.848  24.263  0.00  0.00    +0.072 C 
ATOM     12  C   UNL     1      -1.476  -1.073  25.590  0.00  0.00    +0.024 C 
ATOM     13  C   UNL     1      -3.265  -2.722  26.085  0.00  0.00    +0.019 C 
ATOM     14  C   UNL     1      -3.549  -1.011  23.698  0.00  0.00    +0.094 C 
ATOM     15  C   UNL     1      -3.275  -3.211  24.626  0.00  0.00    +0.085 C 
ENDROOT
BRANCH  10  17
ATOM      7  N   UNL     1      -5.249   1.496  25.469  0.00  0.00    -0.237 NA
ATOM      8  N   UNL     1      -4.308   3.711  25.342  0.00  0.00    -0.229 NA
ATOM     17  C   UNL     1      -4.022   1.001  25.202  0.00  0.00    +0.050 A 
ATOM     18  C   UNL     1      -2.906   1.786  24.995  0.00  0.00    +0.055 A 
ATOM     19  C   UNL     1      -3.111   3.147  25.078  0.00  0.00    +0.110 A 
ATOM     20  C   UNL     1      -5.319   2.840  25.523  0.00  0.00    +0.127 A 
ATOM     23  C   UNL     1      -6.659   3.425  25.818  0.00  0.00    +0.088 C 
BRANCH  19  22
ATOM      4  O   UNL     1      -0.924   3.576  24.286  0.00  0.00    -0.461 OA
ATOM     22  C   UNL     1      -2.034   4.082  24.884  0.00  0.00    +0.153 A 
ATOM     24  C   UNL     1      -1.862   5.415  25.172  0.00  0.00    +0.051 A 
ATOM     25  C   UNL     1      -0.562   5.751  24.723  0.00  0.00    +0.042 A 
ATOM     26  C   UNL     1      -0.032   4.597  24.192  0.00  0.00    +0.196 A 
ENDBRANCH  19  22
ENDBRANCH  10  17
BRANCH  11  16
ATOM     16  C   UNL     1      -0.476  -1.088  23.248  0.00  0.00    +0.124 C 
BRANCH  16   6
ATOM      6  N   UNL     1       0.764  -0.640  23.902  0.00  0.00    -0.193 NA
ATOM     27  H   UNL     1       1.081  -1.266  24.654  0.00  0.00    +0.148 HD
BRANCH   6   1
ATOM      1  S   UNL     1       1.988   0.090  22.960  0.00  0.00    +0.027 S 
ATOM      2  O   UNL     1       2.219   1.445  23.420  0.00  0.00    -0.158 OA
ATOM      3  O   UNL     1       1.719  -0.184  21.562  0.00  0.00    -0.158 OA
ATOM     21  C   UNL     1       3.392  -0.894  23.434  0.00  0.00    +0.214 C 
ENDBRANCH   6   1
ENDBRANCH  16   6
ENDBRANCH  11  16
TORSDOF 5
ENDMDL
MODEL 3
REMARK VINA RESULT:      -2.2      2.509      5.453
REMARK  Name = 26742452
REMARK  7 active torsions:
REMARK  status: ('A' for Active; 'I' for Inactive)
REMARK    1  A    between atoms: S_1  and  N_6
REMARK    2  A    between atoms: S_1  and  C_21
REMARK    3  A    between atoms: N_6  and  C_16
REMARK    4  A    between atoms: C_10  and  C_17
REMARK    5  A    between atoms: C_11  and  C_16
REMARK    6  A    between atoms: C_19  and  C_22
REMARK    7  A    between atoms: C_20  and  C_23
REMARK                            x       y       z     vdW  Elec       q    Type
REMARK                         _______ _______ _______ _____ _____    ______ ____
ROOT
ATOM      5  N   UNL     1      -3.060   4.597  24.660  0.00  0.00    -0.297 NA
ATOM      9  C   UNL     1      -0.605   3.945  25.240  0.00  0.00    +0.002 C 
ATOM     10  C   UNL     1      -1.089   3.176  23.980  0.00  0.00    +0.055 C 
ATOM     11  C   UNL     1      -2.955   4.238  26.099  0.00  0.00    +0.072 C 
ATOM     12  C   UNL     1      -1.563   3.652  26.416  0.00  0.00    +0.024 C 
ATOM     13  C   UNL     1      -0.730   5.451  24.920  0.00  0.00    +0.019 C 
ATOM     14  C   UNL     1      -2.610   3.461  23.818  0.00  0.00    +0.094 C 
ATOM     15  C   UNL     1      -2.153   5.744  24.413  0.00  0.00    +0.085 C 
ENDROOT
BRANCH  10  17
ATOM      7  N   UNL     1       0.495   1.372  23.509  0.00  0.00    -0.237 NA
ATOM      8  N   UNL     1      -0.123  -0.951  23.668  0.00  0.00    -0.229 NA
ATOM     17  C   UNL     1      -0.764   1.693  23.874  0.00  0.00    +0.050 A 
ATOM     18  C   UNL     1      -1.745   0.761  24.149  0.00  0.00    +0.055 A 
ATOM     19  C   UNL     1      -1.363  -0.559  24.028  0.00  0.00    +0.110 A 
ATOM     20  C   UNL     1       0.743   0.050  23.426  0.00  0.00    +0.127 A 
ATOM     23  C   UNL     1       2.124  -0.343  23.026  0.00  0.00    +0.088 C 
BRANCH  19  22
ATOM      4  O   UNL     1      -3.485  -1.535  23.652  0.00  0.00    -0.461 OA
ATOM     22  C   UNL     1      -2.286  -1.633  24.284  0.00  0.00    +0.153 A 
ATOM     24  C   UNL     1      -2.233  -2.777  25.046  0.00  0.00    +0.051 A 
ATOM     25  C   UNL     1      -3.481  -3.423  24.872  0.00  0.00    +0.042 A 
ATOM     26  C   UNL     1      -4.207  -2.627  24.015  0.00  0.00    +0.196 A 
ENDBRANCH  19  22
ENDBRANCH  10  17
BRANCH  11  16
ATOM     16  C   UNL     1      -4.081   3.304  26.549  0.00  0.00    +0.124 C 
BRANCH  16   6
ATOM      6  N   UNL     1      -5.066   3.173  25.463  0.00  0.00    -0.193 NA
ATOM     27  H   UNL     1      -4.788   3.654  24.597  0.00  0.00    +0.148 HD
BRANCH   6   1
ATOM      1  S   UNL     1      -5.908   1.700  25.271  0.00  0.00    +0.027 S 
ATOM      2  O   UNL     1      -4.965   0.623  25.038  0.00  0.00    -0.158 OA
ATOM      3  O   UNL     1      -7.022   1.920  24.370  0.00  0.00    -0.158 OA
ATOM     21  C   UNL     1      -6.579   1.495  26.905  0.00  0.00    +0.214 C 
ENDBRANCH   6   1
ENDBRANCH  16   6
ENDBRANCH  11  16
TORSDOF 5
ENDMDL
MODEL 4
REMARK VINA RESULT:      -1.1      2.867      6.995
REMARK  Name = 26742452
REMARK  7 active torsions:
REMARK  status: ('A' for Active; 'I' for Inactive)
REMARK    1  A    between atoms: S_1  and  N_6
REMARK    2  A    between atoms: S_1  and  C_21
REMARK    3  A    between atoms: N_6  and  C_16
REMARK    4  A    between atoms: C_10  and  C_17
REMARK    5  A    between atoms: C_11  and  C_16
REMARK    6  A    between atoms: C_19  and  C_22
REMARK    7  A    between atoms: C_20  and  C_23
REMARK                            x       y       z     vdW  Elec       q    Type
REMARK                         _______ _______ _______ _____ _____    ______ ____
ROOT
ATOM      5  N   UNL     1       0.277   3.107  25.593  0.00  0.00    -0.297 NA
ATOM      9  C   UNL     1      -1.765   4.018  24.257  0.00  0.00    +0.002 C 
ATOM     10  C   UNL     1      -2.242   3.160  25.461  0.00  0.00    +0.055 C 
ATOM     11  C   UNL     1       0.452   2.826  24.143  0.00  0.00    +0.072 C 
ATOM     12  C   UNL     1      -0.835   3.170  23.363  0.00  0.00    +0.024 C 
ATOM     13  C   UNL     1      -0.911   5.166  24.837  0.00  0.00    +0.019 C 
ATOM     14  C   UNL     1      -0.982   2.492  26.083  0.00  0.00    +0.094 C 
ATOM     15  C   UNL     1       0.170   4.577  25.760  0.00  0.00    +0.085 C 
ENDROOT
BRANCH  10  17
ATOM      7  N   UNL     1      -4.628   2.651  25.281  0.00  0.00    -0.237 NA
ATOM      8  N   UNL     1      -5.434   0.426  24.830  0.00  0.00    -0.229 NA
ATOM     17  C   UNL     1      -3.370   2.164  25.232  0.00  0.00    +0.050 A 
ATOM     18  C   UNL     1      -3.068   0.839  24.991  0.00  0.00    +0.055 A 
ATOM     19  C   UNL     1      -4.151   0.007  24.795  0.00  0.00    +0.110 A 
ATOM     20  C   UNL     1      -5.598   1.739  25.074  0.00  0.00    +0.127 A 
ATOM     23  C   UNL     1      -7.002   2.240  25.119  0.00  0.00    +0.088 C 
BRANCH  19  22
ATOM      4  O   UNL     1      -3.244  -2.076  25.454  0.00  0.00    -0.461 OA
ATOM     22  C   UNL     1      -3.982  -1.398  24.535  0.00  0.00    +0.153 A 
ATOM     24  C   UNL     1      -4.408  -2.243  23.538  0.00  0.00    +0.051 A 
ATOM     25  C   UNL     1      -3.900  -3.524  23.864  0.00  0.00    +0.042 A 
ATOM     26  C   UNL     1      -3.198  -3.368  25.038  0.00  0.00    +0.196 A 
ENDBRANCH  19  22
ENDBRANCH  10  17
BRANCH  11  16
ATOM     16  C   UNL     1       0.911   1.390  23.879  0.00  0.00    +0.124 C 
BRANCH  16   6
ATOM      6  N   UNL     1       2.315   1.404  23.440  0.00  0.00    -0.193 NA
ATOM     27  H   UNL     1       2.938   1.924  24.072  0.00  0.00    +0.148 HD
BRANCH   6   1
ATOM      1  S   UNL     1       2.975   0.009  22.707  0.00  0.00    +0.027 S 
ATOM      2  O   UNL     1       2.614  -0.025  21.303  0.00  0.00    -0.158 OA
ATOM      3  O   UNL     1       2.718  -1.129  23.568  0.00  0.00    -0.158 OA
ATOM     21  C   UNL     1       4.712   0.376  22.816  0.00  0.00    +0.214 C 
ENDBRANCH   6   1
ENDBRANCH  16   6
ENDBRANCH  11  16
TORSDOF 5
ENDMDL
MODEL 5
REMARK VINA RESULT:      -1.1      2.708      4.153
REMARK  Name = 26742452
REMARK  7 active torsions:
REMARK  status: ('A' for Active; 'I' for Inactive)
REMARK    1  A    between atoms: S_1  and  N_6
REMARK    2  A    between atoms: S_1  and  C_21
REMARK    3  A    between atoms: N_6  and  C_16
REMARK    4  A    between atoms: C_10  and  C_17
REMARK    5  A    between atoms: C_11  and  C_16
REMARK    6  A    between atoms: C_19  and  C_22
REMARK    7  A    between atoms: C_20  and  C_23
REMARK                            x       y       z     vdW  Elec       q    Type
REMARK                         _______ _______ _______ _____ _____    ______ ____
ROOT
ATOM      5  N   UNL     1      -5.047   2.540  23.807  0.00  0.00    -0.297 NA
ATOM      9  C   UNL     1      -3.962   3.162  26.092  0.00  0.00    +0.002 C 
ATOM     10  C   UNL     1      -2.929   3.310  24.941  0.00  0.00    +0.055 C 
ATOM     11  C   UNL     1      -5.318   1.473  24.806  0.00  0.00    +0.072 C 
ATOM     12  C   UNL     1      -4.514   1.720  26.100  0.00  0.00    +0.024 C 
ATOM     13  C   UNL     1      -5.144   4.097  25.754  0.00  0.00    +0.019 C 
ATOM     14  C   UNL     1      -3.584   2.733  23.653  0.00  0.00    +0.094 C 
ATOM     15  C   UNL     1      -5.629   3.803  24.323  0.00  0.00    +0.085 C 
ENDROOT
BRANCH  10  17
ATOM      7  N   UNL     1      -0.980   2.982  26.383  0.00  0.00    -0.237 NA
ATOM      8  N   UNL     1       0.998   1.834  25.624  0.00  0.00    -0.229 NA
ATOM     17  C   UNL     1      -1.523   2.774  25.164  0.00  0.00    +0.050 A 
ATOM     18  C   UNL     1      -0.876   2.114  24.139  0.00  0.00    +0.055 A 
ATOM     19  C   UNL     1       0.395   1.662  24.429  0.00  0.00    +0.110 A 
ATOM     20  C   UNL     1       0.265   2.493  26.541  0.00  0.00    +0.127 A 
ATOM     23  C   UNL     1       0.897   2.702  27.876  0.00  0.00    +0.088 C 
BRANCH  19  22
ATOM      4  O   UNL     1       2.499   1.295  23.412  0.00  0.00    -0.461 OA
ATOM     22  C   UNL     1       1.183   0.958  23.452  0.00  0.00    +0.153 A 
ATOM     24  C   UNL     1       0.903  -0.010  22.516  0.00  0.00    +0.051 A 
ATOM     25  C   UNL     1       2.126  -0.286  21.858  0.00  0.00    +0.042 A 
ATOM     26  C   UNL     1       3.066   0.535  22.439  0.00  0.00    +0.196 A 
ENDBRANCH  19  22
ENDBRANCH  10  17
BRANCH  11  16
ATOM     16  C   UNL     1      -5.072   0.071  24.242  0.00  0.00    +0.124 C 
BRANCH  16   6
ATOM      6  N   UNL     1      -3.646  -0.265  24.385  0.00  0.00    -0.193 NA
ATOM     27  H   UNL     1      -3.056   0.543  24.626  0.00  0.00    +0.148 HD
BRANCH   6   1
ATOM      1  S   UNL     1      -3.207  -1.758  25.089  0.00  0.00    +0.027 S 
ATOM      2  O   UNL     1      -3.830  -2.846  24.362  0.00  0.00    -0.158 OA
ATOM      3  O   UNL     1      -3.349  -1.649  26.528  0.00  0.00    -0.158 OA
ATOM     21  C   UNL     1      -1.465  -1.786  24.729  0.00  0.00    +0.214 C 
ENDBRANCH   6   1
ENDBRANCH  16   6
ENDBRANCH  11  16
TORSDOF 5
ENDMDL
MODEL 6
REMARK VINA RESULT:      -0.7      2.169      4.071
REMARK  Name = 26742452
REMARK  7 active torsions:
REMARK  status: ('A' for Active; 'I' for Inactive)
REMARK    1  A    between atoms: S_1  and  N_6
REMARK    2  A    between atoms: S_1  and  C_21
REMARK    3  A    between atoms: N_6  and  C_16
REMARK    4  A    between atoms: C_10  and  C_17
REMARK    5  A    between atoms: C_11  and  C_16
REMARK    6  A    between atoms: C_19  and  C_22
REMARK    7  A    between atoms: C_20  and  C_23
REMARK                            x       y       z     vdW  Elec       q    Type
REMARK                         _______ _______ _______ _____ _____    ______ ____
ROOT
ATOM      5  N   UNL     1      -3.568   3.526  23.924  0.00  0.00    -0.297 NA
ATOM      9  C   UNL     1      -1.387   3.496  25.346  0.00  0.00    +0.002 C 
ATOM     10  C   UNL     1      -1.146   2.822  23.967  0.00  0.00    +0.055 C 
ATOM     11  C   UNL     1      -3.855   2.997  25.284  0.00  0.00    +0.072 C 
ATOM     12  C   UNL     1      -2.545   2.777  26.070  0.00  0.00    +0.024 C 
ATOM     13  C   UNL     1      -1.857   4.939  25.062  0.00  0.00    +0.019 C 
ATOM     14  C   UNL     1      -2.528   2.698  23.265  0.00  0.00    +0.094 C 
ATOM     15  C   UNL     1      -3.037   4.902  24.075  0.00  0.00    +0.085 C 
ENDROOT
BRANCH  10  17
ATOM      7  N   UNL     1      -1.049   0.388  24.190  0.00  0.00    -0.237 NA
ATOM      8  N   UNL     1       0.997  -0.848  23.881  0.00  0.00    -0.229 NA
ATOM     17  C   UNL     1      -0.360   1.520  23.931  0.00  0.00    +0.050 A 
ATOM     18  C   UNL     1       0.990   1.548  23.644  0.00  0.00    +0.055 A 
ATOM     19  C   UNL     1       1.622   0.322  23.633  0.00  0.00    +0.110 A 
ATOM     20  C   UNL     1      -0.319  -0.744  24.149  0.00  0.00    +0.127 A 
ATOM     23  C   UNL     1      -1.046  -2.015  24.428  0.00  0.00    +0.088 C 
BRANCH  19  22
ATOM      4  O   UNL     1       3.621  -0.932  23.798  0.00  0.00    -0.461 OA
ATOM     22  C   UNL     1       3.028   0.205  23.349  0.00  0.00    +0.153 A 
ATOM     24  C   UNL     1       3.943   1.005  22.706  0.00  0.00    +0.051 A 
ATOM     25  C   UNL     1       5.178   0.316  22.763  0.00  0.00    +0.042 A 
ATOM     26  C   UNL     1       4.930  -0.857  23.439  0.00  0.00    +0.196 A 
ENDBRANCH  19  22
ENDBRANCH  10  17
BRANCH  11  16
ATOM     16  C   UNL     1      -4.716   1.732  25.247  0.00  0.00    +0.124 C 
BRANCH  16   6
ATOM      6  N   UNL     1      -3.840   0.553  25.152  0.00  0.00    -0.193 NA
ATOM     27  H   UNL     1      -3.352   0.332  26.030  0.00  0.00    +0.148 HD
BRANCH   6   1
ATOM      1  S   UNL     1      -4.336  -0.781  24.208  0.00  0.00    +0.027 S 
ATOM      2  O   UNL     1      -3.664  -0.750  22.924  0.00  0.00    -0.158 OA
ATOM      3  O   UNL     1      -5.780  -0.891  24.287  0.00  0.00    -0.158 OA
ATOM     21  C   UNL     1      -3.649  -2.122  25.153  0.00  0.00    +0.214 C 
ENDBRANCH   6   1
ENDBRANCH  16   6
ENDBRANCH  11  16
TORSDOF 5
ENDMDL
MODEL 7
REMARK VINA RESULT:      -0.6      2.193      4.098
REMARK  Name = 26742452
REMARK  7 active torsions:
REMARK  status: ('A' for Active; 'I' for Inactive)
REMARK    1  A    between atoms: S_1  and  N_6
REMARK    2  A    between atoms: S_1  and  C_21
REMARK    3  A    between atoms: N_6  and  C_16
REMARK    4  A    between atoms: C_10  and  C_17
REMARK    5  A    between atoms: C_11  and  C_16
REMARK    6  A    between atoms: C_19  and  C_22
REMARK    7  A    between atoms: C_20  and  C_23
REMARK                            x       y       z     vdW  Elec       q    Type
REMARK                         _______ _______ _______ _____ _____    ______ ____
ROOT
ATOM      5  N   UNL     1      -4.479   3.403  25.760  0.00  0.00    -0.297 NA
ATOM      9  C   UNL     1      -5.409   1.276  24.579  0.00  0.00    +0.002 C 
ATOM     10  C   UNL     1      -4.215   0.907  25.502  0.00  0.00    +0.055 C 
ATOM     11  C   UNL     1      -4.605   3.646  24.299  0.00  0.00    +0.072 C 
ATOM     12  C   UNL     1      -4.955   2.339  23.556  0.00  0.00    +0.024 C 
ATOM     13  C   UNL     1      -6.478   1.938  25.476  0.00  0.00    +0.019 C 
ATOM     14  C   UNL     1      -3.592   2.239  26.008  0.00  0.00    +0.094 C 
ATOM     15  C   UNL     1      -5.828   3.075  26.283  0.00  0.00    +0.085 C 
ENDROOT
BRANCH  10  17
ATOM      7  N   UNL     1      -3.485  -1.367  24.971  0.00  0.00    -0.237 NA
ATOM      8  N   UNL     1      -1.320  -1.830  24.021  0.00  0.00    -0.229 NA
ATOM     17  C   UNL     1      -3.165  -0.056  24.967  0.00  0.00    +0.050 A 
ATOM     18  C   UNL     1      -1.958   0.438  24.513  0.00  0.00    +0.055 A 
ATOM     19  C   UNL     1      -1.066  -0.505  24.046  0.00  0.00    +0.110 A 
ATOM     20  C   UNL     1      -2.530  -2.187  24.492  0.00  0.00    +0.127 A 
ATOM     23  C   UNL     1      -2.848  -3.643  24.479  0.00  0.00    +0.088 C 
BRANCH  19  22
ATOM      4  O   UNL     1       0.725   1.040  24.027  0.00  0.00    -0.461 OA
ATOM     22  C   UNL     1       0.229  -0.130  23.544  0.00  0.00    +0.153 A 
ATOM     24  C   UNL     1       1.112  -0.699  22.657  0.00  0.00    +0.051 A 
ATOM     25  C   UNL     1       2.223   0.176  22.591  0.00  0.00    +0.042 A 
ATOM     26  C   UNL     1       1.938   1.219  23.442  0.00  0.00    +0.196 A 
ENDBRANCH  19  22
ENDBRANCH  10  17
BRANCH  11  16
ATOM     16  C   UNL     1      -3.361   4.319  23.712  0.00  0.00    +0.124 C 
BRANCH  16   6
ATOM      6  N   UNL     1      -2.172   3.523  24.056  0.00  0.00    -0.193 NA
ATOM     27  H   UNL     1      -1.998   2.744  23.407  0.00  0.00    +0.148 HD
BRANCH   6   1
ATOM      1  S   UNL     1      -0.791   4.311  24.678  0.00  0.00    +0.027 S 
ATOM      2  O   UNL     1      -1.173   5.581  25.264  0.00  0.00    -0.158 OA
ATOM      3  O   UNL     1       0.266   4.238  23.689  0.00  0.00    -0.158 OA
ATOM     21  C   UNL     1      -0.356   3.207  26.003  0.00  0.00    +0.214 C 
ENDBRANCH   6   1
ENDBRANCH  16   6
ENDBRANCH  11  16
TORSDOF 5
ENDMDL
MODEL 8
REMARK VINA RESULT:       0.2      3.003      6.680
REMARK  Name = 26742452
REMARK  7 active torsions:
REMARK  status: ('A' for Active; 'I' for Inactive)
REMARK    1  A    between atoms: S_1  and  N_6
REMARK    2  A    between atoms: S_1  and  C_21
REMARK    3  A    between atoms: N_6  and  C_16
REMARK    4  A    between atoms: C_10  and  C_17
REMARK    5  A    between atoms: C_11  and  C_16
REMARK    6  A    between atoms: C_19  and  C_22
REMARK    7  A    between atoms: C_20  and  C_23
REMARK                            x       y       z     vdW  Elec       q    Type
REMARK                         _______ _______ _______ _____ _____    ______ ____
ROOT
ATOM      5  N   UNL     1      -0.366   4.140  25.449  0.00  0.00    -0.297 NA
ATOM      9  C   UNL     1      -2.363   4.042  23.780  0.00  0.00    +0.002 C 
ATOM     10  C   UNL     1      -2.842   3.713  25.221  0.00  0.00    +0.055 C 
ATOM     11  C   UNL     1      -0.006   3.302  24.275  0.00  0.00    +0.072 C 
ATOM     12  C   UNL     1      -1.240   3.061  23.379  0.00  0.00    +0.024 C 
ATOM     13  C   UNL     1      -1.736   5.452  23.828  0.00  0.00    +0.019 C 
ATOM     14  C   UNL     1      -1.574   3.593  26.115  0.00  0.00    +0.094 C 
ATOM     15  C   UNL     1      -0.686   5.501  24.953  0.00  0.00    +0.085 C 
ENDROOT
BRANCH  10  17
ATOM      7  N   UNL     1      -5.002   2.824  25.948  0.00  0.00    -0.237 NA
ATOM      8  N   UNL     1      -5.549   0.483  25.778  0.00  0.00    -0.229 NA
ATOM     17  C   UNL     1      -3.796   2.543  25.411  0.00  0.00    +0.050 A 
ATOM     18  C   UNL     1      -3.399   1.274  25.038  0.00  0.00    +0.055 A 
ATOM     19  C   UNL     1      -4.326   0.274  25.247  0.00  0.00    +0.110 A 
ATOM     20  C   UNL     1      -5.817   1.762  26.102  0.00  0.00    +0.127 A 
ATOM     23  C   UNL     1      -7.160   2.034  26.690  0.00  0.00    +0.088 C 
BRANCH  19  22
ATOM      4  O   UNL     1      -4.489  -1.494  23.684  0.00  0.00    -0.461 OA
ATOM     22  C   UNL     1      -4.044  -1.095  24.904  0.00  0.00    +0.153 A 
ATOM     24  C   UNL     1      -3.404  -2.128  25.548  0.00  0.00    +0.051 A 
ATOM     25  C   UNL     1      -3.461  -3.235  24.666  0.00  0.00    +0.042 A 
ATOM     26  C   UNL     1      -4.132  -2.798  23.547  0.00  0.00    +0.196 A 
ENDBRANCH  19  22
ENDBRANCH  10  17
BRANCH  11  16
ATOM     16  C   UNL     1       0.667   1.988  24.682  0.00  0.00    +0.124 C 
BRANCH  16   6
ATOM      6  N   UNL     1      -0.350   0.927  24.761  0.00  0.00    -0.193 NA
ATOM     27  H   UNL     1      -1.314   1.284  24.792  0.00  0.00    +0.148 HD
BRANCH   6   1
ATOM      1  S   UNL     1      -0.110  -0.525  23.895  0.00  0.00    +0.027 S 
ATOM      2  O   UNL     1       1.202  -0.518  23.279  0.00  0.00    -0.158 OA
ATOM      3  O   UNL     1      -1.298  -0.795  23.110  0.00  0.00    -0.158 OA
ATOM     21  C   UNL     1      -0.080  -1.698  25.232  0.00  0.00    +0.214 C 
ENDBRANCH   6   1
ENDBRANCH  16   6
ENDBRANCH  11  16
TORSDOF 5
ENDMDL
