MODEL 1
REMARK VINA RESULT:      -1.3      0.000      0.000
REMARK  Name = 38029402
REMARK  12 active torsions:
REMARK  status: ('A' for Active; 'I' for Inactive)
REMARK    1  A    between atoms: N_4  and  C_14
REMARK    2  A    between atoms: N_5  and  C_21
REMARK    3  A    between atoms: C_7  and  C_11
REMARK    4  A    between atoms: C_8  and  C_14
REMARK    5  A    between atoms: C_10  and  C_15
REMARK    6  A    between atoms: C_11  and  C_16
REMARK    7  A    between atoms: C_11  and  C_17
REMARK    8  A    between atoms: C_12  and  C_18
REMARK    9  A    between atoms: C_15  and  C_19
REMARK   10  A    between atoms: C_20  and  C_22
REMARK   11  A    between atoms: C_21  and  C_23
REMARK   12  A    between atoms: C_33  and  C_34
REMARK                            x       y       z     vdW  Elec       q    Type
REMARK                         _______ _______ _______ _____ _____    ______ ____
ROOT
ATOM      7  C   UNL     1      -2.000   0.219  24.926  0.00  0.00    +0.000 C 
ATOM      8  C   UNL     1      -1.047  -0.945  24.552  0.00  0.00    +0.032 C 
ATOM      9  C   UNL     1      -3.059  -0.258  25.932  0.00  0.00    +0.012 C 
ATOM     10  C   UNL     1      -3.903  -1.423  25.381  0.00  0.00    +0.023 C 
ATOM     12  C   UNL     1      -3.039  -2.495  24.749  0.00  0.00    -0.073 C 
ATOM     13  C   UNL     1      -1.761  -2.268  24.398  0.00  0.00    -0.022 C 
ATOM     18  C   UNL     1      -3.663  -3.852  24.573  0.00  0.00    +0.039 C 
ENDROOT
BRANCH   7  11
ATOM     11  C   UNL     1      -1.237   1.415  25.503  0.00  0.00    -0.013 C 
ATOM     16  C   UNL     1      -0.328   0.966  26.642  0.00  0.00    +0.007 C 
ATOM     17  C   UNL     1      -0.433   2.110  24.409  0.00  0.00    +0.007 C 
ENDBRANCH   7  11
BRANCH   8  14
ATOM     14  C   UNL     1      -0.269  -0.632  23.269  0.00  0.00    +0.112 C 
BRANCH  14   4
ATOM      3  O   UNL     1       1.825  -0.251  21.341  0.00  0.00    -0.270 OA
ATOM      4  N   UNL     1       1.130  -0.511  23.540  0.00  0.00    -0.311 N 
ATOM     20  C   UNL     1       2.083  -0.327  22.540  0.00  0.00    +0.244 C 
ATOM     35  H   UNL     1       1.417  -0.572  24.510  0.00  0.00    +0.149 HD
BRANCH  20  22
ATOM      1  F   UNL     1       7.434  -0.021  24.214  0.00  0.00    -0.205 F 
ATOM     22  C   UNL     1       3.499  -0.245  22.983  0.00  0.00    +0.037 A 
ATOM     24  C   UNL     1       4.222   0.934  22.797  0.00  0.00    +0.016 A 
ATOM     25  C   UNL     1       4.105  -1.348  23.584  0.00  0.00    +0.016 A 
ATOM     28  C   UNL     1       5.551   1.009  23.213  0.00  0.00    +0.039 A 
ATOM     29  C   UNL     1       5.434  -1.273  24.001  0.00  0.00    +0.039 A 
ATOM     30  C   UNL     1       6.157  -0.094  23.815  0.00  0.00    +0.123 A 
ENDBRANCH  20  22
ENDBRANCH  14   4
ENDBRANCH   8  14
BRANCH  10  15
ATOM     15  C   UNL     1      -4.962  -0.920  24.394  0.00  0.00    +0.103 C 
BRANCH  15  19
ATOM      2  O   UNL     1      -4.333   1.231  23.481  0.00  0.00    -0.276 OA
ATOM      5  N   UNL     1      -5.822   1.134  25.262  0.00  0.00    -0.311 N 
ATOM     19  C   UNL     1      -4.982   0.589  24.302  0.00  0.00    +0.214 C 
ATOM     36  H   UNL     1      -6.322   0.519  25.899  0.00  0.00    +0.149 HD
BRANCH   5  21
ATOM     21  C   UNL     1      -6.034   2.556  25.410  0.00  0.00    +0.139 C 
BRANCH  21  23
ATOM     23  C   UNL     1      -4.754   3.331  25.287  0.00  0.00    -0.030 A 
ATOM     26  C   UNL     1      -4.363   3.837  24.047  0.00  0.00    +0.006 A 
ATOM     27  C   UNL     1      -3.958   3.545  26.412  0.00  0.00    +0.006 A 
ATOM     31  C   UNL     1      -3.174   4.558  23.933  0.00  0.00    +0.019 A 
ATOM     32  C   UNL     1      -2.769   4.265  26.297  0.00  0.00    +0.019 A 
ATOM     33  C   UNL     1      -2.377   4.772  25.058  0.00  0.00    +0.052 A 
BRANCH  33  34
ATOM      6  N   UNL     1      -0.169   6.108  24.844  0.00  0.00    -0.191 NA
ATOM     34  C   UNL     1      -1.159   5.509  24.939  0.00  0.00    +0.099 C 
ENDBRANCH  33  34
ENDBRANCH  21  23
ENDBRANCH   5  21
ENDBRANCH  15  19
ENDBRANCH  10  15
TORSDOF 9
ENDMDL
MODEL 2
REMARK VINA RESULT:       0.5      2.052      5.296
REMARK  Name = 38029402
REMARK  12 active torsions:
REMARK  status: ('A' for Active; 'I' for Inactive)
REMARK    1  A    between atoms: N_4  and  C_14
REMARK    2  A    between atoms: N_5  and  C_21
REMARK    3  A    between atoms: C_7  and  C_11
REMARK    4  A    between atoms: C_8  and  C_14
REMARK    5  A    between atoms: C_10  and  C_15
REMARK    6  A    between atoms: C_11  and  C_16
REMARK    7  A    between atoms: C_11  and  C_17
REMARK    8  A    between atoms: C_12  and  C_18
REMARK    9  A    between atoms: C_15  and  C_19
REMARK   10  A    between atoms: C_20  and  C_22
REMARK   11  A    between atoms: C_21  and  C_23
REMARK   12  A    between atoms: C_33  and  C_34
REMARK                            x       y       z     vdW  Elec       q    Type
REMARK                         _______ _______ _______ _____ _____    ______ ____
ROOT
ATOM      7  C   UNL     1      -2.633   1.906  24.602  0.00  0.00    +0.000 C 
ATOM      8  C   UNL     1      -1.946   2.057  23.221  0.00  0.00    +0.032 C 
ATOM      9  C   UNL     1      -2.864   3.285  25.240  0.00  0.00    +0.012 C 
ATOM     10  C   UNL     1      -1.550   4.066  25.431  0.00  0.00    +0.023 C 
ATOM     12  C   UNL     1      -0.689   4.033  24.184  0.00  0.00    -0.073 C 
ATOM     13  C   UNL     1      -0.889   3.137  23.202  0.00  0.00    -0.022 C 
ATOM     18  C   UNL     1       0.380   5.084  24.071  0.00  0.00    +0.039 C 
ENDROOT
BRANCH   7  11
ATOM     11  C   UNL     1      -3.962   1.153  24.497  0.00  0.00    -0.013 C 
ATOM     16  C   UNL     1      -5.133   2.118  24.657  0.00  0.00    +0.007 C 
ATOM     17  C   UNL     1      -4.049   0.412  23.167  0.00  0.00    +0.007 C 
ENDBRANCH   7  11
BRANCH   8  14
ATOM     14  C   UNL     1      -1.330   0.731  22.762  0.00  0.00    +0.112 C 
BRANCH  14   4
ATOM      3  O   UNL     1       0.698  -0.685  21.304  0.00  0.00    -0.270 OA
ATOM      4  N   UNL     1       0.067   0.688  23.065  0.00  0.00    -0.311 N 
ATOM     20  C   UNL     1       0.987  -0.028  22.301  0.00  0.00    +0.244 C 
ATOM     35  H   UNL     1       0.376   1.203  23.882  0.00  0.00    +0.149 HD
BRANCH  20  22
ATOM      1  F   UNL     1       6.321   0.098  24.048  0.00  0.00    -0.205 F 
ATOM     22  C   UNL     1       2.398   0.006  22.764  0.00  0.00    +0.037 A 
ATOM     24  C   UNL     1       3.162   1.161  22.591  0.00  0.00    +0.016 A 
ATOM     25  C   UNL     1       2.960  -1.118  23.370  0.00  0.00    +0.016 A 
ATOM     28  C   UNL     1       4.487   1.192  23.026  0.00  0.00    +0.039 A 
ATOM     29  C   UNL     1       4.285  -1.086  23.804  0.00  0.00    +0.039 A 
ATOM     30  C   UNL     1       5.048   0.069  23.632  0.00  0.00    +0.123 A 
ENDBRANCH  20  22
ENDBRANCH  14   4
ENDBRANCH   8  14
BRANCH  10  15
ATOM     15  C   UNL     1      -0.773   3.552  26.648  0.00  0.00    +0.103 C 
BRANCH  15  19
ATOM      2  O   UNL     1       0.914   2.096  25.705  0.00  0.00    -0.276 OA
ATOM      5  N   UNL     1      -0.800   1.186  26.984  0.00  0.00    -0.311 N 
ATOM     19  C   UNL     1      -0.106   2.223  26.377  0.00  0.00    +0.214 C 
ATOM     36  H   UNL     1      -1.635   1.390  27.525  0.00  0.00    +0.149 HD
BRANCH   5  21
ATOM     21  C   UNL     1      -0.391  -0.197  26.892  0.00  0.00    +0.139 C 
BRANCH  21  23
ATOM     23  C   UNL     1      -1.357  -1.016  26.084  0.00  0.00    -0.030 A 
ATOM     26  C   UNL     1      -2.704  -1.059  26.443  0.00  0.00    +0.006 A 
ATOM     27  C   UNL     1      -0.906  -1.732  24.975  0.00  0.00    +0.006 A 
ATOM     31  C   UNL     1      -3.601  -1.819  25.693  0.00  0.00    +0.019 A 
ATOM     32  C   UNL     1      -1.803  -2.493  24.226  0.00  0.00    +0.019 A 
ATOM     33  C   UNL     1      -3.150  -2.536  24.584  0.00  0.00    +0.052 A 
BRANCH  33  34
ATOM      6  N   UNL     1      -4.817  -3.948  23.193  0.00  0.00    -0.191 NA
ATOM     34  C   UNL     1      -4.070  -3.316  23.817  0.00  0.00    +0.099 C 
ENDBRANCH  33  34
ENDBRANCH  21  23
ENDBRANCH   5  21
ENDBRANCH  15  19
ENDBRANCH  10  15
TORSDOF 9
ENDMDL
MODEL 3
REMARK VINA RESULT:       0.6      1.584      4.630
REMARK  Name = 38029402
REMARK  12 active torsions:
REMARK  status: ('A' for Active; 'I' for Inactive)
REMARK    1  A    between atoms: N_4  and  C_14
REMARK    2  A    between atoms: N_5  and  C_21
REMARK    3  A    between atoms: C_7  and  C_11
REMARK    4  A    between atoms: C_8  and  C_14
REMARK    5  A    between atoms: C_10  and  C_15
REMARK    6  A    between atoms: C_11  and  C_16
REMARK    7  A    between atoms: C_11  and  C_17
REMARK    8  A    between atoms: C_12  and  C_18
REMARK    9  A    between atoms: C_15  and  C_19
REMARK   10  A    between atoms: C_20  and  C_22
REMARK   11  A    between atoms: C_21  and  C_23
REMARK   12  A    between atoms: C_33  and  C_34
REMARK                            x       y       z     vdW  Elec       q    Type
REMARK                         _______ _______ _______ _____ _____    ______ ____
ROOT
ATOM      7  C   UNL     1      -2.943   2.838  23.474  0.00  0.00    +0.000 C 
ATOM      8  C   UNL     1      -1.641   2.633  24.289  0.00  0.00    +0.032 C 
ATOM      9  C   UNL     1      -3.586   4.190  23.821  0.00  0.00    +0.012 C 
ATOM     10  C   UNL     1      -3.925   4.306  25.320  0.00  0.00    +0.023 C 
ATOM     12  C   UNL     1      -2.770   3.862  26.194  0.00  0.00    -0.073 C 
ATOM     13  C   UNL     1      -1.752   3.127  25.714  0.00  0.00    -0.022 C 
ATOM     18  C   UNL     1      -2.788   4.322  27.625  0.00  0.00    +0.039 C 
ENDROOT
BRANCH   7  11
ATOM     11  C   UNL     1      -2.688   2.756  21.966  0.00  0.00    -0.013 C 
ATOM     16  C   UNL     1      -2.518   1.304  21.534  0.00  0.00    +0.007 C 
ATOM     17  C   UNL     1      -3.827   3.420  21.198  0.00  0.00    +0.007 C 
ENDBRANCH   7  11
BRANCH   8  14
ATOM     14  C   UNL     1      -1.215   1.162  24.290  0.00  0.00    +0.112 C 
BRANCH  14   4
ATOM      3  O   UNL     1       0.177  -0.632  22.532  0.00  0.00    -0.270 OA
ATOM      4  N   UNL     1       0.202   1.043  24.138  0.00  0.00    -0.311 N 
ATOM     20  C   UNL     1       0.797   0.142  23.257  0.00  0.00    +0.244 C 
ATOM     35  H   UNL     1       0.779   1.647  24.713  0.00  0.00    +0.149 HD
BRANCH  20  22
ATOM      1  F   UNL     1       6.411   0.066  23.174  0.00  0.00    -0.205 F 
ATOM     22  C   UNL     1       2.283   0.123  23.236  0.00  0.00    +0.037 A 
ATOM     24  C   UNL     1       2.990   1.252  22.822  0.00  0.00    +0.016 A 
ATOM     25  C   UNL     1       2.971  -1.026  23.628  0.00  0.00    +0.016 A 
ATOM     28  C   UNL     1       4.385   1.233  22.801  0.00  0.00    +0.039 A 
ATOM     29  C   UNL     1       4.365  -1.045  23.608  0.00  0.00    +0.039 A 
ATOM     30  C   UNL     1       5.072   0.085  23.194  0.00  0.00    +0.123 A 
ENDBRANCH  20  22
ENDBRANCH  14   4
ENDBRANCH   8  14
BRANCH  10  15
ATOM     15  C   UNL     1      -5.201   3.529  25.660  0.00  0.00    +0.103 C 
BRANCH  15  19
ATOM      2  O   UNL     1      -5.667   2.259  23.654  0.00  0.00    -0.276 OA
ATOM      5  N   UNL     1      -5.037   1.145  25.593  0.00  0.00    -0.311 N 
ATOM     19  C   UNL     1      -5.336   2.268  24.836  0.00  0.00    +0.214 C 
ATOM     36  H   UNL     1      -4.769   1.254  26.567  0.00  0.00    +0.149 HD
BRANCH   5  21
ATOM     21  C   UNL     1      -5.085  -0.199  25.065  0.00  0.00    +0.139 C 
BRANCH  21  23
ATOM     23  C   UNL     1      -3.752  -0.885  25.153  0.00  0.00    -0.030 A 
ATOM     26  C   UNL     1      -3.413  -1.870  24.226  0.00  0.00    +0.006 A 
ATOM     27  C   UNL     1      -2.854  -0.536  26.161  0.00  0.00    +0.006 A 
ATOM     31  C   UNL     1      -2.175  -2.508  24.307  0.00  0.00    +0.019 A 
ATOM     32  C   UNL     1      -1.617  -1.175  26.244  0.00  0.00    +0.019 A 
ATOM     33  C   UNL     1      -1.277  -2.160  25.317  0.00  0.00    +0.052 A 
BRANCH  33  34
ATOM      6  N   UNL     1       1.021  -3.344  25.467  0.00  0.00    -0.191 NA
ATOM     34  C   UNL     1      -0.009  -2.814  25.400  0.00  0.00    +0.099 C 
ENDBRANCH  33  34
ENDBRANCH  21  23
ENDBRANCH   5  21
ENDBRANCH  15  19
ENDBRANCH  10  15
TORSDOF 9
ENDMDL
MODEL 4
REMARK VINA RESULT:       0.7      2.682      7.356
REMARK  Name = 38029402
REMARK  12 active torsions:
REMARK  status: ('A' for Active; 'I' for Inactive)
REMARK    1  A    between atoms: N_4  and  C_14
REMARK    2  A    between atoms: N_5  and  C_21
REMARK    3  A    between atoms: C_7  and  C_11
REMARK    4  A    between atoms: C_8  and  C_14
REMARK    5  A    between atoms: C_10  and  C_15
REMARK    6  A    between atoms: C_11  and  C_16
REMARK    7  A    between atoms: C_11  and  C_17
REMARK    8  A    between atoms: C_12  and  C_18
REMARK    9  A    between atoms: C_15  and  C_19
REMARK   10  A    between atoms: C_20  and  C_22
REMARK   11  A    between atoms: C_21  and  C_23
REMARK   12  A    between atoms: C_33  and  C_34
REMARK                            x       y       z     vdW  Elec       q    Type
REMARK                         _______ _______ _______ _____ _____    ______ ____
ROOT
ATOM      7  C   UNL     1      -3.788   3.401  25.662  0.00  0.00    +0.000 C 
ATOM      8  C   UNL     1      -3.674   4.065  24.267  0.00  0.00    +0.032 C 
ATOM      9  C   UNL     1      -2.957   4.177  26.695  0.00  0.00    +0.012 C 
ATOM     10  C   UNL     1      -1.467   4.249  26.310  0.00  0.00    +0.023 C 
ATOM     12  C   UNL     1      -1.280   4.641  24.858  0.00  0.00    -0.073 C 
ATOM     13  C   UNL     1      -2.280   4.565  23.963  0.00  0.00    -0.022 C 
ATOM     18  C   UNL     1       0.073   5.167  24.468  0.00  0.00    +0.039 C 
ENDROOT
BRANCH   7  11
ATOM     11  C   UNL     1      -5.244   3.309  26.130  0.00  0.00    -0.013 C 
ATOM     16  C   UNL     1      -6.080   4.409  25.485  0.00  0.00    +0.007 C 
ATOM     17  C   UNL     1      -5.819   1.933  25.810  0.00  0.00    +0.007 C 
ENDBRANCH   7  11
BRANCH   8  14
ATOM     14  C   UNL     1      -4.126   3.108  23.159  0.00  0.00    +0.112 C 
BRANCH  14   4
ATOM      3  O   UNL     1      -2.430   1.054  22.085  0.00  0.00    -0.270 OA
ATOM      4  N   UNL     1      -4.046   1.749  23.599  0.00  0.00    -0.311 N 
ATOM     20  C   UNL     1      -3.192   0.814  23.019  0.00  0.00    +0.244 C 
ATOM     35  H   UNL     1      -4.654   1.477  24.363  0.00  0.00    +0.149 HD
BRANCH  20  22
ATOM      1  F   UNL     1      -3.397  -4.392  25.114  0.00  0.00    -0.205 F 
ATOM     22  C   UNL     1      -3.246  -0.564  23.573  0.00  0.00    +0.037 A 
ATOM     24  C   UNL     1      -4.467  -1.236  23.654  0.00  0.00    +0.016 A 
ATOM     25  C   UNL     1      -2.077  -1.186  24.012  0.00  0.00    +0.016 A 
ATOM     28  C   UNL     1      -4.517  -2.529  24.175  0.00  0.00    +0.039 A 
ATOM     29  C   UNL     1      -2.128  -2.479  24.531  0.00  0.00    +0.039 A 
ATOM     30  C   UNL     1      -3.348  -3.150  24.613  0.00  0.00    +0.123 A 
ENDBRANCH  20  22
ENDBRANCH  14   4
ENDBRANCH   8  14
BRANCH  10  15
ATOM     15  C   UNL     1      -0.752   2.928  26.618  0.00  0.00    +0.103 C 
BRANCH  15  19
ATOM      2  O   UNL     1      -1.834   1.258  25.241  0.00  0.00    -0.276 OA
ATOM      5  N   UNL     1       0.325   1.945  24.725  0.00  0.00    -0.311 N 
ATOM     19  C   UNL     1      -0.846   1.950  25.469  0.00  0.00    +0.214 C 
ATOM     36  H   UNL     1       1.091   2.557  24.991  0.00  0.00    +0.149 HD
BRANCH   5  21
ATOM     21  C   UNL     1       0.520   1.103  23.566  0.00  0.00    +0.139 C 
BRANCH  21  23
ATOM     23  C   UNL     1       1.962   0.723  23.384  0.00  0.00    -0.030 A 
ATOM     26  C   UNL     1       2.367  -0.595  23.594  0.00  0.00    +0.006 A 
ATOM     27  C   UNL     1       2.894   1.688  23.003  0.00  0.00    +0.006 A 
ATOM     31  C   UNL     1       3.705  -0.948  23.424  0.00  0.00    +0.019 A 
ATOM     32  C   UNL     1       4.233   1.336  22.834  0.00  0.00    +0.019 A 
ATOM     33  C   UNL     1       4.638   0.018  23.044  0.00  0.00    +0.052 A 
BRANCH  33  34
ATOM      6  N   UNL     1       7.124  -0.638  22.730  0.00  0.00    -0.191 NA
ATOM     34  C   UNL     1       6.010  -0.345  22.871  0.00  0.00    +0.099 C 
ENDBRANCH  33  34
ENDBRANCH  21  23
ENDBRANCH   5  21
ENDBRANCH  15  19
ENDBRANCH  10  15
TORSDOF 9
ENDMDL
MODEL 5
REMARK VINA RESULT:       0.8      1.733      4.930
REMARK  Name = 38029402
REMARK  12 active torsions:
REMARK  status: ('A' for Active; 'I' for Inactive)
REMARK    1  A    between atoms: N_4  and  C_14
REMARK    2  A    between atoms: N_5  and  C_21
REMARK    3  A    between atoms: C_7  and  C_11
REMARK    4  A    between atoms: C_8  and  C_14
REMARK    5  A    between atoms: C_10  and  C_15
REMARK    6  A    between atoms: C_11  and  C_16
REMARK    7  A    between atoms: C_11  and  C_17
REMARK    8  A    between atoms: C_12  and  C_18
REMARK    9  A    between atoms: C_15  and  C_19
REMARK   10  A    between atoms: C_20  and  C_22
REMARK   11  A    between atoms: C_21  and  C_23
REMARK   12  A    between atoms: C_33  and  C_34
REMARK                            x       y       z     vdW  Elec       q    Type
REMARK                         _______ _______ _______ _____ _____    ______ ____
ROOT
ATOM      7  C   UNL     1      -2.681   2.618  23.491  0.00  0.00    +0.000 C 
ATOM      8  C   UNL     1      -1.152   2.376  23.416  0.00  0.00    +0.032 C 
ATOM      9  C   UNL     1      -2.984   4.124  23.524  0.00  0.00    +0.012 C 
ATOM     10  C   UNL     1      -2.319   4.827  24.723  0.00  0.00    +0.023 C 
ATOM     12  C   UNL     1      -0.866   4.425  24.875  0.00  0.00    -0.073 C 
ATOM     13  C   UNL     1      -0.359   3.335  24.273  0.00  0.00    -0.022 C 
ATOM     18  C   UNL     1       0.004   5.334  25.699  0.00  0.00    +0.039 C 
ENDROOT
BRANCH   7  11
ATOM     11  C   UNL     1      -3.418   1.966  22.318  0.00  0.00    -0.013 C 
ATOM     16  C   UNL     1      -4.150   3.022  21.497  0.00  0.00    +0.007 C 
ATOM     17  C   UNL     1      -2.442   1.182  21.447  0.00  0.00    +0.007 C 
ENDBRANCH   7  11
BRANCH   8  14
ATOM     14  C   UNL     1      -0.801   0.936  23.803  0.00  0.00    +0.112 C 
BRANCH  14   4
ATOM      3  O   UNL     1       0.853  -0.391  21.866  0.00  0.00    -0.270 OA
ATOM      4  N   UNL     1       0.617   0.759  23.868  0.00  0.00    -0.311 N 
ATOM     20  C   UNL     1       1.345   0.099  22.879  0.00  0.00    +0.244 C 
ATOM     35  H   UNL     1       1.090   1.132  24.683  0.00  0.00    +0.149 HD
BRANCH  20  22
ATOM      1  F   UNL     1       6.873  -0.366  23.744  0.00  0.00    -0.205 F 
ATOM     22  C   UNL     1       2.808  -0.024  23.108  0.00  0.00    +0.037 A 
ATOM     24  C   UNL     1       3.340  -1.220  23.591  0.00  0.00    +0.016 A 
ATOM     25  C   UNL     1       3.649   1.056  22.840  0.00  0.00    +0.016 A 
ATOM     28  C   UNL     1       4.714  -1.335  23.806  0.00  0.00    +0.039 A 
ATOM     29  C   UNL     1       5.022   0.940  23.054  0.00  0.00    +0.039 A 
ATOM     30  C   UNL     1       5.554  -0.256  23.537  0.00  0.00    +0.123 A 
ENDBRANCH  20  22
ENDBRANCH  14   4
ENDBRANCH   8  14
BRANCH  10  15
ATOM     15  C   UNL     1      -3.098   4.567  26.018  0.00  0.00    +0.103 C 
BRANCH  15  19
ATOM      2  O   UNL     1      -5.400   4.106  25.431  0.00  0.00    -0.276 OA
ATOM      5  N   UNL     1      -3.999   2.353  26.035  0.00  0.00    -0.311 N 
ATOM     19  C   UNL     1      -4.304   3.684  25.788  0.00  0.00    +0.214 C 
ATOM     36  H   UNL     1      -3.059   2.099  26.325  0.00  0.00    +0.149 HD
BRANCH   5  21
ATOM     21  C   UNL     1      -4.962   1.284  25.898  0.00  0.00    +0.139 C 
BRANCH  21  23
ATOM     23  C   UNL     1      -4.345   0.042  25.324  0.00  0.00    -0.030 A 
ATOM     26  C   UNL     1      -4.800  -0.464  24.106  0.00  0.00    +0.006 A 
ATOM     27  C   UNL     1      -3.317  -0.606  26.008  0.00  0.00    +0.006 A 
ATOM     31  C   UNL     1      -4.227  -1.618  23.572  0.00  0.00    +0.019 A 
ATOM     32  C   UNL     1      -2.744  -1.761  25.475  0.00  0.00    +0.019 A 
ATOM     33  C   UNL     1      -3.199  -2.267  24.257  0.00  0.00    +0.052 A 
BRANCH  33  34
ATOM      6  N   UNL     1      -2.137  -4.410  23.265  0.00  0.00    -0.191 NA
ATOM     34  C   UNL     1      -2.613  -3.450  23.710  0.00  0.00    +0.099 C 
ENDBRANCH  33  34
ENDBRANCH  21  23
ENDBRANCH   5  21
ENDBRANCH  15  19
ENDBRANCH  10  15
TORSDOF 9
ENDMDL
MODEL 6
REMARK VINA RESULT:       1.6      1.729      3.437
REMARK  Name = 38029402
REMARK  12 active torsions:
REMARK  status: ('A' for Active; 'I' for Inactive)
REMARK    1  A    between atoms: N_4  and  C_14
REMARK    2  A    between atoms: N_5  and  C_21
REMARK    3  A    between atoms: C_7  and  C_11
REMARK    4  A    between atoms: C_8  and  C_14
REMARK    5  A    between atoms: C_10  and  C_15
REMARK    6  A    between atoms: C_11  and  C_16
REMARK    7  A    between atoms: C_11  and  C_17
REMARK    8  A    between atoms: C_12  and  C_18
REMARK    9  A    between atoms: C_15  and  C_19
REMARK   10  A    between atoms: C_20  and  C_22
REMARK   11  A    between atoms: C_21  and  C_23
REMARK   12  A    between atoms: C_33  and  C_34
REMARK                            x       y       z     vdW  Elec       q    Type
REMARK                         _______ _______ _______ _____ _____    ______ ____
ROOT
ATOM      7  C   UNL     1      -3.903  -0.620  25.240  0.00  0.00    +0.000 C 
ATOM      8  C   UNL     1      -2.564  -0.101  24.659  0.00  0.00    +0.032 C 
ATOM      9  C   UNL     1      -5.064  -0.294  24.287  0.00  0.00    +0.012 C 
ATOM     10  C   UNL     1      -5.198   1.220  24.029  0.00  0.00    +0.023 C 
ATOM     12  C   UNL     1      -3.861   1.856  23.711  0.00  0.00    -0.073 C 
ATOM     13  C   UNL     1      -2.694   1.246  23.986  0.00  0.00    -0.022 C 
ATOM     18  C   UNL     1      -3.894   3.194  23.023  0.00  0.00    +0.039 C 
ENDROOT
BRANCH   7  11
ATOM     11  C   UNL     1      -3.860  -2.128  25.507  0.00  0.00    -0.013 C 
ATOM     16  C   UNL     1      -3.599  -2.890  24.212  0.00  0.00    +0.007 C 
ATOM     17  C   UNL     1      -2.797  -2.452  26.551  0.00  0.00    +0.007 C 
ENDBRANCH   7  11
BRANCH   8  14
ATOM     14  C   UNL     1      -1.482  -0.028  25.742  0.00  0.00    +0.112 C 
BRANCH  14   4
ATOM      3  O   UNL     1      -0.350  -1.566  23.597  0.00  0.00    -0.270 OA
ATOM      4  N   UNL     1      -0.189   0.145  25.157  0.00  0.00    -0.311 N 
ATOM     20  C   UNL     1       0.284  -0.649  24.114  0.00  0.00    +0.244 C 
ATOM     35  H   UNL     1       0.394   0.881  25.540  0.00  0.00    +0.149 HD
BRANCH  20  22
ATOM      1  F   UNL     1       5.484   0.450  22.303  0.00  0.00    -0.205 F 
ATOM     22  C   UNL     1       1.661  -0.359  23.634  0.00  0.00    +0.037 A 
ATOM     24  C   UNL     1       2.652  -1.336  23.726  0.00  0.00    +0.016 A 
ATOM     25  C   UNL     1       1.961   0.892  23.093  0.00  0.00    +0.016 A 
ATOM     28  C   UNL     1       3.944  -1.062  23.276  0.00  0.00    +0.039 A 
ATOM     29  C   UNL     1       3.252   1.165  22.643  0.00  0.00    +0.039 A 
ATOM     30  C   UNL     1       4.243   0.187  22.734  0.00  0.00    +0.123 A 
ENDBRANCH  20  22
ENDBRANCH  14   4
ENDBRANCH   8  14
BRANCH  10  15
ATOM     15  C   UNL     1      -5.873   1.924  25.212  0.00  0.00    +0.103 C 
BRANCH  15  19
ATOM      2  O   UNL     1      -5.570   4.313  25.441  0.00  0.00    -0.276 OA
ATOM      5  N   UNL     1      -3.923   2.870  26.219  0.00  0.00    -0.311 N 
ATOM     19  C   UNL     1      -5.137   3.179  25.622  0.00  0.00    +0.214 C 
ATOM     36  H   UNL     1      -3.651   1.898  26.327  0.00  0.00    +0.149 HD
BRANCH   5  21
ATOM     21  C   UNL     1      -3.007   3.875  26.708  0.00  0.00    +0.139 C 
BRANCH  21  23
ATOM     23  C   UNL     1      -2.029   4.306  25.653  0.00  0.00    -0.030 A 
ATOM     26  C   UNL     1      -2.135   5.575  25.083  0.00  0.00    +0.006 A 
ATOM     27  C   UNL     1      -1.017   3.439  25.244  0.00  0.00    +0.006 A 
ATOM     31  C   UNL     1      -1.227   5.976  24.103  0.00  0.00    +0.019 A 
ATOM     32  C   UNL     1      -0.110   3.839  24.264  0.00  0.00    +0.019 A 
ATOM     33  C   UNL     1      -0.214   5.108  23.693  0.00  0.00    +0.052 A 
BRANCH  33  34
ATOM      6  N   UNL     1       1.469   5.854  21.872  0.00  0.00    -0.191 NA
ATOM     34  C   UNL     1       0.715   5.519  22.689  0.00  0.00    +0.099 C 
ENDBRANCH  33  34
ENDBRANCH  21  23
ENDBRANCH   5  21
ENDBRANCH  15  19
ENDBRANCH  10  15
TORSDOF 9
ENDMDL
