MODEL 1
REMARK VINA RESULT:       2.8      0.000      0.000
REMARK  Name = 7143738
REMARK  4 active torsions:
REMARK  status: ('A' for Active; 'I' for Inactive)
REMARK    1  A    between atoms: O_4  and  C_19
REMARK    2  A    between atoms: O_4  and  C_23
REMARK    3  A    between atoms: C_16  and  C_19
REMARK    4  A    between atoms: C_17  and  C_20
REMARK                            x       y       z     vdW  Elec       q    Type
REMARK                         _______ _______ _______ _____ _____    ______ ____
ROOT
ATOM      2  O   UNL     1       0.072   2.305  25.640  0.00  0.00    -0.267 OA
ATOM      3  O   UNL     1      -4.614  -0.031  26.729  0.00  0.00    -0.272 OA
ATOM      5  N   UNL     1      -4.890   1.688  25.189  0.00  0.00    -0.298 N 
ATOM      6  N   UNL     1      -1.954   2.791  24.592  0.00  0.00    -0.311 N 
ATOM      7  C   UNL     1      -3.909   3.896  25.821  0.00  0.00    +0.027 C 
ATOM      8  C   UNL     1      -4.139   3.298  23.448  0.00  0.00    +0.054 C 
ATOM      9  C   UNL     1      -4.281   4.442  24.448  0.00  0.00    +0.018 C 
ATOM     10  C   UNL     1      -4.841   2.735  26.211  0.00  0.00    +0.113 C 
ATOM     11  C   UNL     1      -2.436   3.471  25.801  0.00  0.00    +0.130 C 
ATOM     12  C   UNL     1      -5.117   2.165  23.817  0.00  0.00    +0.117 C 
ATOM     13  C   UNL     1      -2.719   2.765  23.424  0.00  0.00    +0.027 A 
ATOM     14  C   UNL     1      -2.210   2.244  22.296  0.00  0.00    +0.022 A 
ATOM     15  C   UNL     1      -0.646   2.269  24.639  0.00  0.00    +0.259 A 
ATOM     16  C   UNL     1      -4.804   0.349  25.570  0.00  0.00    +0.253 C 
ATOM     17  C   UNL     1      -0.116   1.659  23.370  0.00  0.00    +0.047 A 
ATOM     18  C   UNL     1      -0.890   1.679  22.274  0.00  0.00    +0.015 A 
ENDROOT
BRANCH  17  20
ATOM      1 CL   UNL     1       5.314  -0.849  23.162  0.00  0.00    -0.084 Cl
ATOM     20  C   UNL     1       1.220   1.042  23.319  0.00  0.00    -0.013 A 
ATOM     21  C   UNL     1       2.356   1.843  23.190  0.00  0.00    +0.010 A 
ATOM     22  C   UNL     1       1.353  -0.345  23.398  0.00  0.00    +0.010 A 
ATOM     24  C   UNL     1       3.621   1.258  23.142  0.00  0.00    +0.020 A 
ATOM     25  C   UNL     1       2.619  -0.930  23.351  0.00  0.00    +0.020 A 
ATOM     26  C   UNL     1       3.753  -0.127  23.221  0.00  0.00    +0.041 A 
ENDBRANCH  17  20
BRANCH  16  19
ATOM     19  C   UNL     1      -4.951  -0.676  24.474  0.00  0.00    +0.324 C 
BRANCH  19   4
ATOM      4  O   UNL     1      -3.742  -0.672  23.754  0.00  0.00    -0.483 OA
BRANCH   4  23
ATOM     23  C   UNL     1      -2.629  -1.183  24.384  0.00  0.00    +0.121 A 
ATOM     27  C   UNL     1      -2.032  -0.460  25.406  0.00  0.00    +0.045 A 
ATOM     28  C   UNL     1      -2.126  -2.413  23.987  0.00  0.00    +0.045 A 
ATOM     29  C   UNL     1      -0.905  -0.977  26.044  0.00  0.00    +0.004 A 
ATOM     30  C   UNL     1      -0.998  -2.930  24.625  0.00  0.00    +0.004 A 
ATOM     31  C   UNL     1      -0.388  -2.213  25.654  0.00  0.00    +0.000 A 
ENDBRANCH   4  23
ENDBRANCH  19   4
ENDBRANCH  16  19
TORSDOF 4
ENDMDL
