MODEL 1
REMARK VINA RESULT:      -4.6      0.000      0.000
REMARK  Name = 51137088
REMARK  4 active torsions:
REMARK  status: ('A' for Active; 'I' for Inactive)
REMARK    1  A    between atoms: N_2  and  C_8
REMARK    2  A    between atoms: C_4  and  C_9
REMARK    3  A    between atoms: C_8  and  C_10
REMARK    4  A    between atoms: C_11  and  C_16
REMARK                            x       y       z     vdW  Elec       q    Type
REMARK                         _______ _______ _______ _____ _____    ______ ____
ROOT
ATOM      2  N   UNL     1      16.085  -7.166  29.039  0.00  0.00    -0.297 NA
ATOM      4  C   UNL     1      17.405  -5.813  27.651  0.00  0.00    +0.060 C 
ATOM      5  C   UNL     1      16.258  -6.832  27.624  0.00  0.00    +0.095 C 
ATOM      6  C   UNL     1      17.352  -5.204  29.063  0.00  0.00    +0.027 C 
ATOM      7  C   UNL     1      16.171  -5.886  29.743  0.00  0.00    +0.085 C 
ENDROOT
BRANCH   4   9
ATOM      1  S   UNL     1      17.135  -5.370  24.920  0.00  0.00    -0.072 S 
ATOM      3  N   UNL     1      17.401  -3.508  26.685  0.00  0.00    -0.244 NA
ATOM      9  C   UNL     1      17.329  -4.809  26.524  0.00  0.00    +0.084 A 
ATOM     12  C   UNL     1      17.146  -3.740  24.359  0.00  0.00    +0.039 A 
ATOM     13  C   UNL     1      17.299  -2.881  25.452  0.00  0.00    +0.078 A 
ATOM     17  C   UNL     1      17.027  -3.256  23.046  0.00  0.00    +0.017 A 
ATOM     18  C   UNL     1      17.334  -1.489  25.220  0.00  0.00    +0.029 A 
ATOM     21  C   UNL     1      17.066  -1.874  22.845  0.00  0.00    +0.001 A 
ATOM     22  C   UNL     1      17.217  -1.000  23.915  0.00  0.00    +0.002 A 
ENDBRANCH   4   9
BRANCH   2   8
ATOM      8  C   UNL     1      14.831  -7.857  29.298  0.00  0.00    +0.119 C 
BRANCH   8  10
ATOM     10  C   UNL     1      14.121  -7.297  30.503  0.00  0.00    -0.030 A 
ATOM     11  C   UNL     1      14.231  -7.913  31.750  0.00  0.00    -0.046 A 
ATOM     14  C   UNL     1      13.344  -6.148  30.358  0.00  0.00    +0.005 A 
ATOM     15  C   UNL     1      13.565  -7.378  32.853  0.00  0.00    +0.003 A 
ATOM     16  C   UNL     1      15.056  -9.144  31.930  0.00  0.00    +0.044 C 
ATOM     19  C   UNL     1      12.678  -5.613  31.461  0.00  0.00    +0.000 A 
ATOM     20  C   UNL     1      12.788  -6.228  32.708  0.00  0.00    +0.000 A 
ENDBRANCH   8  10
ENDBRANCH   2   8
TORSDOF 3
ENDMDL
MODEL 2
REMARK VINA RESULT:      -4.0      2.060      7.612
REMARK  Name = 51137088
REMARK  4 active torsions:
REMARK  status: ('A' for Active; 'I' for Inactive)
REMARK    1  A    between atoms: N_2  and  C_8
REMARK    2  A    between atoms: C_4  and  C_9
REMARK    3  A    between atoms: C_8  and  C_10
REMARK    4  A    between atoms: C_11  and  C_16
REMARK                            x       y       z     vdW  Elec       q    Type
REMARK                         _______ _______ _______ _____ _____    ______ ____
ROOT
ATOM      2  N   UNL     1      17.254  -6.694  25.508  0.00  0.00    -0.297 NA
ATOM      4  C   UNL     1      16.692  -7.549  27.618  0.00  0.00    +0.060 C 
ATOM      5  C   UNL     1      16.613  -6.281  26.759  0.00  0.00    +0.095 C 
ATOM      6  C   UNL     1      16.784  -8.702  26.604  0.00  0.00    +0.027 C 
ATOM      7  C   UNL     1      16.725  -8.031  25.237  0.00  0.00    +0.085 C 
ENDROOT
BRANCH   4   9
ATOM      1  S   UNL     1      15.311  -9.142  29.431  0.00  0.00    -0.072 S 
ATOM      3  N   UNL     1      14.717  -6.692  28.886  0.00  0.00    -0.244 NA
ATOM      9  C   UNL     1      15.554  -7.663  28.606  0.00  0.00    +0.084 A 
ATOM     12  C   UNL     1      13.962  -8.451  30.252  0.00  0.00    +0.039 A 
ATOM     13  C   UNL     1      13.797  -7.129  29.828  0.00  0.00    +0.078 A 
ATOM     17  C   UNL     1      13.110  -9.037  31.202  0.00  0.00    +0.017 A 
ATOM     18  C   UNL     1      12.741  -6.368  30.377  0.00  0.00    +0.029 A 
ATOM     21  C   UNL     1      12.074  -8.263  31.729  0.00  0.00    +0.001 A 
ATOM     22  C   UNL     1      11.889  -6.945  31.323  0.00  0.00    +0.002 A 
ENDBRANCH   4   9
BRANCH   2   8
ATOM      8  C   UNL     1      16.996  -5.765  24.418  0.00  0.00    +0.119 C 
BRANCH   8  10
ATOM     10  C   UNL     1      16.979  -4.335  24.892  0.00  0.00    -0.030 A 
ATOM     11  C   UNL     1      16.546  -3.307  24.055  0.00  0.00    -0.046 A 
ATOM     14  C   UNL     1      17.405  -4.047  26.188  0.00  0.00    +0.005 A 
ATOM     15  C   UNL     1      16.539  -1.990  24.514  0.00  0.00    +0.003 A 
ATOM     16  C   UNL     1      16.086  -3.591  22.663  0.00  0.00    +0.044 C 
ATOM     19  C   UNL     1      17.398  -2.730  26.647  0.00  0.00    +0.000 A 
ATOM     20  C   UNL     1      16.965  -1.701  25.810  0.00  0.00    +0.000 A 
ENDBRANCH   8  10
ENDBRANCH   2   8
TORSDOF 3
ENDMDL
MODEL 3
REMARK VINA RESULT:      -3.7      1.892      8.339
REMARK  Name = 51137088
REMARK  4 active torsions:
REMARK  status: ('A' for Active; 'I' for Inactive)
REMARK    1  A    between atoms: N_2  and  C_8
REMARK    2  A    between atoms: C_4  and  C_9
REMARK    3  A    between atoms: C_8  and  C_10
REMARK    4  A    between atoms: C_11  and  C_16
REMARK                            x       y       z     vdW  Elec       q    Type
REMARK                         _______ _______ _______ _____ _____    ______ ____
ROOT
ATOM      2  N   UNL     1      17.086  -5.733  26.811  0.00  0.00    -0.297 NA
ATOM      4  C   UNL     1      16.192  -7.450  28.134  0.00  0.00    +0.060 C 
ATOM      5  C   UNL     1      16.758  -6.026  28.207  0.00  0.00    +0.095 C 
ATOM      6  C   UNL     1      15.675  -7.590  26.691  0.00  0.00    +0.027 C 
ATOM      7  C   UNL     1      15.949  -6.239  26.041  0.00  0.00    +0.085 C 
ENDROOT
BRANCH   4   9
ATOM      1  S   UNL     1      14.492  -6.423  30.080  0.00  0.00    -0.072 S 
ATOM      3  N   UNL     1      14.737  -8.930  29.526  0.00  0.00    -0.244 NA
ATOM      9  C   UNL     1      15.164  -7.731  29.206  0.00  0.00    +0.084 A 
ATOM     12  C   UNL     1      13.532  -7.533  30.984  0.00  0.00    +0.039 A 
ATOM     13  C   UNL     1      13.801  -8.834  30.545  0.00  0.00    +0.078 A 
ATOM     17  C   UNL     1      12.608  -7.273  32.008  0.00  0.00    +0.017 A 
ATOM     18  C   UNL     1      13.119  -9.910  31.155  0.00  0.00    +0.029 A 
ATOM     21  C   UNL     1      11.947  -8.355  32.595  0.00  0.00    +0.001 A 
ATOM     22  C   UNL     1      12.197  -9.657  32.175  0.00  0.00    +0.002 A 
ENDBRANCH   4   9
BRANCH   2   8
ATOM      8  C   UNL     1      17.323  -4.315  26.581  0.00  0.00    +0.119 C 
BRANCH   8  10
ATOM     10  C   UNL     1      17.224  -3.961  25.120  0.00  0.00    -0.030 A 
ATOM     11  C   UNL     1      16.955  -2.653  24.715  0.00  0.00    -0.046 A 
ATOM     14  C   UNL     1      17.405  -4.962  24.167  0.00  0.00    +0.005 A 
ATOM     15  C   UNL     1      16.868  -2.347  23.357  0.00  0.00    +0.003 A 
ATOM     16  C   UNL     1      16.757  -1.564  25.718  0.00  0.00    +0.044 C 
ATOM     19  C   UNL     1      17.318  -4.656  22.809  0.00  0.00    +0.000 A 
ATOM     20  C   UNL     1      17.049  -3.348  22.404  0.00  0.00    +0.000 A 
ENDBRANCH   8  10
ENDBRANCH   2   8
TORSDOF 3
ENDMDL
MODEL 4
REMARK VINA RESULT:      -3.0     17.052     18.995
REMARK  Name = 51137088
REMARK  4 active torsions:
REMARK  status: ('A' for Active; 'I' for Inactive)
REMARK    1  A    between atoms: N_2  and  C_8
REMARK    2  A    between atoms: C_4  and  C_9
REMARK    3  A    between atoms: C_8  and  C_10
REMARK    4  A    between atoms: C_11  and  C_16
REMARK                            x       y       z     vdW  Elec       q    Type
REMARK                         _______ _______ _______ _____ _____    ______ ____
ROOT
ATOM      2  N   UNL     1       0.797  -0.611  23.695  0.00  0.00    -0.297 NA
ATOM      4  C   UNL     1      -1.073  -0.177  25.040  0.00  0.00    +0.060 C 
ATOM      5  C   UNL     1       0.069   0.514  24.283  0.00  0.00    +0.095 C 
ATOM      6  C   UNL     1      -1.259  -1.524  24.321  0.00  0.00    +0.027 C 
ATOM      7  C   UNL     1      -0.240  -1.510  23.188  0.00  0.00    +0.085 C 
ENDROOT
BRANCH   4   9
ATOM      1  S   UNL     1      -3.851  -0.085  25.049  0.00  0.00    -0.072 S 
ATOM      3  N   UNL     1      -2.319   1.978  25.266  0.00  0.00    -0.244 NA
ATOM      9  C   UNL     1      -2.320   0.673  25.129  0.00  0.00    +0.084 A 
ATOM     12  C   UNL     1      -4.611   1.454  25.209  0.00  0.00    +0.039 A 
ATOM     13  C   UNL     1      -3.625   2.441  25.312  0.00  0.00    +0.078 A 
ATOM     17  C   UNL     1      -5.979   1.766  25.242  0.00  0.00    +0.017 A 
ATOM     18  C   UNL     1      -4.028   3.788  25.453  0.00  0.00    +0.029 A 
ATOM     21  C   UNL     1      -6.350   3.106  25.381  0.00  0.00    +0.001 A 
ATOM     22  C   UNL     1      -5.389   4.106  25.485  0.00  0.00    +0.002 A 
ENDBRANCH   4   9
BRANCH   2   8
ATOM      8  C   UNL     1       1.722  -0.191  22.652  0.00  0.00    +0.119 C 
BRANCH   8  10
ATOM     10  C   UNL     1       3.157  -0.305  23.097  0.00  0.00    -0.030 A 
ATOM     11  C   UNL     1       4.031   0.777  22.988  0.00  0.00    -0.046 A 
ATOM     14  C   UNL     1       3.608  -1.516  23.622  0.00  0.00    +0.005 A 
ATOM     15  C   UNL     1       5.356   0.649  23.406  0.00  0.00    +0.003 A 
ATOM     16  C   UNL     1       3.570   2.083  22.428  0.00  0.00    +0.044 C 
ATOM     19  C   UNL     1       4.933  -1.644  24.039  0.00  0.00    +0.000 A 
ATOM     20  C   UNL     1       5.807  -0.562  23.931  0.00  0.00    +0.000 A 
ENDBRANCH   8  10
ENDBRANCH   2   8
TORSDOF 3
ENDMDL
MODEL 5
REMARK VINA RESULT:      -2.3     17.325     18.785
REMARK  Name = 51137088
REMARK  4 active torsions:
REMARK  status: ('A' for Active; 'I' for Inactive)
REMARK    1  A    between atoms: N_2  and  C_8
REMARK    2  A    between atoms: C_4  and  C_9
REMARK    3  A    between atoms: C_8  and  C_10
REMARK    4  A    between atoms: C_11  and  C_16
REMARK                            x       y       z     vdW  Elec       q    Type
REMARK                         _______ _______ _______ _____ _____    ______ ____
ROOT
ATOM      2  N   UNL     1      -3.208  -0.909  24.558  0.00  0.00    -0.297 NA
ATOM      4  C   UNL     1      -0.917  -1.404  24.628  0.00  0.00    +0.060 C 
ATOM      5  C   UNL     1      -2.051  -1.024  23.668  0.00  0.00    +0.095 C 
ATOM      6  C   UNL     1      -1.370  -0.867  25.997  0.00  0.00    +0.027 C 
ATOM      7  C   UNL     1      -2.711  -0.193  25.734  0.00  0.00    +0.085 C 
ENDROOT
BRANCH   4   9
ATOM      1  S   UNL     1       0.548   0.616  23.402  0.00  0.00    -0.072 S 
ATOM      3  N   UNL     1       1.556  -1.575  24.315  0.00  0.00    -0.244 NA
ATOM      9  C   UNL     1       0.435  -0.909  24.168  0.00  0.00    +0.084 A 
ATOM     12  C   UNL     1       2.249   0.396  23.235  0.00  0.00    +0.039 A 
ATOM     13  C   UNL     1       2.606  -0.841  23.784  0.00  0.00    +0.078 A 
ATOM     17  C   UNL     1       3.200   1.254  22.661  0.00  0.00    +0.017 A 
ATOM     18  C   UNL     1       3.964  -1.228  23.755  0.00  0.00    +0.029 A 
ATOM     21  C   UNL     1       4.536   0.846  22.645  0.00  0.00    +0.001 A 
ATOM     22  C   UNL     1       4.916  -0.378  23.184  0.00  0.00    +0.002 A 
ENDBRANCH   4   9
BRANCH   2   8
ATOM      8  C   UNL     1      -4.329  -0.227  23.929  0.00  0.00    +0.119 C 
BRANCH   8  10
ATOM     10  C   UNL     1      -4.476   1.187  24.427  0.00  0.00    -0.030 A 
ATOM     11  C   UNL     1      -3.754   2.231  23.847  0.00  0.00    -0.046 A 
ATOM     14  C   UNL     1      -5.349   1.445  25.484  0.00  0.00    +0.005 A 
ATOM     15  C   UNL     1      -3.906   3.533  24.324  0.00  0.00    +0.003 A 
ATOM     16  C   UNL     1      -2.814   1.979  22.715  0.00  0.00    +0.044 C 
ATOM     19  C   UNL     1      -5.500   2.747  25.961  0.00  0.00    +0.000 A 
ATOM     20  C   UNL     1      -4.778   3.791  25.382  0.00  0.00    +0.000 A 
ENDBRANCH   8  10
ENDBRANCH   2   8
TORSDOF 3
ENDMDL
MODEL 6
REMARK VINA RESULT:      -2.2     16.960     18.446
REMARK  Name = 51137088
REMARK  4 active torsions:
REMARK  status: ('A' for Active; 'I' for Inactive)
REMARK    1  A    between atoms: N_2  and  C_8
REMARK    2  A    between atoms: C_4  and  C_9
REMARK    3  A    between atoms: C_8  and  C_10
REMARK    4  A    between atoms: C_11  and  C_16
REMARK                            x       y       z     vdW  Elec       q    Type
REMARK                         _______ _______ _______ _____ _____    ______ ____
ROOT
ATOM      2  N   UNL     1      -3.024  -0.103  24.276  0.00  0.00    -0.297 NA
ATOM      4  C   UNL     1      -0.909  -1.050  23.917  0.00  0.00    +0.060 C 
ATOM      5  C   UNL     1      -1.867   0.024  23.387  0.00  0.00    +0.095 C 
ATOM      6  C   UNL     1      -1.317  -1.245  25.388  0.00  0.00    +0.027 C 
ATOM      7  C   UNL     1      -2.455  -0.258  25.616  0.00  0.00    +0.085 C 
ENDROOT
BRANCH   4   9
ATOM      1  S   UNL     1       0.945   0.811  23.008  0.00  0.00    -0.072 S 
ATOM      3  N   UNL     1       1.550  -1.485  24.016  0.00  0.00    -0.244 NA
ATOM      9  C   UNL     1       0.546  -0.700  23.703  0.00  0.00    +0.084 A 
ATOM     12  C   UNL     1       2.618   0.410  23.122  0.00  0.00    +0.039 A 
ATOM     13  C   UNL     1       2.745  -0.863  23.688  0.00  0.00    +0.078 A 
ATOM     17  C   UNL     1       3.737   1.166  22.739  0.00  0.00    +0.017 A 
ATOM     18  C   UNL     1       4.040  -1.395  23.876  0.00  0.00    +0.029 A 
ATOM     21  C   UNL     1       5.006   0.616  22.935  0.00  0.00    +0.001 A 
ATOM     22  C   UNL     1       5.159  -0.647  23.495  0.00  0.00    +0.002 A 
ENDBRANCH   4   9
BRANCH   2   8
ATOM      8  C   UNL     1      -3.923   1.038  24.185  0.00  0.00    +0.119 C 
BRANCH   8  10
ATOM     10  C   UNL     1      -3.277   2.302  24.689  0.00  0.00    -0.030 A 
ATOM     11  C   UNL     1      -3.977   3.191  25.504  0.00  0.00    -0.046 A 
ATOM     14  C   UNL     1      -1.958   2.579  24.327  0.00  0.00    +0.005 A 
ATOM     15  C   UNL     1      -3.359   4.357  25.959  0.00  0.00    +0.003 A 
ATOM     16  C   UNL     1      -5.390   2.917  25.904  0.00  0.00    +0.044 C 
ATOM     19  C   UNL     1      -1.340   3.744  24.781  0.00  0.00    +0.000 A 
ATOM     20  C   UNL     1      -2.041   4.633  25.597  0.00  0.00    +0.000 A 
ENDBRANCH   8  10
ENDBRANCH   2   8
TORSDOF 3
ENDMDL
MODEL 7
REMARK VINA RESULT:      -1.5     16.985     18.348
REMARK  Name = 51137088
REMARK  4 active torsions:
REMARK  status: ('A' for Active; 'I' for Inactive)
REMARK    1  A    between atoms: N_2  and  C_8
REMARK    2  A    between atoms: C_4  and  C_9
REMARK    3  A    between atoms: C_8  and  C_10
REMARK    4  A    between atoms: C_11  and  C_16
REMARK                            x       y       z     vdW  Elec       q    Type
REMARK                         _______ _______ _______ _____ _____    ______ ____
ROOT
ATOM      2  N   UNL     1      -3.097   1.697  24.586  0.00  0.00    -0.297 NA
ATOM      4  C   UNL     1      -0.878   2.078  23.932  0.00  0.00    +0.060 C 
ATOM      5  C   UNL     1      -1.728   1.418  25.025  0.00  0.00    +0.095 C 
ATOM      6  C   UNL     1      -1.792   2.113  22.694  0.00  0.00    +0.027 C 
ATOM      7  C   UNL     1      -3.089   1.450  23.143  0.00  0.00    +0.085 C 
ENDROOT
BRANCH   4   9
ATOM      1  S   UNL     1       0.523  -0.320  23.805  0.00  0.00    -0.072 S 
ATOM      3  N   UNL     1       1.578   2.011  23.472  0.00  0.00    -0.244 NA
ATOM      9  C   UNL     1       0.450   1.387  23.721  0.00  0.00    +0.084 A 
ATOM     12  C   UNL     1       2.216  -0.253  23.482  0.00  0.00    +0.039 A 
ATOM     13  C   UNL     1       2.600   1.084  23.334  0.00  0.00    +0.078 A 
ATOM     17  C   UNL     1       3.137  -1.306  23.369  0.00  0.00    +0.017 A 
ATOM     18  C   UNL     1       3.956   1.372  23.062  0.00  0.00    +0.029 A 
ATOM     21  C   UNL     1       4.471  -0.993  23.100  0.00  0.00    +0.001 A 
ATOM     22  C   UNL     1       4.878   0.328  22.948  0.00  0.00    +0.002 A 
ENDBRANCH   4   9
BRANCH   2   8
ATOM      8  C   UNL     1      -4.081   0.880  25.281  0.00  0.00    +0.119 C 
BRANCH   8  10
ATOM     10  C   UNL     1      -3.954  -0.577  24.922  0.00  0.00    -0.030 A 
ATOM     11  C   UNL     1      -3.140  -1.431  25.666  0.00  0.00    -0.046 A 
ATOM     14  C   UNL     1      -4.664  -1.069  23.827  0.00  0.00    +0.005 A 
ATOM     15  C   UNL     1      -3.036  -2.777  25.316  0.00  0.00    +0.003 A 
ATOM     16  C   UNL     1      -2.369  -0.927  26.842  0.00  0.00    +0.044 C 
ATOM     19  C   UNL     1      -4.561  -2.415  23.477  0.00  0.00    +0.000 A 
ATOM     20  C   UNL     1      -3.746  -3.269  24.221  0.00  0.00    +0.000 A 
ENDBRANCH   8  10
ENDBRANCH   2   8
TORSDOF 3
ENDMDL
MODEL 8
REMARK VINA RESULT:      -1.2     16.766     18.276
REMARK  Name = 51137088
REMARK  4 active torsions:
REMARK  status: ('A' for Active; 'I' for Inactive)
REMARK    1  A    between atoms: N_2  and  C_8
REMARK    2  A    between atoms: C_4  and  C_9
REMARK    3  A    between atoms: C_8  and  C_10
REMARK    4  A    between atoms: C_11  and  C_16
REMARK                            x       y       z     vdW  Elec       q    Type
REMARK                         _______ _______ _______ _____ _____    ______ ____
ROOT
ATOM      2  N   UNL     1      -2.846   0.179  24.628  0.00  0.00    -0.297 NA
ATOM      4  C   UNL     1      -0.945  -0.687  23.562  0.00  0.00    +0.060 C 
ATOM      5  C   UNL     1      -1.635   0.630  23.940  0.00  0.00    +0.095 C 
ATOM      6  C   UNL     1      -1.473  -1.710  24.582  0.00  0.00    +0.027 C 
ATOM      7  C   UNL     1      -2.403  -0.917  25.492  0.00  0.00    +0.085 C 
ENDROOT
BRANCH   4   9
ATOM      1  S   UNL     1       1.521  -1.808  24.187  0.00  0.00    -0.072 S 
ATOM      3  N   UNL     1       1.203   0.437  22.956  0.00  0.00    -0.244 NA
ATOM      9  C   UNL     1       0.561  -0.568  23.503  0.00  0.00    +0.084 A 
ATOM     12  C   UNL     1       2.942  -0.949  23.723  0.00  0.00    +0.039 A 
ATOM     13  C   UNL     1       2.570   0.233  23.075  0.00  0.00    +0.078 A 
ATOM     17  C   UNL     1       4.288  -1.296  23.919  0.00  0.00    +0.017 A 
ATOM     18  C   UNL     1       3.585   1.097  22.607  0.00  0.00    +0.029 A 
ATOM     21  C   UNL     1       5.272  -0.423  23.447  0.00  0.00    +0.001 A 
ATOM     22  C   UNL     1       4.928   0.758  22.800  0.00  0.00    +0.002 A 
ENDBRANCH   4   9
BRANCH   2   8
ATOM      8  C   UNL     1      -3.491   1.247  25.377  0.00  0.00    +0.119 C 
BRANCH   8  10
ATOM     10  C   UNL     1      -2.710   2.533  25.306  0.00  0.00    -0.030 A 
ATOM     11  C   UNL     1      -3.351   3.751  25.082  0.00  0.00    -0.046 A 
ATOM     14  C   UNL     1      -1.325   2.492  25.466  0.00  0.00    +0.005 A 
ATOM     15  C   UNL     1      -2.607   4.930  25.020  0.00  0.00    +0.003 A 
ATOM     16  C   UNL     1      -4.833   3.819  24.907  0.00  0.00    +0.044 C 
ATOM     19  C   UNL     1      -0.581   3.671  25.404  0.00  0.00    +0.000 A 
ATOM     20  C   UNL     1      -1.223   4.890  25.180  0.00  0.00    +0.000 A 
ENDBRANCH   8  10
ENDBRANCH   2   8
TORSDOF 3
ENDMDL
MODEL 9
REMARK VINA RESULT:      -0.8     17.109     18.526
REMARK  Name = 51137088
REMARK  4 active torsions:
REMARK  status: ('A' for Active; 'I' for Inactive)
REMARK    1  A    between atoms: N_2  and  C_8
REMARK    2  A    between atoms: C_4  and  C_9
REMARK    3  A    between atoms: C_8  and  C_10
REMARK    4  A    between atoms: C_11  and  C_16
REMARK                            x       y       z     vdW  Elec       q    Type
REMARK                         _______ _______ _______ _____ _____    ______ ____
ROOT
ATOM      2  N   UNL     1      -2.169   1.041  23.630  0.00  0.00    -0.297 NA
ATOM      4  C   UNL     1      -0.322  -0.388  23.419  0.00  0.00    +0.060 C 
ATOM      5  C   UNL     1      -0.890   0.948  22.922  0.00  0.00    +0.095 C 
ATOM      6  C   UNL     1      -0.994  -0.615  24.784  0.00  0.00    +0.027 C 
ATOM      7  C   UNL     1      -1.877   0.609  24.997  0.00  0.00    +0.085 C 
ENDROOT
BRANCH   4   9
ATOM      1  S   UNL     1       1.989  -1.779  24.091  0.00  0.00    -0.072 S 
ATOM      3  N   UNL     1       1.953   0.556  22.996  0.00  0.00    -0.244 NA
ATOM      9  C   UNL     1       1.189  -0.413  23.443  0.00  0.00    +0.084 A 
ATOM     12  C   UNL     1       3.508  -1.035  23.757  0.00  0.00    +0.039 A 
ATOM     13  C   UNL     1       3.286   0.214  23.170  0.00  0.00    +0.078 A 
ATOM     17  C   UNL     1       4.803  -1.522  23.997  0.00  0.00    +0.017 A 
ATOM     18  C   UNL     1       4.402   1.002  22.810  0.00  0.00    +0.029 A 
ATOM     21  C   UNL     1       5.889  -0.723  23.632  0.00  0.00    +0.001 A 
ATOM     22  C   UNL     1       5.694   0.523  23.047  0.00  0.00    +0.002 A 
ENDBRANCH   4   9
BRANCH   2   8
ATOM      8  C   UNL     1      -2.735   2.381  23.582  0.00  0.00    +0.119 C 
BRANCH   8  10
ATOM     10  C   UNL     1      -3.924   2.521  24.495  0.00  0.00    -0.030 A 
ATOM     11  C   UNL     1      -3.930   3.459  25.527  0.00  0.00    -0.046 A 
ATOM     14  C   UNL     1      -5.029   1.693  24.298  0.00  0.00    +0.005 A 
ATOM     15  C   UNL     1      -5.042   3.571  26.362  0.00  0.00    +0.003 A 
ATOM     16  C   UNL     1      -2.758   4.355  25.758  0.00  0.00    +0.044 C 
ATOM     19  C   UNL     1      -6.141   1.805  25.133  0.00  0.00    +0.000 A 
ATOM     20  C   UNL     1      -6.148   2.744  26.165  0.00  0.00    +0.000 A 
ENDBRANCH   8  10
ENDBRANCH   2   8
TORSDOF 3
ENDMDL
