MODEL 1
REMARK VINA RESULT:      -4.3      0.000      0.000
REMARK  Name = 11865843
REMARK  11 active torsions:
REMARK  status: ('A' for Active; 'I' for Inactive)
REMARK    1  A    between atoms: S_1  and  C_19
REMARK    2  A    between atoms: S_1  and  C_26
REMARK    3  A    between atoms: N_7  and  C_11
REMARK    4  A    between atoms: N_8  and  C_17
REMARK    5  A    between atoms: N_9  and  C_23
REMARK    6  A    between atoms: C_12  and  C_15
REMARK    7  A    between atoms: C_16  and  C_19
REMARK    8  A    between atoms: C_17  and  C_20
REMARK    9  A    between atoms: C_17  and  C_21
REMARK   10  A    between atoms: C_20  and  C_22
REMARK   11  A    between atoms: C_23  and  C_27
REMARK                            x       y       z     vdW  Elec       q    Type
REMARK                         _______ _______ _______ _____ _____    ______ ____
ROOT
ATOM      3  O   UNL     1      -0.073   3.416  25.898  0.00  0.00    -0.275 OA
ATOM      6  N   UNL     1      -0.294   1.140  25.533  0.00  0.00    -0.287 N 
ATOM     11  C   UNL     1      -0.236  -0.213  23.586  0.00  0.00    +0.105 C 
ATOM     12  C   UNL     1      -0.436   1.218  24.082  0.00  0.00    +0.182 C 
ATOM     13  C   UNL     1      -0.685  -1.068  24.775  0.00  0.00    +0.043 C 
ATOM     14  C   UNL     1      -0.275  -0.246  25.990  0.00  0.00    +0.110 C 
ATOM     16  C   UNL     1      -0.049   2.257  26.318  0.00  0.00    +0.226 C 
ENDROOT
BRANCH  11   7
ATOM      4  O   UNL     1       1.888   1.734  23.446  0.00  0.00    -0.253 OA
ATOM      7  N   UNL     1       1.148  -0.459  23.257  0.00  0.00    -0.294 N 
ATOM      9  N   UNL     1       3.360   0.035  22.873  0.00  0.00    -0.296 N 
ATOM     18  C   UNL     1       2.110   0.547  23.213  0.00  0.00    +0.300 C 
ATOM     32  H   UNL     1       1.450  -1.418  23.114  0.00  0.00    +0.151 HD
ATOM     34  H   UNL     1       3.453  -0.964  22.717  0.00  0.00    +0.151 HD
BRANCH   9  23
ATOM     23  C   UNL     1       4.538   0.861  22.755  0.00  0.00    +0.132 C 
BRANCH  23  27
ATOM     27  C   UNL     1       5.637   0.263  23.568  0.00  0.00    -0.016 C 
ATOM     31  C   UNL     1       5.491  -0.824  24.335  0.00  0.00    +0.005 C 
ENDBRANCH  23  27
ENDBRANCH   9  23
ENDBRANCH  11   7
BRANCH  12  15
ATOM      2  O   UNL     1      -2.238   1.912  22.677  0.00  0.00    -0.274 OA
ATOM      8  N   UNL     1      -2.551   1.892  24.984  0.00  0.00    -0.302 N 
ATOM     15  C   UNL     1      -1.831   1.702  23.816  0.00  0.00    +0.236 C 
ATOM     33  H   UNL     1      -2.128   1.636  25.871  0.00  0.00    +0.150 HD
BRANCH   8  17
ATOM     17  C   UNL     1      -3.912   2.376  25.002  0.00  0.00    +0.163 C 
BRANCH  17  21
ATOM      5  O   UNL     1      -3.456   4.708  24.496  0.00  0.00    -0.274 OA
ATOM     10  N   UNL     1      -4.556   3.439  22.928  0.00  0.00    -0.328 N 
ATOM     21  C   UNL     1      -3.951   3.637  24.152  0.00  0.00    +0.231 C 
ATOM     35  H   UNL     1      -4.637   4.197  22.259  0.00  0.00    +0.145 HD
ATOM     36  H   UNL     1      -4.940   2.542  22.649  0.00  0.00    +0.145 HD
ENDBRANCH  17  21
BRANCH  17  20
ATOM     20  C   UNL     1      -4.904   1.338  24.463  0.00  0.00    +0.067 C 
BRANCH  20  22
ATOM     22  C   UNL     1      -4.429  -0.081  24.660  0.00  0.00    -0.045 A 
ATOM     24  C   UNL     1      -3.983  -0.499  25.913  0.00  0.00    +0.004 A 
ATOM     25  C   UNL     1      -4.434  -0.973  23.588  0.00  0.00    +0.004 A 
ATOM     28  C   UNL     1      -3.544  -1.811  26.095  0.00  0.00    +0.000 A 
ATOM     29  C   UNL     1      -3.994  -2.284  23.770  0.00  0.00    +0.000 A 
ATOM     30  C   UNL     1      -3.549  -2.703  25.024  0.00  0.00    +0.000 A 
ENDBRANCH  20  22
ENDBRANCH  17  20
ENDBRANCH   8  17
ENDBRANCH  12  15
BRANCH  16  19
ATOM     19  C   UNL     1       0.251   1.979  27.769  0.00  0.00    +0.164 C 
BRANCH  19   1
ATOM      1  S   UNL     1       1.768   2.850  28.189  0.00  0.00    -0.155 S 
ATOM     26  C   UNL     1       1.921   2.328  29.915  0.00  0.00    +0.085 C 
ENDBRANCH  19   1
ENDBRANCH  16  19
TORSDOF 10
ENDMDL
MODEL 2
REMARK VINA RESULT:      -2.6      2.330      3.789
REMARK  Name = 11865843
REMARK  11 active torsions:
REMARK  status: ('A' for Active; 'I' for Inactive)
REMARK    1  A    between atoms: S_1  and  C_19
REMARK    2  A    between atoms: S_1  and  C_26
REMARK    3  A    between atoms: N_7  and  C_11
REMARK    4  A    between atoms: N_8  and  C_17
REMARK    5  A    between atoms: N_9  and  C_23
REMARK    6  A    between atoms: C_12  and  C_15
REMARK    7  A    between atoms: C_16  and  C_19
REMARK    8  A    between atoms: C_17  and  C_20
REMARK    9  A    between atoms: C_17  and  C_21
REMARK   10  A    between atoms: C_20  and  C_22
REMARK   11  A    between atoms: C_23  and  C_27
REMARK                            x       y       z     vdW  Elec       q    Type
REMARK                         _______ _______ _______ _____ _____    ______ ____
ROOT
ATOM      3  O   UNL     1      -1.397  -0.511  27.256  0.00  0.00    -0.275 OA
ATOM      6  N   UNL     1      -1.350   0.149  25.037  0.00  0.00    -0.287 N 
ATOM     11  C   UNL     1       0.227   1.332  23.719  0.00  0.00    +0.105 C 
ATOM     12  C   UNL     1      -0.210   1.052  25.157  0.00  0.00    +0.182 C 
ATOM     13  C   UNL     1      -1.065   1.156  22.915  0.00  0.00    +0.043 C 
ATOM     14  C   UNL     1      -1.807   0.051  23.654  0.00  0.00    +0.110 C 
ATOM     16  C   UNL     1      -1.806  -0.619  26.098  0.00  0.00    +0.226 C 
ENDROOT
BRANCH  11   7
ATOM      4  O   UNL     1       2.990   1.914  23.129  0.00  0.00    -0.253 OA
ATOM      7  N   UNL     1       1.240   0.396  23.293  0.00  0.00    -0.294 N 
ATOM      9  N   UNL     1       3.321  -0.330  22.639  0.00  0.00    -0.296 N 
ATOM     18  C   UNL     1       2.557   0.767  23.029  0.00  0.00    +0.300 C 
ATOM     32  H   UNL     1       1.001  -0.590  23.245  0.00  0.00    +0.151 HD
ATOM     34  H   UNL     1       2.881  -1.244  22.603  0.00  0.00    +0.151 HD
BRANCH   9  23
ATOM     23  C   UNL     1       4.722  -0.228  22.304  0.00  0.00    +0.132 C 
BRANCH  23  27
ATOM     27  C   UNL     1       5.495   0.106  23.536  0.00  0.00    -0.016 C 
ATOM     31  C   UNL     1       5.659  -0.734  24.565  0.00  0.00    +0.005 C 
ENDBRANCH  23  27
ENDBRANCH   9  23
ENDBRANCH  11   7
BRANCH  12  15
ATOM      2  O   UNL     1      -0.380   2.597  26.969  0.00  0.00    -0.274 OA
ATOM      8  N   UNL     1      -1.597   3.000  25.027  0.00  0.00    -0.302 N 
ATOM     15  C   UNL     1      -0.717   2.293  25.829  0.00  0.00    +0.236 C 
ATOM     33  H   UNL     1      -1.764   2.681  24.077  0.00  0.00    +0.150 HD
BRANCH   8  17
ATOM     17  C   UNL     1      -2.244   4.221  25.450  0.00  0.00    +0.163 C 
BRANCH  17  21
ATOM      5  O   UNL     1      -1.666   6.557  25.115  0.00  0.00    -0.274 OA
ATOM     10  N   UNL     1      -0.114   4.953  24.572  0.00  0.00    -0.328 N 
ATOM     21  C   UNL     1      -1.348   5.374  25.024  0.00  0.00    +0.231 C 
ATOM     35  H   UNL     1       0.586   5.623  24.269  0.00  0.00    +0.145 HD
ATOM     36  H   UNL     1       0.144   3.972  24.525  0.00  0.00    +0.145 HD
ENDBRANCH  17  21
BRANCH  17  20
ATOM     20  C   UNL     1      -3.642   4.378  24.839  0.00  0.00    +0.067 C 
BRANCH  20  22
ATOM     22  C   UNL     1      -4.523   3.177  25.082  0.00  0.00    -0.045 A 
ATOM     24  C   UNL     1      -4.397   2.046  24.276  0.00  0.00    +0.004 A 
ATOM     25  C   UNL     1      -5.463   3.198  26.112  0.00  0.00    +0.004 A 
ATOM     28  C   UNL     1      -5.212   0.935  24.500  0.00  0.00    +0.000 A 
ATOM     29  C   UNL     1      -6.278   2.088  26.336  0.00  0.00    +0.000 A 
ATOM     30  C   UNL     1      -6.152   0.957  25.530  0.00  0.00    +0.000 A 
ENDBRANCH  20  22
ENDBRANCH  17  20
ENDBRANCH   8  17
ENDBRANCH  12  15
BRANCH  16  19
ATOM     19  C   UNL     1      -2.873  -1.629  25.759  0.00  0.00    +0.164 C 
BRANCH  19   1
ATOM      1  S   UNL     1      -2.227  -2.691  24.459  0.00  0.00    -0.155 S 
ATOM     26  C   UNL     1      -3.784  -3.105  23.636  0.00  0.00    +0.085 C 
ENDBRANCH  19   1
ENDBRANCH  16  19
TORSDOF 10
ENDMDL
MODEL 3
REMARK VINA RESULT:      -1.8      2.569      5.271
REMARK  Name = 11865843
REMARK  11 active torsions:
REMARK  status: ('A' for Active; 'I' for Inactive)
REMARK    1  A    between atoms: S_1  and  C_19
REMARK    2  A    between atoms: S_1  and  C_26
REMARK    3  A    between atoms: N_7  and  C_11
REMARK    4  A    between atoms: N_8  and  C_17
REMARK    5  A    between atoms: N_9  and  C_23
REMARK    6  A    between atoms: C_12  and  C_15
REMARK    7  A    between atoms: C_16  and  C_19
REMARK    8  A    between atoms: C_17  and  C_20
REMARK    9  A    between atoms: C_17  and  C_21
REMARK   10  A    between atoms: C_20  and  C_22
REMARK   11  A    between atoms: C_23  and  C_27
REMARK                            x       y       z     vdW  Elec       q    Type
REMARK                         _______ _______ _______ _____ _____    ______ ____
ROOT
ATOM      3  O   UNL     1       0.652  -1.461  23.902  0.00  0.00    -0.275 OA
ATOM      6  N   UNL     1       0.012   0.760  24.029  0.00  0.00    -0.287 N 
ATOM     11  C   UNL     1      -0.593   2.185  25.826  0.00  0.00    +0.105 C 
ATOM     12  C   UNL     1      -0.454   0.720  25.412  0.00  0.00    +0.182 C 
ATOM     13  C   UNL     1      -0.874   2.903  24.503  0.00  0.00    +0.043 C 
ATOM     14  C   UNL     1      -0.071   2.111  23.480  0.00  0.00    +0.110 C 
ATOM     16  C   UNL     1       0.599  -0.333  23.409  0.00  0.00    +0.226 C 
ENDROOT
BRANCH  11   7
ATOM      4  O   UNL     1       0.161   1.965  28.602  0.00  0.00    -0.253 OA
ATOM      7  N   UNL     1       0.622   2.668  26.437  0.00  0.00    -0.294 N 
ATOM      9  N   UNL     1       2.141   3.073  28.115  0.00  0.00    -0.296 N 
ATOM     18  C   UNL     1       0.905   2.518  27.793  0.00  0.00    +0.300 C 
ATOM     32  H   UNL     1       1.334   3.081  25.842  0.00  0.00    +0.151 HD
ATOM     34  H   UNL     1       2.695   3.492  27.375  0.00  0.00    +0.151 HD
BRANCH   9  23
ATOM     23  C   UNL     1       2.680   3.057  29.454  0.00  0.00    +0.132 C 
BRANCH  23  27
ATOM     27  C   UNL     1       2.032   1.957  30.228  0.00  0.00    -0.016 C 
ATOM     31  C   UNL     1       1.238   2.157  31.286  0.00  0.00    +0.005 C 
ENDBRANCH  23  27
ENDBRANCH   9  23
ENDBRANCH  11   7
BRANCH  12  15
ATOM      2  O   UNL     1      -2.291  -0.429  26.416  0.00  0.00    -0.274 OA
ATOM      8  N   UNL     1      -2.317  -0.051  24.119  0.00  0.00    -0.302 N 
ATOM     15  C   UNL     1      -1.783   0.024  25.394  0.00  0.00    +0.236 C 
ATOM     33  H   UNL     1      -1.831   0.405  23.353  0.00  0.00    +0.150 HD
BRANCH   8  17
ATOM     17  C   UNL     1      -3.578  -0.693  23.828  0.00  0.00    +0.163 C 
BRANCH  17  21
ATOM      5  O   UNL     1      -4.319  -2.987  24.135  0.00  0.00    -0.274 OA
ATOM     10  N   UNL     1      -2.066  -2.543  24.198  0.00  0.00    -0.328 N 
ATOM     21  C   UNL     1      -3.392  -2.181  24.083  0.00  0.00    +0.231 C 
ATOM     35  H   UNL     1      -1.801  -3.509  24.357  0.00  0.00    +0.145 HD
ATOM     36  H   UNL     1      -1.309  -1.869  24.129  0.00  0.00    +0.145 HD
ENDBRANCH  17  21
BRANCH  17  20
ATOM     20  C   UNL     1      -4.722  -0.143  24.689  0.00  0.00    +0.067 C 
BRANCH  20  22
ATOM     22  C   UNL     1      -4.755   1.366  24.720  0.00  0.00    -0.045 A 
ATOM     24  C   UNL     1      -4.120   2.097  23.716  0.00  0.00    +0.004 A 
ATOM     25  C   UNL     1      -5.421   2.028  25.751  0.00  0.00    +0.004 A 
ATOM     28  C   UNL     1      -4.151   3.492  23.744  0.00  0.00    +0.000 A 
ATOM     29  C   UNL     1      -5.451   3.422  25.779  0.00  0.00    +0.000 A 
ATOM     30  C   UNL     1      -4.816   4.154  24.775  0.00  0.00    +0.000 A 
ENDBRANCH  20  22
ENDBRANCH  17  20
ENDBRANCH   8  17
ENDBRANCH  12  15
BRANCH  16  19
ATOM     19  C   UNL     1       1.186  -0.069  22.045  0.00  0.00    +0.164 C 
BRANCH  19   1
ATOM      1  S   UNL     1       2.952  -0.401  22.138  0.00  0.00    -0.155 S 
ATOM     26  C   UNL     1       3.501   1.191  22.800  0.00  0.00    +0.085 C 
ENDBRANCH  19   1
ENDBRANCH  16  19
TORSDOF 10
ENDMDL
MODEL 4
REMARK VINA RESULT:      -1.8      2.089      2.622
REMARK  Name = 11865843
REMARK  11 active torsions:
REMARK  status: ('A' for Active; 'I' for Inactive)
REMARK    1  A    between atoms: S_1  and  C_19
REMARK    2  A    between atoms: S_1  and  C_26
REMARK    3  A    between atoms: N_7  and  C_11
REMARK    4  A    between atoms: N_8  and  C_17
REMARK    5  A    between atoms: N_9  and  C_23
REMARK    6  A    between atoms: C_12  and  C_15
REMARK    7  A    between atoms: C_16  and  C_19
REMARK    8  A    between atoms: C_17  and  C_20
REMARK    9  A    between atoms: C_17  and  C_21
REMARK   10  A    between atoms: C_20  and  C_22
REMARK   11  A    between atoms: C_23  and  C_27
REMARK                            x       y       z     vdW  Elec       q    Type
REMARK                         _______ _______ _______ _____ _____    ______ ____
ROOT
ATOM      3  O   UNL     1      -2.733   4.762  23.510  0.00  0.00    -0.275 OA
ATOM      6  N   UNL     1      -1.496   3.268  24.775  0.00  0.00    -0.287 N 
ATOM     11  C   UNL     1      -0.344   1.259  24.263  0.00  0.00    +0.105 C 
ATOM     12  C   UNL     1      -1.431   2.213  23.768  0.00  0.00    +0.182 C 
ATOM     13  C   UNL     1      -0.375   1.444  25.783  0.00  0.00    +0.043 C 
ATOM     14  C   UNL     1      -0.728   2.914  25.964  0.00  0.00    +0.110 C 
ATOM     16  C   UNL     1      -2.090   4.497  24.528  0.00  0.00    +0.226 C 
ENDROOT
BRANCH  11   7
ATOM      4  O   UNL     1       1.750  -0.547  23.441  0.00  0.00    -0.253 OA
ATOM      7  N   UNL     1       0.945   1.614  23.718  0.00  0.00    -0.294 N 
ATOM      9  N   UNL     1       3.048   1.284  22.851  0.00  0.00    -0.296 N 
ATOM     18  C   UNL     1       1.900   0.670  23.346  0.00  0.00    +0.300 C 
ATOM     32  H   UNL     1       1.142   2.593  23.536  0.00  0.00    +0.151 HD
ATOM     34  H   UNL     1       3.074   2.297  22.793  0.00  0.00    +0.151 HD
BRANCH   9  23
ATOM     23  C   UNL     1       4.198   0.539  22.394  0.00  0.00    +0.132 C 
BRANCH  23  27
ATOM     27  C   UNL     1       5.191   0.445  23.505  0.00  0.00    -0.016 C 
ATOM     31  C   UNL     1       5.433  -0.675  24.195  0.00  0.00    +0.005 C 
ENDBRANCH  23  27
ENDBRANCH   9  23
ENDBRANCH  11   7
BRANCH  12  15
ATOM      2  O   UNL     1      -3.256   1.080  22.726  0.00  0.00    -0.274 OA
ATOM      8  N   UNL     1      -3.384   1.574  24.997  0.00  0.00    -0.302 N 
ATOM     15  C   UNL     1      -2.777   1.553  23.753  0.00  0.00    +0.236 C 
ATOM     33  H   UNL     1      -2.871   1.948  25.790  0.00  0.00    +0.150 HD
BRANCH   8  17
ATOM     17  C   UNL     1      -4.697   1.023  25.245  0.00  0.00    +0.163 C 
BRANCH  17  21
ATOM      5  O   UNL     1      -5.400   3.309  24.817  0.00  0.00    -0.274 OA
ATOM     10  N   UNL     1      -6.998   1.659  24.867  0.00  0.00    -0.328 N 
ATOM     21  C   UNL     1      -5.705   2.129  24.973  0.00  0.00    +0.231 C 
ATOM     35  H   UNL     1      -7.768   2.292  24.674  0.00  0.00    +0.145 HD
ATOM     36  H   UNL     1      -7.232   0.677  24.975  0.00  0.00    +0.145 HD
ENDBRANCH  17  21
BRANCH  17  20
ATOM     20  C   UNL     1      -4.990  -0.197  24.363  0.00  0.00    +0.067 C 
BRANCH  20  22
ATOM     22  C   UNL     1      -3.957  -1.287  24.511  0.00  0.00    -0.045 A 
ATOM     24  C   UNL     1      -2.915  -1.139  25.427  0.00  0.00    +0.004 A 
ATOM     25  C   UNL     1      -4.043  -2.441  23.733  0.00  0.00    +0.004 A 
ATOM     28  C   UNL     1      -1.959  -2.147  25.564  0.00  0.00    +0.000 A 
ATOM     29  C   UNL     1      -3.088  -3.447  23.870  0.00  0.00    +0.000 A 
ATOM     30  C   UNL     1      -2.046  -3.301  24.786  0.00  0.00    +0.000 A 
ENDBRANCH  20  22
ENDBRANCH  17  20
ENDBRANCH   8  17
ENDBRANCH  12  15
BRANCH  16  19
ATOM     19  C   UNL     1      -1.912   5.533  25.609  0.00  0.00    +0.164 C 
BRANCH  19   1
ATOM      1  S   UNL     1      -3.464   5.653  26.510  0.00  0.00    -0.155 S 
ATOM     26  C   UNL     1      -3.448   4.031  27.312  0.00  0.00    +0.085 C 
ENDBRANCH  19   1
ENDBRANCH  16  19
TORSDOF 10
ENDMDL
MODEL 5
REMARK VINA RESULT:      -1.7      2.009      4.315
REMARK  Name = 11865843
REMARK  11 active torsions:
REMARK  status: ('A' for Active; 'I' for Inactive)
REMARK    1  A    between atoms: S_1  and  C_19
REMARK    2  A    between atoms: S_1  and  C_26
REMARK    3  A    between atoms: N_7  and  C_11
REMARK    4  A    between atoms: N_8  and  C_17
REMARK    5  A    between atoms: N_9  and  C_23
REMARK    6  A    between atoms: C_12  and  C_15
REMARK    7  A    between atoms: C_16  and  C_19
REMARK    8  A    between atoms: C_17  and  C_20
REMARK    9  A    between atoms: C_17  and  C_21
REMARK   10  A    between atoms: C_20  and  C_22
REMARK   11  A    between atoms: C_23  and  C_27
REMARK                            x       y       z     vdW  Elec       q    Type
REMARK                         _______ _______ _______ _____ _____    ______ ____
ROOT
ATOM      3  O   UNL     1      -0.227  -0.951  23.951  0.00  0.00    -0.275 OA
ATOM      6  N   UNL     1       0.151   1.331  23.850  0.00  0.00    -0.287 N 
ATOM     11  C   UNL     1      -0.254   3.121  25.353  0.00  0.00    +0.105 C 
ATOM     12  C   UNL     1      -0.653   1.684  25.017  0.00  0.00    +0.182 C 
ATOM     13  C   UNL     1       0.187   3.693  24.003  0.00  0.00    +0.043 C 
ATOM     14  C   UNL     1       0.818   2.504  23.292  0.00  0.00    +0.110 C 
ATOM     16  C   UNL     1       0.354   0.017  23.456  0.00  0.00    +0.226 C 
ENDROOT
BRANCH  11   7
ATOM      4  O   UNL     1      -0.263   2.001  28.012  0.00  0.00    -0.253 OA
ATOM      7  N   UNL     1       0.826   3.148  26.311  0.00  0.00    -0.294 N 
ATOM      9  N   UNL     1       1.915   2.747  28.296  0.00  0.00    -0.296 N 
ATOM     18  C   UNL     1       0.733   2.579  27.580  0.00  0.00    +0.300 C 
ATOM     32  H   UNL     1       1.717   3.543  26.028  0.00  0.00    +0.151 HD
ATOM     34  H   UNL     1       2.694   3.222  27.848  0.00  0.00    +0.151 HD
BRANCH   9  23
ATOM     23  C   UNL     1       2.093   2.254  29.641  0.00  0.00    +0.132 C 
BRANCH  23  27
ATOM     27  C   UNL     1       0.974   2.752  30.494  0.00  0.00    -0.016 C 
ATOM     31  C   UNL     1       0.655   2.231  31.685  0.00  0.00    +0.005 C 
ENDBRANCH  23  27
ENDBRANCH   9  23
ENDBRANCH  11   7
BRANCH  12  15
ATOM      2  O   UNL     1      -2.404   1.396  23.419  0.00  0.00    -0.274 OA
ATOM      8  N   UNL     1      -2.962   1.791  25.644  0.00  0.00    -0.302 N 
ATOM     15  C   UNL     1      -2.088   1.597  24.588  0.00  0.00    +0.236 C 
ATOM     33  H   UNL     1      -2.586   1.899  26.582  0.00  0.00    +0.150 HD
BRANCH   8  17
ATOM     17  C   UNL     1      -4.398   1.780  25.492  0.00  0.00    +0.163 C 
BRANCH  17  21
ATOM      5  O   UNL     1      -4.245   3.877  24.275  0.00  0.00    -0.274 OA
ATOM     10  N   UNL     1      -5.953   3.608  25.787  0.00  0.00    -0.328 N 
ATOM     21  C   UNL     1      -4.820   3.192  25.117  0.00  0.00    +0.231 C 
ATOM     35  H   UNL     1      -6.349   4.527  25.621  0.00  0.00    +0.145 HD
ATOM     36  H   UNL     1      -6.432   3.022  26.464  0.00  0.00    +0.145 HD
ENDBRANCH  17  21
BRANCH  17  20
ATOM     20  C   UNL     1      -4.861   0.783  24.423  0.00  0.00    +0.067 C 
BRANCH  20  22
ATOM     22  C   UNL     1      -4.290  -0.599  24.627  0.00  0.00    -0.045 A 
ATOM     24  C   UNL     1      -3.688  -0.932  25.841  0.00  0.00    +0.004 A 
ATOM     25  C   UNL     1      -4.364  -1.543  23.603  0.00  0.00    +0.004 A 
ATOM     28  C   UNL     1      -3.159  -2.209  26.030  0.00  0.00    +0.000 A 
ATOM     29  C   UNL     1      -3.835  -2.820  23.792  0.00  0.00    +0.000 A 
ATOM     30  C   UNL     1      -3.233  -3.153  25.006  0.00  0.00    +0.000 A 
ENDBRANCH  20  22
ENDBRANCH  17  20
ENDBRANCH   8  17
ENDBRANCH  12  15
BRANCH  16  19
ATOM     19  C   UNL     1       1.353  -0.181  22.344  0.00  0.00    +0.164 C 
BRANCH  19   1
ATOM      1  S   UNL     1       2.946  -0.539  23.098  0.00  0.00    -0.155 S 
ATOM     26  C   UNL     1       3.854   0.923  22.543  0.00  0.00    +0.085 C 
ENDBRANCH  19   1
ENDBRANCH  16  19
TORSDOF 10
ENDMDL
MODEL 6
REMARK VINA RESULT:      -1.7      2.528      4.440
REMARK  Name = 11865843
REMARK  11 active torsions:
REMARK  status: ('A' for Active; 'I' for Inactive)
REMARK    1  A    between atoms: S_1  and  C_19
REMARK    2  A    between atoms: S_1  and  C_26
REMARK    3  A    between atoms: N_7  and  C_11
REMARK    4  A    between atoms: N_8  and  C_17
REMARK    5  A    between atoms: N_9  and  C_23
REMARK    6  A    between atoms: C_12  and  C_15
REMARK    7  A    between atoms: C_16  and  C_19
REMARK    8  A    between atoms: C_17  and  C_20
REMARK    9  A    between atoms: C_17  and  C_21
REMARK   10  A    between atoms: C_20  and  C_22
REMARK   11  A    between atoms: C_23  and  C_27
REMARK                            x       y       z     vdW  Elec       q    Type
REMARK                         _______ _______ _______ _____ _____    ______ ____
ROOT
ATOM      3  O   UNL     1      -2.157  -0.412  26.118  0.00  0.00    -0.275 OA
ATOM      6  N   UNL     1      -0.945  -0.493  24.146  0.00  0.00    -0.287 N 
ATOM     11  C   UNL     1       0.350   1.102  22.960  0.00  0.00    +0.105 C 
ATOM     12  C   UNL     1      -0.744   0.947  24.016  0.00  0.00    +0.182 C 
ATOM     13  C   UNL     1       0.189  -0.154  22.097  0.00  0.00    +0.043 C 
ATOM     14  C   UNL     1      -0.255  -1.222  23.086  0.00  0.00    +0.110 C 
ATOM     16  C   UNL     1      -1.582  -1.060  25.240  0.00  0.00    +0.226 C 
ENDROOT
BRANCH  11   7
ATOM      4  O   UNL     1       2.844   0.231  21.801  0.00  0.00    -0.253 OA
ATOM      7  N   UNL     1       1.657   1.154  23.570  0.00  0.00    -0.294 N 
ATOM      9  N   UNL     1       3.932   0.876  23.746  0.00  0.00    -0.296 N 
ATOM     18  C   UNL     1       2.813   0.709  22.934  0.00  0.00    +0.300 C 
ATOM     32  H   UNL     1       1.750   1.594  24.481  0.00  0.00    +0.151 HD
ATOM     34  H   UNL     1       3.812   1.299  24.661  0.00  0.00    +0.151 HD
BRANCH   9  23
ATOM     23  C   UNL     1       5.262   0.497  23.333  0.00  0.00    +0.132 C 
BRANCH  23  27
ATOM     27  C   UNL     1       5.613  -0.812  23.960  0.00  0.00    -0.016 C 
ATOM     31  C   UNL     1       4.793  -1.868  23.990  0.00  0.00    +0.005 C 
ENDBRANCH  23  27
ENDBRANCH   9  23
ENDBRANCH  11   7
BRANCH  12  15
ATOM      2  O   UNL     1      -2.206   1.912  22.393  0.00  0.00    -0.274 OA
ATOM      8  N   UNL     1      -2.995   1.563  24.554  0.00  0.00    -0.302 N 
ATOM     15  C   UNL     1      -2.048   1.520  23.545  0.00  0.00    +0.236 C 
ATOM     33  H   UNL     1      -2.770   1.163  25.460  0.00  0.00    +0.150 HD
BRANCH   8  17
ATOM     17  C   UNL     1      -4.327   2.092  24.365  0.00  0.00    +0.163 C 
BRANCH  17  21
ATOM      5  O   UNL     1      -4.964   0.163  25.698  0.00  0.00    -0.274 OA
ATOM     10  N   UNL     1      -6.485   1.863  25.430  0.00  0.00    -0.328 N 
ATOM     21  C   UNL     1      -5.268   1.251  25.214  0.00  0.00    +0.231 C 
ATOM     35  H   UNL     1      -7.202   1.414  25.991  0.00  0.00    +0.145 HD
ATOM     36  H   UNL     1      -6.714   2.773  25.043  0.00  0.00    +0.145 HD
ENDBRANCH  17  21
BRANCH  17  20
ATOM     20  C   UNL     1      -4.426   3.570  24.763  0.00  0.00    +0.067 C 
BRANCH  20  22
ATOM     22  C   UNL     1      -3.077   4.240  24.861  0.00  0.00    -0.045 A 
ATOM     24  C   UNL     1      -2.819   5.398  24.128  0.00  0.00    +0.004 A 
ATOM     25  C   UNL     1      -2.088   3.699  25.683  0.00  0.00    +0.004 A 
ATOM     28  C   UNL     1      -1.572   6.017  24.218  0.00  0.00    +0.000 A 
ATOM     29  C   UNL     1      -0.841   4.318  25.772  0.00  0.00    +0.000 A 
ATOM     30  C   UNL     1      -0.583   5.477  25.041  0.00  0.00    +0.000 A 
ENDBRANCH  20  22
ENDBRANCH  17  20
ENDBRANCH   8  17
ENDBRANCH  12  15
BRANCH  16  19
ATOM     19  C   UNL     1      -1.546  -2.565  25.305  0.00  0.00    +0.164 C 
BRANCH  19   1
ATOM      1  S   UNL     1      -3.246  -3.152  25.315  0.00  0.00    -0.155 S 
ATOM     26  C   UNL     1      -3.844  -2.305  23.833  0.00  0.00    +0.085 C 
ENDBRANCH  19   1
ENDBRANCH  16  19
TORSDOF 10
ENDMDL
MODEL 7
REMARK VINA RESULT:      -1.2      2.208      3.854
REMARK  Name = 11865843
REMARK  11 active torsions:
REMARK  status: ('A' for Active; 'I' for Inactive)
REMARK    1  A    between atoms: S_1  and  C_19
REMARK    2  A    between atoms: S_1  and  C_26
REMARK    3  A    between atoms: N_7  and  C_11
REMARK    4  A    between atoms: N_8  and  C_17
REMARK    5  A    between atoms: N_9  and  C_23
REMARK    6  A    between atoms: C_12  and  C_15
REMARK    7  A    between atoms: C_16  and  C_19
REMARK    8  A    between atoms: C_17  and  C_20
REMARK    9  A    between atoms: C_17  and  C_21
REMARK   10  A    between atoms: C_20  and  C_22
REMARK   11  A    between atoms: C_23  and  C_27
REMARK                            x       y       z     vdW  Elec       q    Type
REMARK                         _______ _______ _______ _____ _____    ______ ____
ROOT
ATOM      3  O   UNL     1      -2.815   4.008  23.268  0.00  0.00    -0.275 OA
ATOM      6  N   UNL     1      -1.612   2.602  24.660  0.00  0.00    -0.287 N 
ATOM     11  C   UNL     1      -0.144   0.781  24.267  0.00  0.00    +0.105 C 
ATOM     12  C   UNL     1      -1.253   1.624  23.637  0.00  0.00    +0.182 C 
ATOM     13  C   UNL     1      -0.439   0.871  25.767  0.00  0.00    +0.043 C 
ATOM     14  C   UNL     1      -1.002   2.274  25.945  0.00  0.00    +0.110 C 
ATOM     16  C   UNL     1      -2.312   3.763  24.366  0.00  0.00    +0.226 C 
ENDROOT
BRANCH  11   7
ATOM      4  O   UNL     1       1.982  -0.537  22.830  0.00  0.00    -0.253 OA
ATOM      7  N   UNL     1       1.158   1.320  23.955  0.00  0.00    -0.294 N 
ATOM      9  N   UNL     1       3.288   1.363  23.090  0.00  0.00    -0.296 N 
ATOM     18  C   UNL     1       2.128   0.609  23.253  0.00  0.00    +0.300 C 
ATOM     32  H   UNL     1       1.356   2.285  24.202  0.00  0.00    +0.151 HD
ATOM     34  H   UNL     1       3.310   2.309  23.458  0.00  0.00    +0.151 HD
BRANCH   9  23
ATOM     23  C   UNL     1       4.454   0.867  22.398  0.00  0.00    +0.132 C 
BRANCH  23  27
ATOM     27  C   UNL     1       5.458   0.409  23.403  0.00  0.00    -0.016 C 
ATOM     31  C   UNL     1       5.356  -0.733  24.094  0.00  0.00    +0.005 C 
ENDBRANCH  23  27
ENDBRANCH   9  23
ENDBRANCH  11   7
BRANCH  12  15
ATOM      2  O   UNL     1      -3.273   1.093  22.480  0.00  0.00    -0.274 OA
ATOM      8  N   UNL     1      -2.609  -0.248  24.263  0.00  0.00    -0.302 N 
ATOM     15  C   UNL     1      -2.484   0.808  23.376  0.00  0.00    +0.236 C 
ATOM     33  H   UNL     1      -1.867  -0.419  24.935  0.00  0.00    +0.150 HD
BRANCH   8  17
ATOM     17  C   UNL     1      -3.721  -1.171  24.239  0.00  0.00    +0.163 C 
BRANCH  17  21
ATOM      5  O   UNL     1      -3.799  -3.600  24.249  0.00  0.00    -0.274 OA
ATOM     10  N   UNL     1      -1.791  -2.563  24.667  0.00  0.00    -0.328 N 
ATOM     21  C   UNL     1      -3.144  -2.570  24.395  0.00  0.00    +0.231 C 
ATOM     35  H   UNL     1      -1.279  -3.432  24.783  0.00  0.00    +0.145 HD
ATOM     36  H   UNL     1      -1.258  -1.704  24.762  0.00  0.00    +0.145 HD
ENDBRANCH  17  21
BRANCH  17  20
ATOM     20  C   UNL     1      -4.737  -0.885  25.352  0.00  0.00    +0.067 C 
BRANCH  20  22
ATOM     22  C   UNL     1      -5.190   0.555  25.373  0.00  0.00    -0.045 A 
ATOM     24  C   UNL     1      -6.266   0.958  24.582  0.00  0.00    +0.004 A 
ATOM     25  C   UNL     1      -4.533   1.481  26.181  0.00  0.00    +0.004 A 
ATOM     28  C   UNL     1      -6.685   2.289  24.601  0.00  0.00    +0.000 A 
ATOM     29  C   UNL     1      -4.951   2.811  26.199  0.00  0.00    +0.000 A 
ATOM     30  C   UNL     1      -6.027   3.215  25.410  0.00  0.00    +0.000 A 
ENDBRANCH  20  22
ENDBRANCH  17  20
ENDBRANCH   8  17
ENDBRANCH  12  15
BRANCH  16  19
ATOM     19  C   UNL     1      -2.442   4.748  25.500  0.00  0.00    +0.164 C 
BRANCH  19   1
ATOM      1  S   UNL     1      -1.492   6.211  25.065  0.00  0.00    -0.155 S 
ATOM     26  C   UNL     1      -0.030   5.400  24.374  0.00  0.00    +0.085 C 
ENDBRANCH  19   1
ENDBRANCH  16  19
TORSDOF 10
ENDMDL
