MODEL 1
REMARK VINA RESULT:      -5.9      0.000      0.000
REMARK  Name = 75367093
REMARK  11 active torsions:
REMARK  status: ('A' for Active; 'I' for Inactive)
REMARK    1  A    between atoms: S_1  and  N_7
REMARK    2  A    between atoms: S_1  and  C_18
REMARK    3  A    between atoms: O_3  and  C_9
REMARK    4  A    between atoms: N_6  and  C_8
REMARK    5  A    between atoms: N_6  and  C_13
REMARK    6  A    between atoms: N_7  and  C_14
REMARK    7  A    between atoms: C_10  and  C_14
REMARK    8  A    between atoms: C_12  and  C_13
REMARK    9  A    between atoms: C_12  and  C_15
REMARK   10  A    between atoms: C_12  and  C_16
REMARK   11  A    between atoms: C_12  and  C_17
REMARK                            x       y       z     vdW  Elec       q    Type
REMARK                         _______ _______ _______ _____ _____    ______ ____
ROOT
ATOM      2  O   UNL     1      -0.456   3.006  26.190  0.00  0.00    -0.371 OA
ATOM      8  C   UNL     1      -0.536   1.286  24.553  0.00  0.00    +0.111 C 
ATOM      9  C   UNL     1      -1.637   2.291  24.269  0.00  0.00    +0.164 C 
ATOM     10  C   UNL     1      -1.121   3.511  25.020  0.00  0.00    +0.164 C 
ATOM     11  C   UNL     1      -0.207   1.601  26.003  0.00  0.00    +0.181 C 
ENDROOT
BRANCH   9   3
ATOM      3  O   UNL     1      -1.797   2.551  22.888  0.00  0.00    -0.388 OA
ATOM     20  H   UNL     1      -1.492   1.771  22.393  0.00  0.00    +0.210 HD
ENDBRANCH   9   3
BRANCH   8   6
ATOM      6  N   UNL     1      -0.942  -0.095  24.351  0.00  0.00    -0.308 NA
ATOM     19  H   UNL     1      -0.654  -0.647  25.159  0.00  0.00    +0.122 HD
BRANCH   6  13
ATOM     13  C   UNL     1      -2.386  -0.200  24.185  0.00  0.00    +0.087 C 
BRANCH  13  12
ATOM     12  C   UNL     1      -2.981  -1.552  24.654  0.00  0.00    -0.025 C 
ATOM     15  C   UNL     1      -4.263  -1.889  23.871  0.00  0.00    +0.012 C 
ATOM     16  C   UNL     1      -3.336  -1.432  26.148  0.00  0.00    +0.012 C 
ATOM     17  C   UNL     1      -1.967  -2.697  24.482  0.00  0.00    +0.012 C 
ENDBRANCH  13  12
ENDBRANCH   6  13
ENDBRANCH   8   6
BRANCH  10  14
ATOM     14  C   UNL     1      -2.221   4.473  25.431  0.00  0.00    +0.139 C 
BRANCH  14   7
ATOM      7  N   UNL     1      -3.350   3.717  26.011  0.00  0.00    -0.192 NA
ATOM     21  H   UNL     1      -3.471   3.875  27.019  0.00  0.00    +0.148 HD
BRANCH   7   1
ATOM      1  S   UNL     1      -4.780   3.530  25.099  0.00  0.00    +0.027 S 
ATOM      4  O   UNL     1      -4.484   3.667  23.686  0.00  0.00    -0.158 OA
ATOM      5  O   UNL     1      -5.826   4.322  25.718  0.00  0.00    -0.158 OA
ATOM     18  C   UNL     1      -5.150   1.821  25.417  0.00  0.00    +0.214 C 
ENDBRANCH   7   1
ENDBRANCH  14   7
ENDBRANCH  10  14
TORSDOF 7
ENDMDL
MODEL 2
REMARK VINA RESULT:      -5.9      2.039      3.724
REMARK  Name = 75367093
REMARK  11 active torsions:
REMARK  status: ('A' for Active; 'I' for Inactive)
REMARK    1  A    between atoms: S_1  and  N_7
REMARK    2  A    between atoms: S_1  and  C_18
REMARK    3  A    between atoms: O_3  and  C_9
REMARK    4  A    between atoms: N_6  and  C_8
REMARK    5  A    between atoms: N_6  and  C_13
REMARK    6  A    between atoms: N_7  and  C_14
REMARK    7  A    between atoms: C_10  and  C_14
REMARK    8  A    between atoms: C_12  and  C_13
REMARK    9  A    between atoms: C_12  and  C_15
REMARK   10  A    between atoms: C_12  and  C_16
REMARK   11  A    between atoms: C_12  and  C_17
REMARK                            x       y       z     vdW  Elec       q    Type
REMARK                         _______ _______ _______ _____ _____    ______ ____
ROOT
ATOM      2  O   UNL     1      -2.546   3.020  23.529  0.00  0.00    -0.371 OA
ATOM      8  C   UNL     1      -4.398   1.674  24.162  0.00  0.00    +0.111 C 
ATOM      9  C   UNL     1      -3.950   2.494  25.358  0.00  0.00    +0.164 C 
ATOM     10  C   UNL     1      -3.181   3.615  24.674  0.00  0.00    +0.164 C 
ATOM     11  C   UNL     1      -3.171   1.751  23.268  0.00  0.00    +0.181 C 
ENDROOT
BRANCH   9   3
ATOM      3  O   UNL     1      -5.036   2.987  26.120  0.00  0.00    -0.388 OA
ATOM     20  H   UNL     1      -4.954   2.642  27.026  0.00  0.00    +0.210 HD
ENDBRANCH   9   3
BRANCH   8   6
ATOM      6  N   UNL     1      -4.770   0.309  24.497  0.00  0.00    -0.308 NA
ATOM     19  H   UNL     1      -5.742   0.156  24.232  0.00  0.00    +0.122 HD
BRANCH   6  13
ATOM     13  C   UNL     1      -3.923  -0.652  23.800  0.00  0.00    +0.087 C 
BRANCH  13  12
ATOM     12  C   UNL     1      -3.152  -1.613  24.740  0.00  0.00    -0.025 C 
ATOM     15  C   UNL     1      -1.636  -1.537  24.478  0.00  0.00    +0.012 C 
ATOM     16  C   UNL     1      -3.628  -3.050  24.459  0.00  0.00    +0.012 C 
ATOM     17  C   UNL     1      -3.427  -1.287  26.219  0.00  0.00    +0.012 C 
ENDBRANCH  13  12
ENDBRANCH   6  13
ENDBRANCH   8   6
BRANCH  10  14
ATOM     14  C   UNL     1      -2.133   4.255  25.566  0.00  0.00    +0.139 C 
BRANCH  14   7
ATOM      7  N   UNL     1      -0.785   3.855  25.115  0.00  0.00    -0.192 NA
ATOM     21  H   UNL     1      -0.139   4.647  25.009  0.00  0.00    +0.148 HD
BRANCH   7   1
ATOM      1  S   UNL     1      -0.109   2.403  25.705  0.00  0.00    +0.027 S 
ATOM      4  O   UNL     1      -1.167   1.471  26.047  0.00  0.00    -0.158 OA
ATOM      5  O   UNL     1       0.925   2.736  26.666  0.00  0.00    -0.158 OA
ATOM     18  C   UNL     1       0.700   1.800  24.242  0.00  0.00    +0.214 C 
ENDBRANCH   7   1
ENDBRANCH  14   7
ENDBRANCH  10  14
TORSDOF 7
ENDMDL
MODEL 3
REMARK VINA RESULT:      -5.6      2.841      4.846
REMARK  Name = 75367093
REMARK  11 active torsions:
REMARK  status: ('A' for Active; 'I' for Inactive)
REMARK    1  A    between atoms: S_1  and  N_7
REMARK    2  A    between atoms: S_1  and  C_18
REMARK    3  A    between atoms: O_3  and  C_9
REMARK    4  A    between atoms: N_6  and  C_8
REMARK    5  A    between atoms: N_6  and  C_13
REMARK    6  A    between atoms: N_7  and  C_14
REMARK    7  A    between atoms: C_10  and  C_14
REMARK    8  A    between atoms: C_12  and  C_13
REMARK    9  A    between atoms: C_12  and  C_15
REMARK   10  A    between atoms: C_12  and  C_16
REMARK   11  A    between atoms: C_12  and  C_17
REMARK                            x       y       z     vdW  Elec       q    Type
REMARK                         _______ _______ _______ _____ _____    ______ ____
ROOT
ATOM      2  O   UNL     1      -0.966   0.375  23.447  0.00  0.00    -0.371 OA
ATOM      8  C   UNL     1      -1.024   2.528  24.449  0.00  0.00    +0.111 C 
ATOM      9  C   UNL     1      -0.903   1.479  25.538  0.00  0.00    +0.164 C 
ATOM     10  C   UNL     1      -0.358   0.297  24.748  0.00  0.00    +0.164 C 
ATOM     11  C   UNL     1      -1.518   1.693  23.280  0.00  0.00    +0.181 C 
ENDROOT
BRANCH   9   3
ATOM      3  O   UNL     1      -0.025   1.868  26.578  0.00  0.00    -0.388 OA
ATOM     20  H   UNL     1      -0.437   1.637  27.428  0.00  0.00    +0.210 HD
ENDBRANCH   9   3
BRANCH   8   6
ATOM      6  N   UNL     1      -1.923   3.618  24.788  0.00  0.00    -0.308 NA
ATOM     19  H   UNL     1      -2.286   4.028  23.927  0.00  0.00    +0.122 HD
BRANCH   6  13
ATOM     13  C   UNL     1      -3.036   3.147  25.604  0.00  0.00    +0.087 C 
BRANCH  13  12
ATOM     12  C   UNL     1      -4.404   3.159  24.876  0.00  0.00    -0.025 C 
ATOM     15  C   UNL     1      -5.422   4.028  25.637  0.00  0.00    +0.012 C 
ATOM     16  C   UNL     1      -4.935   1.715  24.821  0.00  0.00    +0.012 C 
ATOM     17  C   UNL     1      -4.266   3.685  23.436  0.00  0.00    +0.012 C 
ENDBRANCH  13  12
ENDBRANCH   6  13
ENDBRANCH   8   6
BRANCH  10  14
ATOM     14  C   UNL     1      -0.674  -1.046  25.382  0.00  0.00    +0.139 C 
BRANCH  14   7
ATOM      7  N   UNL     1      -1.615  -1.791  24.521  0.00  0.00    -0.192 NA
ATOM     21  H   UNL     1      -1.180  -2.588  24.037  0.00  0.00    +0.148 HD
BRANCH   7   1
ATOM      1  S   UNL     1      -3.224  -2.013  25.046  0.00  0.00    +0.027 S 
ATOM      4  O   UNL     1      -3.489  -1.161  26.189  0.00  0.00    -0.158 OA
ATOM      5  O   UNL     1      -3.496  -3.437  25.102  0.00  0.00    -0.158 OA
ATOM     18  C   UNL     1      -4.114  -1.357  23.654  0.00  0.00    +0.214 C 
ENDBRANCH   7   1
ENDBRANCH  14   7
ENDBRANCH  10  14
TORSDOF 7
ENDMDL
MODEL 4
REMARK VINA RESULT:      -4.9      1.724      2.545
REMARK  Name = 75367093
REMARK  11 active torsions:
REMARK  status: ('A' for Active; 'I' for Inactive)
REMARK    1  A    between atoms: S_1  and  N_7
REMARK    2  A    between atoms: S_1  and  C_18
REMARK    3  A    between atoms: O_3  and  C_9
REMARK    4  A    between atoms: N_6  and  C_8
REMARK    5  A    between atoms: N_6  and  C_13
REMARK    6  A    between atoms: N_7  and  C_14
REMARK    7  A    between atoms: C_10  and  C_14
REMARK    8  A    between atoms: C_12  and  C_13
REMARK    9  A    between atoms: C_12  and  C_15
REMARK   10  A    between atoms: C_12  and  C_16
REMARK   11  A    between atoms: C_12  and  C_17
REMARK                            x       y       z     vdW  Elec       q    Type
REMARK                         _______ _______ _______ _____ _____    ______ ____
ROOT
ATOM      2  O   UNL     1      -0.581   1.464  25.973  0.00  0.00    -0.371 OA
ATOM      8  C   UNL     1      -0.317  -0.725  25.090  0.00  0.00    +0.111 C 
ATOM      9  C   UNL     1      -0.351   0.270  23.945  0.00  0.00    +0.164 C 
ATOM     10  C   UNL     1       0.010   1.561  24.666  0.00  0.00    +0.164 C 
ATOM     11  C   UNL     1      -0.932   0.091  26.215  0.00  0.00    +0.181 C 
ENDROOT
BRANCH   9   3
ATOM      3  O   UNL     1       0.577  -0.041  22.923  0.00  0.00    -0.388 OA
ATOM     20  H   UNL     1       0.612   0.708  22.304  0.00  0.00    +0.210 HD
ENDBRANCH   9   3
BRANCH   8   6
ATOM      6  N   UNL     1      -1.044  -1.953  24.817  0.00  0.00    -0.308 NA
ATOM     19  H   UNL     1      -1.454  -2.296  25.685  0.00  0.00    +0.122 HD
BRANCH   6  13
ATOM     13  C   UNL     1      -2.102  -1.731  23.839  0.00  0.00    +0.087 C 
BRANCH  13  12
ATOM     12  C   UNL     1      -3.523  -1.649  24.451  0.00  0.00    -0.025 C 
ATOM     15  C   UNL     1      -3.503  -2.046  25.939  0.00  0.00    +0.012 C 
ATOM     16  C   UNL     1      -4.435  -2.632  23.693  0.00  0.00    +0.012 C 
ATOM     17  C   UNL     1      -4.110  -0.232  24.313  0.00  0.00    +0.012 C 
ENDBRANCH  13  12
ENDBRANCH   6  13
ENDBRANCH   8   6
BRANCH  10  14
ATOM     14  C   UNL     1      -0.500   2.805  23.963  0.00  0.00    +0.139 C 
BRANCH  14   7
ATOM      7  N   UNL     1      -1.957   2.691  23.749  0.00  0.00    -0.192 NA
ATOM     21  H   UNL     1      -2.266   1.731  23.554  0.00  0.00    +0.148 HD
BRANCH   7   1
ATOM      1  S   UNL     1      -3.012   3.648  24.689  0.00  0.00    +0.027 S 
ATOM      4  O   UNL     1      -3.506   2.875  25.812  0.00  0.00    -0.158 OA
ATOM      5  O   UNL     1      -3.929   4.331  23.798  0.00  0.00    -0.158 OA
ATOM     18  C   UNL     1      -1.877   4.863  25.318  0.00  0.00    +0.214 C 
ENDBRANCH   7   1
ENDBRANCH  14   7
ENDBRANCH  10  14
TORSDOF 7
ENDMDL
MODEL 5
REMARK VINA RESULT:      -4.5      2.547      4.723
REMARK  Name = 75367093
REMARK  11 active torsions:
REMARK  status: ('A' for Active; 'I' for Inactive)
REMARK    1  A    between atoms: S_1  and  N_7
REMARK    2  A    between atoms: S_1  and  C_18
REMARK    3  A    between atoms: O_3  and  C_9
REMARK    4  A    between atoms: N_6  and  C_8
REMARK    5  A    between atoms: N_6  and  C_13
REMARK    6  A    between atoms: N_7  and  C_14
REMARK    7  A    between atoms: C_10  and  C_14
REMARK    8  A    between atoms: C_12  and  C_13
REMARK    9  A    between atoms: C_12  and  C_15
REMARK   10  A    between atoms: C_12  and  C_16
REMARK   11  A    between atoms: C_12  and  C_17
REMARK                            x       y       z     vdW  Elec       q    Type
REMARK                         _______ _______ _______ _____ _____    ______ ____
ROOT
ATOM      2  O   UNL     1      -1.936  -2.180  25.005  0.00  0.00    -0.371 OA
ATOM      8  C   UNL     1      -3.691  -0.913  24.028  0.00  0.00    +0.111 C 
ATOM      9  C   UNL     1      -2.475  -0.023  24.197  0.00  0.00    +0.164 C 
ATOM     10  C   UNL     1      -1.365  -1.060  24.307  0.00  0.00    +0.164 C 
ATOM     11  C   UNL     1      -3.368  -2.050  24.983  0.00  0.00    +0.181 C 
ENDROOT
BRANCH   9   3
ATOM      3  O   UNL     1      -2.277   0.847  23.099  0.00  0.00    -0.388 OA
ATOM     20  H   UNL     1      -2.012   1.717  23.443  0.00  0.00    +0.210 HD
ENDBRANCH   9   3
BRANCH   8   6
ATOM      6  N   UNL     1      -4.947  -0.250  24.340  0.00  0.00    -0.308 NA
ATOM     19  H   UNL     1      -5.613  -0.944  24.678  0.00  0.00    +0.122 HD
BRANCH   6  13
ATOM     13  C   UNL     1      -4.760   0.776  25.358  0.00  0.00    +0.087 C 
BRANCH  13  12
ATOM     12  C   UNL     1      -5.367   2.153  24.988  0.00  0.00    -0.025 C 
ATOM     15  C   UNL     1      -5.338   3.108  26.195  0.00  0.00    +0.012 C 
ATOM     16  C   UNL     1      -6.832   1.938  24.566  0.00  0.00    +0.012 C 
ATOM     17  C   UNL     1      -4.609   2.799  23.813  0.00  0.00    +0.012 C 
ENDBRANCH  13  12
ENDBRANCH   6  13
ENDBRANCH   8   6
BRANCH  10  14
ATOM     14  C   UNL     1      -0.144  -0.557  25.055  0.00  0.00    +0.139 C 
BRANCH  14   7
ATOM      7  N   UNL     1      -0.533   0.552  25.949  0.00  0.00    -0.192 NA
ATOM     21  H   UNL     1      -0.532   0.293  26.944  0.00  0.00    +0.148 HD
BRANCH   7   1
ATOM      1  S   UNL     1      -0.015   2.136  25.581  0.00  0.00    +0.027 S 
ATOM      4  O   UNL     1       0.367   2.217  24.185  0.00  0.00    -0.158 OA
ATOM      5  O   UNL     1       0.893   2.576  26.625  0.00  0.00    -0.158 OA
ATOM     18  C   UNL     1      -1.535   3.034  25.787  0.00  0.00    +0.214 C 
ENDBRANCH   7   1
ENDBRANCH  14   7
ENDBRANCH  10  14
TORSDOF 7
ENDMDL
MODEL 6
REMARK VINA RESULT:      -4.1      2.981      5.651
REMARK  Name = 75367093
REMARK  11 active torsions:
REMARK  status: ('A' for Active; 'I' for Inactive)
REMARK    1  A    between atoms: S_1  and  N_7
REMARK    2  A    between atoms: S_1  and  C_18
REMARK    3  A    between atoms: O_3  and  C_9
REMARK    4  A    between atoms: N_6  and  C_8
REMARK    5  A    between atoms: N_6  and  C_13
REMARK    6  A    between atoms: N_7  and  C_14
REMARK    7  A    between atoms: C_10  and  C_14
REMARK    8  A    between atoms: C_12  and  C_13
REMARK    9  A    between atoms: C_12  and  C_15
REMARK   10  A    between atoms: C_12  and  C_16
REMARK   11  A    between atoms: C_12  and  C_17
REMARK                            x       y       z     vdW  Elec       q    Type
REMARK                         _______ _______ _______ _____ _____    ______ ____
ROOT
ATOM      2  O   UNL     1      -2.643  -1.888  25.043  0.00  0.00    -0.371 OA
ATOM      8  C   UNL     1      -3.867  -0.076  24.114  0.00  0.00    +0.111 C 
ATOM      9  C   UNL     1      -2.424   0.349  24.308  0.00  0.00    +0.164 C 
ATOM     10  C   UNL     1      -1.726  -1.002  24.380  0.00  0.00    +0.164 C 
ATOM     11  C   UNL     1      -3.950  -1.286  25.030  0.00  0.00    +0.181 C 
ENDROOT
BRANCH   9   3
ATOM      3  O   UNL     1      -1.938   1.139  23.239  0.00  0.00    -0.388 OA
ATOM     20  H   UNL     1      -1.737   0.550  22.492  0.00  0.00    +0.210 HD
ENDBRANCH   9   3
BRANCH   8   6
ATOM      6  N   UNL     1      -4.831   0.958  24.453  0.00  0.00    -0.308 NA
ATOM     19  H   UNL     1      -5.702   0.517  24.745  0.00  0.00    +0.122 HD
BRANCH   6  13
ATOM     13  C   UNL     1      -4.335   1.805  25.531  0.00  0.00    +0.087 C 
BRANCH  13  12
ATOM     12  C   UNL     1      -4.283   3.313  25.177  0.00  0.00    -0.025 C 
ATOM     15  C   UNL     1      -3.129   4.011  25.920  0.00  0.00    +0.012 C 
ATOM     16  C   UNL     1      -5.611   3.959  25.614  0.00  0.00    +0.012 C 
ATOM     17  C   UNL     1      -4.110   3.526  23.662  0.00  0.00    +0.012 C 
ENDBRANCH  13  12
ENDBRANCH   6  13
ENDBRANCH   8   6
BRANCH  10  14
ATOM     14  C   UNL     1      -0.413  -0.960  25.139  0.00  0.00    +0.139 C 
BRANCH  14   7
ATOM      7  N   UNL     1       0.710  -1.145  24.199  0.00  0.00    -0.192 NA
ATOM     21  H   UNL     1       0.766  -2.096  23.813  0.00  0.00    +0.148 HD
BRANCH   7   1
ATOM      1  S   UNL     1       1.122   0.126  23.136  0.00  0.00    +0.027 S 
ATOM      4  O   UNL     1       0.891   1.402  23.784  0.00  0.00    -0.158 OA
ATOM      5  O   UNL     1       0.547  -0.161  21.835  0.00  0.00    -0.158 OA
ATOM     18  C   UNL     1       2.878  -0.113  23.006  0.00  0.00    +0.214 C 
ENDBRANCH   7   1
ENDBRANCH  14   7
ENDBRANCH  10  14
TORSDOF 7
ENDMDL
MODEL 7
REMARK VINA RESULT:      -3.8      2.679      4.851
REMARK  Name = 75367093
REMARK  11 active torsions:
REMARK  status: ('A' for Active; 'I' for Inactive)
REMARK    1  A    between atoms: S_1  and  N_7
REMARK    2  A    between atoms: S_1  and  C_18
REMARK    3  A    between atoms: O_3  and  C_9
REMARK    4  A    between atoms: N_6  and  C_8
REMARK    5  A    between atoms: N_6  and  C_13
REMARK    6  A    between atoms: N_7  and  C_14
REMARK    7  A    between atoms: C_10  and  C_14
REMARK    8  A    between atoms: C_12  and  C_13
REMARK    9  A    between atoms: C_12  and  C_15
REMARK   10  A    between atoms: C_12  and  C_16
REMARK   11  A    between atoms: C_12  and  C_17
REMARK                            x       y       z     vdW  Elec       q    Type
REMARK                         _______ _______ _______ _____ _____    ______ ____
ROOT
ATOM      2  O   UNL     1      -1.138   1.485  22.882  0.00  0.00    -0.371 OA
ATOM      8  C   UNL     1      -2.396   3.333  23.684  0.00  0.00    +0.111 C 
ATOM      9  C   UNL     1      -1.482   2.840  24.789  0.00  0.00    +0.164 C 
ATOM     10  C   UNL     1      -0.436   2.078  23.988  0.00  0.00    +0.164 C 
ATOM     11  C   UNL     1      -2.415   2.133  22.751  0.00  0.00    +0.181 C 
ENDROOT
BRANCH   9   3
ATOM      3  O   UNL     1      -0.908   3.897  25.536  0.00  0.00    -0.388 OA
ATOM     20  H   UNL     1      -0.852   4.680  24.962  0.00  0.00    +0.210 HD
ENDBRANCH   9   3
BRANCH   8   6
ATOM      6  N   UNL     1      -3.721   3.711  24.148  0.00  0.00    -0.308 NA
ATOM     19  H   UNL     1      -3.979   4.602  23.725  0.00  0.00    +0.122 HD
BRANCH   6  13
ATOM     13  C   UNL     1      -4.711   2.702  23.789  0.00  0.00    +0.087 C 
BRANCH  13  12
ATOM     12  C   UNL     1      -5.367   2.000  25.005  0.00  0.00    -0.025 C 
ATOM     15  C   UNL     1      -5.272   2.881  26.264  0.00  0.00    +0.012 C 
ATOM     16  C   UNL     1      -4.612   0.683  25.268  0.00  0.00    +0.012 C 
ATOM     17  C   UNL     1      -6.845   1.669  24.729  0.00  0.00    +0.012 C 
ENDBRANCH  13  12
ENDBRANCH   6  13
ENDBRANCH   8   6
BRANCH  10  14
ATOM     14  C   UNL     1       0.265   0.997  24.790  0.00  0.00    +0.139 C 
BRANCH  14   7
ATOM      7  N   UNL     1       0.097  -0.307  24.117  0.00  0.00    -0.192 NA
ATOM     21  H   UNL     1       0.905  -0.575  23.540  0.00  0.00    +0.148 HD
BRANCH   7   1
ATOM      1  S   UNL     1      -0.692  -1.573  24.946  0.00  0.00    +0.027 S 
ATOM      4  O   UNL     1       0.288  -2.418  25.601  0.00  0.00    -0.158 OA
ATOM      5  O   UNL     1      -1.692  -2.145  24.064  0.00  0.00    -0.158 OA
ATOM     18  C   UNL     1      -1.552  -0.656  26.201  0.00  0.00    +0.214 C 
ENDBRANCH   7   1
ENDBRANCH  14   7
ENDBRANCH  10  14
TORSDOF 7
ENDMDL
MODEL 8
REMARK VINA RESULT:      -3.7      2.086      3.610
REMARK  Name = 75367093
REMARK  11 active torsions:
REMARK  status: ('A' for Active; 'I' for Inactive)
REMARK    1  A    between atoms: S_1  and  N_7
REMARK    2  A    between atoms: S_1  and  C_18
REMARK    3  A    between atoms: O_3  and  C_9
REMARK    4  A    between atoms: N_6  and  C_8
REMARK    5  A    between atoms: N_6  and  C_13
REMARK    6  A    between atoms: N_7  and  C_14
REMARK    7  A    between atoms: C_10  and  C_14
REMARK    8  A    between atoms: C_12  and  C_13
REMARK    9  A    between atoms: C_12  and  C_15
REMARK   10  A    between atoms: C_12  and  C_16
REMARK   11  A    between atoms: C_12  and  C_17
REMARK                            x       y       z     vdW  Elec       q    Type
REMARK                         _______ _______ _______ _____ _____    ______ ____
ROOT
ATOM      2  O   UNL     1      -3.911   1.950  23.244  0.00  0.00    -0.371 OA
ATOM      8  C   UNL     1      -4.274   0.028  24.593  0.00  0.00    +0.111 C 
ATOM      9  C   UNL     1      -4.635   1.267  25.390  0.00  0.00    +0.164 C 
ATOM     10  C   UNL     1      -4.857   2.280  24.275  0.00  0.00    +0.164 C 
ATOM     11  C   UNL     1      -3.416   0.621  23.487  0.00  0.00    +0.181 C 
ENDROOT
BRANCH   9   3
ATOM      3  O   UNL     1      -5.795   1.090  26.181  0.00  0.00    -0.388 OA
ATOM     20  H   UNL     1      -5.525   0.729  27.042  0.00  0.00    +0.210 HD
ENDBRANCH   9   3
BRANCH   8   6
ATOM      6  N   UNL     1      -3.578  -0.983  25.370  0.00  0.00    -0.308 NA
ATOM     19  H   UNL     1      -3.599  -1.866  24.861  0.00  0.00    +0.122 HD
BRANCH   6  13
ATOM     13  C   UNL     1      -2.192  -0.599  25.611  0.00  0.00    +0.087 C 
BRANCH  13  12
ATOM     12  C   UNL     1      -1.152  -1.509  24.909  0.00  0.00    -0.025 C 
ATOM     15  C   UNL     1      -0.184  -2.127  25.935  0.00  0.00    +0.012 C 
ATOM     16  C   UNL     1      -0.340  -0.646  23.926  0.00  0.00    +0.012 C 
ATOM     17  C   UNL     1      -1.840  -2.636  24.119  0.00  0.00    +0.012 C 
ENDBRANCH  13  12
ENDBRANCH   6  13
ENDBRANCH   8   6
BRANCH  10  14
ATOM     14  C   UNL     1      -4.652   3.717  24.719  0.00  0.00    +0.139 C 
BRANCH  14   7
ATOM      7  N   UNL     1      -3.314   4.179  24.299  0.00  0.00    -0.192 NA
ATOM     21  H   UNL     1      -3.332   5.073  23.792  0.00  0.00    +0.148 HD
BRANCH   7   1
ATOM      1  S   UNL     1      -1.985   3.929  25.341  0.00  0.00    +0.027 S 
ATOM      4  O   UNL     1      -1.226   2.775  24.901  0.00  0.00    -0.158 OA
ATOM      5  O   UNL     1      -2.450   4.033  26.711  0.00  0.00    -0.158 OA
ATOM     18  C   UNL     1      -1.022   5.383  24.995  0.00  0.00    +0.214 C 
ENDBRANCH   7   1
ENDBRANCH  14   7
ENDBRANCH  10  14
TORSDOF 7
ENDMDL
MODEL 9
REMARK VINA RESULT:      -3.7      2.962      5.464
REMARK  Name = 75367093
REMARK  11 active torsions:
REMARK  status: ('A' for Active; 'I' for Inactive)
REMARK    1  A    between atoms: S_1  and  N_7
REMARK    2  A    between atoms: S_1  and  C_18
REMARK    3  A    between atoms: O_3  and  C_9
REMARK    4  A    between atoms: N_6  and  C_8
REMARK    5  A    between atoms: N_6  and  C_13
REMARK    6  A    between atoms: N_7  and  C_14
REMARK    7  A    between atoms: C_10  and  C_14
REMARK    8  A    between atoms: C_12  and  C_13
REMARK    9  A    between atoms: C_12  and  C_15
REMARK   10  A    between atoms: C_12  and  C_16
REMARK   11  A    between atoms: C_12  and  C_17
REMARK                            x       y       z     vdW  Elec       q    Type
REMARK                         _______ _______ _______ _____ _____    ______ ____
ROOT
ATOM      2  O   UNL     1      -1.996  -0.651  25.986  0.00  0.00    -0.371 OA
ATOM      8  C   UNL     1      -4.174  -0.155  25.179  0.00  0.00    +0.111 C 
ATOM      9  C   UNL     1      -3.417  -0.928  24.116  0.00  0.00    +0.164 C 
ATOM     10  C   UNL     1      -2.332  -1.592  24.952  0.00  0.00    +0.164 C 
ATOM     11  C   UNL     1      -3.037   0.338  26.059  0.00  0.00    +0.181 C 
ENDROOT
BRANCH   9   3
ATOM      3  O   UNL     1      -4.227  -1.880  23.451  0.00  0.00    -0.388 OA
ATOM     20  H   UNL     1      -4.553  -1.480  22.627  0.00  0.00    +0.210 HD
ENDBRANCH   9   3
BRANCH   8   6
ATOM      6  N   UNL     1      -4.988   0.925  24.647  0.00  0.00    -0.308 NA
ATOM     19  H   UNL     1      -5.895   0.551  24.369  0.00  0.00    +0.122 HD
BRANCH   6  13
ATOM     13  C   UNL     1      -5.183   1.975  25.640  0.00  0.00    +0.087 C 
BRANCH  13  12
ATOM     12  C   UNL     1      -4.631   3.359  25.213  0.00  0.00    -0.025 C 
ATOM     15  C   UNL     1      -5.725   4.438  25.307  0.00  0.00    +0.012 C 
ATOM     16  C   UNL     1      -4.161   3.262  23.750  0.00  0.00    +0.012 C 
ATOM     17  C   UNL     1      -3.433   3.775  26.086  0.00  0.00    +0.012 C 
ENDBRANCH  13  12
ENDBRANCH   6  13
ENDBRANCH   8   6
BRANCH  10  14
ATOM     14  C   UNL     1      -1.089  -1.943  24.154  0.00  0.00    +0.139 C 
BRANCH  14   7
ATOM      7  N   UNL     1      -0.002  -1.002  24.489  0.00  0.00    -0.192 NA
ATOM     21  H   UNL     1       0.846  -1.466  24.838  0.00  0.00    +0.148 HD
BRANCH   7   1
ATOM      1  S   UNL     1       0.240   0.372  23.505  0.00  0.00    +0.027 S 
ATOM      4  O   UNL     1      -0.980   0.680  22.783  0.00  0.00    -0.158 OA
ATOM      5  O   UNL     1       1.499   0.216  22.801  0.00  0.00    -0.158 OA
ATOM     18  C   UNL     1       0.475   1.624  24.744  0.00  0.00    +0.214 C 
ENDBRANCH   7   1
ENDBRANCH  14   7
ENDBRANCH  10  14
TORSDOF 7
ENDMDL
MODEL 10
REMARK VINA RESULT:      -3.5      2.645      5.544
REMARK  Name = 75367093
REMARK  11 active torsions:
REMARK  status: ('A' for Active; 'I' for Inactive)
REMARK    1  A    between atoms: S_1  and  N_7
REMARK    2  A    between atoms: S_1  and  C_18
REMARK    3  A    between atoms: O_3  and  C_9
REMARK    4  A    between atoms: N_6  and  C_8
REMARK    5  A    between atoms: N_6  and  C_13
REMARK    6  A    between atoms: N_7  and  C_14
REMARK    7  A    between atoms: C_10  and  C_14
REMARK    8  A    between atoms: C_12  and  C_13
REMARK    9  A    between atoms: C_12  and  C_15
REMARK   10  A    between atoms: C_12  and  C_16
REMARK   11  A    between atoms: C_12  and  C_17
REMARK                            x       y       z     vdW  Elec       q    Type
REMARK                         _______ _______ _______ _____ _____    ______ ____
ROOT
ATOM      2  O   UNL     1      -4.310  -0.273  25.338  0.00  0.00    -0.371 OA
ATOM      8  C   UNL     1      -4.474   1.808  24.205  0.00  0.00    +0.111 C 
ATOM      9  C   UNL     1      -3.166   1.140  23.826  0.00  0.00    +0.164 C 
ATOM     10  C   UNL     1      -3.464  -0.311  24.176  0.00  0.00    +0.164 C 
ATOM     11  C   UNL     1      -4.837   1.057  25.476  0.00  0.00    +0.181 C 
ENDROOT
BRANCH   9   3
ATOM      3  O   UNL     1      -2.848   1.298  22.456  0.00  0.00    -0.388 OA
ATOM     20  H   UNL     1      -2.299   2.095  22.359  0.00  0.00    +0.210 HD
ENDBRANCH   9   3
BRANCH   8   6
ATOM      6  N   UNL     1      -4.359   3.243  24.408  0.00  0.00    -0.308 NA
ATOM     19  H   UNL     1      -4.625   3.465  25.366  0.00  0.00    +0.122 HD
BRANCH   6  13
ATOM     13  C   UNL     1      -2.996   3.700  24.167  0.00  0.00    +0.087 C 
BRANCH  13  12
ATOM     12  C   UNL     1      -2.265   4.207  25.436  0.00  0.00    -0.025 C 
ATOM     15  C   UNL     1      -1.292   3.141  25.972  0.00  0.00    +0.012 C 
ATOM     16  C   UNL     1      -3.322   4.497  26.519  0.00  0.00    +0.012 C 
ATOM     17  C   UNL     1      -1.488   5.505  25.152  0.00  0.00    +0.012 C 
ENDBRANCH  13  12
ENDBRANCH   6  13
ENDBRANCH   8   6
BRANCH  10  14
ATOM     14  C   UNL     1      -2.218  -1.125  24.474  0.00  0.00    +0.139 C 
BRANCH  14   7
ATOM      7  N   UNL     1      -1.095  -0.218  24.783  0.00  0.00    -0.192 NA
ATOM     21  H   UNL     1      -0.854  -0.195  25.782  0.00  0.00    +0.148 HD
BRANCH   7   1
ATOM      1  S   UNL     1       0.210  -0.109  23.689  0.00  0.00    +0.027 S 
ATOM      4  O   UNL     1      -0.290  -0.077  22.328  0.00  0.00    -0.158 OA
ATOM      5  O   UNL     1       1.222  -1.071  24.084  0.00  0.00    -0.158 OA
ATOM     18  C   UNL     1       0.832   1.508  24.083  0.00  0.00    +0.214 C 
ENDBRANCH   7   1
ENDBRANCH  14   7
ENDBRANCH  10  14
TORSDOF 7
ENDMDL
