MODEL 1
REMARK VINA RESULT:      -6.6      0.000      0.000
REMARK  Name = 75536683
REMARK  8 active torsions:
REMARK  status: ('A' for Active; 'I' for Inactive)
REMARK    1  A    between atoms: S_1  and  N_8
REMARK    2  A    between atoms: S_1  and  C_16
REMARK    3  A    between atoms: O_4  and  C_10
REMARK    4  A    between atoms: N_7  and  C_9
REMARK    5  A    between atoms: N_7  and  C_14
REMARK    6  A    between atoms: N_8  and  C_13
REMARK    7  A    between atoms: C_11  and  C_13
REMARK    8  A    between atoms: C_14  and  C_15
REMARK                            x       y       z     vdW  Elec       q    Type
REMARK                         _______ _______ _______ _____ _____    ______ ____
ROOT
ATOM      3  O   UNL     1      -0.414   3.290  25.700  0.00  0.00    -0.371 OA
ATOM      9  C   UNL     1       0.058   1.600  24.100  0.00  0.00    +0.111 C 
ATOM     10  C   UNL     1      -1.402   1.997  23.984  0.00  0.00    +0.164 C 
ATOM     11  C   UNL     1      -1.385   3.369  24.644  0.00  0.00    +0.164 C 
ATOM     12  C   UNL     1       0.404   2.127  25.482  0.00  0.00    +0.181 C 
ENDROOT
BRANCH  10   4
ATOM      4  O   UNL     1      -1.844   2.063  22.641  0.00  0.00    -0.388 OA
ATOM     28  H   UNL     1      -2.175   2.960  22.472  0.00  0.00    +0.210 HD
ENDBRANCH  10   4
BRANCH   9   7
ATOM      7  N   UNL     1       0.285   0.170  23.966  0.00  0.00    -0.305 NA
ATOM     27  H   UNL     1      -0.616  -0.307  23.916  0.00  0.00    +0.123 HD
BRANCH   7  14
ATOM     14  C   UNL     1       1.046  -0.131  22.759  0.00  0.00    +0.116 C 
BRANCH  14  15
ATOM      2  F   UNL     1       6.597  -0.136  23.720  0.00  0.00    -0.205 F 
ATOM     15  C   UNL     1       2.529  -0.132  23.016  0.00  0.00    -0.033 A 
ATOM     17  C   UNL     1       3.138  -1.251  23.585  0.00  0.00    +0.008 A 
ATOM     18  C   UNL     1       3.296   0.986  22.686  0.00  0.00    +0.008 A 
ATOM     21  C   UNL     1       4.511  -1.253  23.823  0.00  0.00    +0.038 A 
ATOM     22  C   UNL     1       4.670   0.985  22.924  0.00  0.00    +0.038 A 
ATOM     23  C   UNL     1       5.278  -0.135  23.493  0.00  0.00    +0.123 A 
ENDBRANCH  14  15
ENDBRANCH   7  14
ENDBRANCH   9   7
BRANCH  11  13
ATOM     13  C   UNL     1      -2.732   3.778  25.214  0.00  0.00    +0.140 C 
BRANCH  13   8
ATOM      8  N   UNL     1      -3.390   2.603  25.818  0.00  0.00    -0.187 NA
ATOM     29  H   UNL     1      -2.806   2.038  26.447  0.00  0.00    +0.148 HD
BRANCH   8   1
ATOM      1  S   UNL     1      -4.684   1.845  25.016  0.00  0.00    +0.058 S 
ATOM      5  O   UNL     1      -4.781   2.361  23.664  0.00  0.00    -0.153 OA
ATOM      6  O   UNL     1      -5.846   1.851  25.884  0.00  0.00    -0.153 OA
BRANCH   1  16
ATOM     16  C   UNL     1      -4.120   0.171  24.922  0.00  0.00    +0.105 A 
ATOM     19  C   UNL     1      -4.601  -0.672  23.920  0.00  0.00    +0.028 A 
ATOM     20  C   UNL     1      -3.191  -0.304  25.847  0.00  0.00    +0.028 A 
ATOM     24  C   UNL     1      -4.156  -1.991  23.845  0.00  0.00    +0.002 A 
ATOM     25  C   UNL     1      -2.745  -1.624  25.773  0.00  0.00    +0.002 A 
ATOM     26  C   UNL     1      -3.228  -2.467  24.772  0.00  0.00    +0.000 A 
ENDBRANCH   1  16
ENDBRANCH   8   1
ENDBRANCH  13   8
ENDBRANCH  11  13
TORSDOF 8
ENDMDL
MODEL 2
REMARK VINA RESULT:      -5.3      2.847      6.954
REMARK  Name = 75536683
REMARK  8 active torsions:
REMARK  status: ('A' for Active; 'I' for Inactive)
REMARK    1  A    between atoms: S_1  and  N_8
REMARK    2  A    between atoms: S_1  and  C_16
REMARK    3  A    between atoms: O_4  and  C_10
REMARK    4  A    between atoms: N_7  and  C_9
REMARK    5  A    between atoms: N_7  and  C_14
REMARK    6  A    between atoms: N_8  and  C_13
REMARK    7  A    between atoms: C_11  and  C_13
REMARK    8  A    between atoms: C_14  and  C_15
REMARK                            x       y       z     vdW  Elec       q    Type
REMARK                         _______ _______ _______ _____ _____    ______ ____
ROOT
ATOM      3  O   UNL     1      -1.447   2.132  22.768  0.00  0.00    -0.371 OA
ATOM      9  C   UNL     1      -3.425   2.729  23.938  0.00  0.00    +0.111 C 
ATOM     10  C   UNL     1      -2.306   2.503  24.939  0.00  0.00    +0.164 C 
ATOM     11  C   UNL     1      -1.081   2.666  24.050  0.00  0.00    +0.164 C 
ATOM     12  C   UNL     1      -2.879   2.016  22.712  0.00  0.00    +0.181 C 
ENDROOT
BRANCH  10   4
ATOM      4  O   UNL     1      -2.321   3.445  25.995  0.00  0.00    -0.388 OA
ATOM     28  H   UNL     1      -2.422   4.332  25.612  0.00  0.00    +0.210 HD
ENDBRANCH  10   4
BRANCH   9   7
ATOM      7  N   UNL     1      -4.709   2.206  24.372  0.00  0.00    -0.305 NA
ATOM     27  H   UNL     1      -5.120   1.659  23.615  0.00  0.00    +0.123 HD
BRANCH   7  14
ATOM     14  C   UNL     1      -4.559   1.352  25.545  0.00  0.00    +0.116 C 
BRANCH  14  15
ATOM      2  F   UNL     1      -3.198  -3.930  24.134  0.00  0.00    -0.205 F 
ATOM     15  C   UNL     1      -4.196  -0.059  25.168  0.00  0.00    -0.033 A 
ATOM     17  C   UNL     1      -4.688  -0.615  23.987  0.00  0.00    +0.008 A 
ATOM     18  C   UNL     1      -3.367  -0.813  26.000  0.00  0.00    +0.008 A 
ATOM     21  C   UNL     1      -4.352  -1.922  23.637  0.00  0.00    +0.038 A 
ATOM     22  C   UNL     1      -3.030  -2.121  25.651  0.00  0.00    +0.038 A 
ATOM     23  C   UNL     1      -3.523  -2.675  24.469  0.00  0.00    +0.123 A 
ENDBRANCH  14  15
ENDBRANCH   7  14
ENDBRANCH   9   7
BRANCH  11  13
ATOM     13  C   UNL     1       0.144   1.941  24.578  0.00  0.00    +0.140 C 
BRANCH  13   8
ATOM      8  N   UNL     1       1.047   1.613  23.458  0.00  0.00    -0.187 NA
ATOM     29  H   UNL     1       1.141   2.337  22.734  0.00  0.00    +0.148 HD
BRANCH   8   1
ATOM      1  S   UNL     1       1.307  -0.009  23.018  0.00  0.00    +0.058 S 
ATOM      5  O   UNL     1       1.050  -0.170  21.599  0.00  0.00    -0.153 OA
ATOM      6  O   UNL     1       0.647  -0.870  23.980  0.00  0.00    -0.153 OA
BRANCH   1  16
ATOM     16  C   UNL     1       3.048  -0.180  23.280  0.00  0.00    +0.105 A 
ATOM     19  C   UNL     1       3.900   0.894  23.027  0.00  0.00    +0.028 A 
ATOM     20  C   UNL     1       3.567  -1.390  23.741  0.00  0.00    +0.028 A 
ATOM     24  C   UNL     1       5.272   0.760  23.233  0.00  0.00    +0.002 A 
ATOM     25  C   UNL     1       4.940  -1.525  23.948  0.00  0.00    +0.002 A 
ATOM     26  C   UNL     1       5.792  -0.450  23.694  0.00  0.00    +0.000 A 
ENDBRANCH   1  16
ENDBRANCH   8   1
ENDBRANCH  13   8
ENDBRANCH  11  13
TORSDOF 8
ENDMDL
MODEL 3
REMARK VINA RESULT:      -5.2      1.669      3.766
REMARK  Name = 75536683
REMARK  8 active torsions:
REMARK  status: ('A' for Active; 'I' for Inactive)
REMARK    1  A    between atoms: S_1  and  N_8
REMARK    2  A    between atoms: S_1  and  C_16
REMARK    3  A    between atoms: O_4  and  C_10
REMARK    4  A    between atoms: N_7  and  C_9
REMARK    5  A    between atoms: N_7  and  C_14
REMARK    6  A    between atoms: N_8  and  C_13
REMARK    7  A    between atoms: C_11  and  C_13
REMARK    8  A    between atoms: C_14  and  C_15
REMARK                            x       y       z     vdW  Elec       q    Type
REMARK                         _______ _______ _______ _____ _____    ______ ____
ROOT
ATOM      3  O   UNL     1      -2.048  -2.325  24.140  0.00  0.00    -0.371 OA
ATOM      9  C   UNL     1      -0.190  -0.884  24.472  0.00  0.00    +0.111 C 
ATOM     10  C   UNL     1      -1.345  -0.411  25.336  0.00  0.00    +0.164 C 
ATOM     11  C   UNL     1      -2.190  -1.675  25.414  0.00  0.00    +0.164 C 
ATOM     12  C   UNL     1      -0.912  -1.762  23.463  0.00  0.00    +0.181 C 
ENDROOT
BRANCH  10   4
ATOM      4  O   UNL     1      -0.925   0.022  26.617  0.00  0.00    -0.388 OA
ATOM     28  H   UNL     1      -0.742  -0.762  27.160  0.00  0.00    +0.210 HD
ENDBRANCH  10   4
BRANCH   9   7
ATOM      7  N   UNL     1       0.554   0.199  23.851  0.00  0.00    -0.305 NA
ATOM     27  H   UNL     1       1.178   0.615  24.543  0.00  0.00    +0.123 HD
BRANCH   7  14
ATOM     14  C   UNL     1       1.350  -0.286  22.729  0.00  0.00    +0.116 C 
BRANCH  14  15
ATOM      2  F   UNL     1       6.873  -0.048  23.814  0.00  0.00    -0.205 F 
ATOM     15  C   UNL     1       2.825  -0.223  23.018  0.00  0.00    -0.033 A 
ATOM     17  C   UNL     1       3.549   0.928  22.705  0.00  0.00    +0.008 A 
ATOM     18  C   UNL     1       3.470  -1.315  23.600  0.00  0.00    +0.008 A 
ATOM     21  C   UNL     1       4.916   0.988  22.973  0.00  0.00    +0.038 A 
ATOM     22  C   UNL     1       4.838  -1.256  23.869  0.00  0.00    +0.038 A 
ATOM     23  C   UNL     1       5.560  -0.104  23.555  0.00  0.00    +0.123 A 
ENDBRANCH  14  15
ENDBRANCH   7  14
ENDBRANCH   9   7
BRANCH  11  13
ATOM     13  C   UNL     1      -3.658  -1.399  25.689  0.00  0.00    +0.140 C 
BRANCH  13   8
ATOM      8  N   UNL     1      -3.858   0.047  25.906  0.00  0.00    -0.187 NA
ATOM     29  H   UNL     1      -4.149   0.321  26.852  0.00  0.00    +0.148 HD
BRANCH   8   1
ATOM      1  S   UNL     1      -4.292   1.052  24.604  0.00  0.00    +0.058 S 
ATOM      5  O   UNL     1      -5.670   1.476  24.762  0.00  0.00    -0.153 OA
ATOM      6  O   UNL     1      -3.856   0.436  23.366  0.00  0.00    -0.153 OA
BRANCH   1  16
ATOM     16  C   UNL     1      -3.256   2.460  24.873  0.00  0.00    +0.105 A 
ATOM     19  C   UNL     1      -3.675   3.482  25.724  0.00  0.00    +0.028 A 
ATOM     20  C   UNL     1      -2.018   2.546  24.235  0.00  0.00    +0.028 A 
ATOM     24  C   UNL     1      -2.858   4.592  25.936  0.00  0.00    +0.002 A 
ATOM     25  C   UNL     1      -1.200   3.655  24.447  0.00  0.00    +0.002 A 
ATOM     26  C   UNL     1      -1.620   4.678  25.298  0.00  0.00    +0.000 A 
ENDBRANCH   1  16
ENDBRANCH   8   1
ENDBRANCH  13   8
ENDBRANCH  11  13
TORSDOF 8
ENDMDL
MODEL 4
REMARK VINA RESULT:      -5.1      2.969      5.985
REMARK  Name = 75536683
REMARK  8 active torsions:
REMARK  status: ('A' for Active; 'I' for Inactive)
REMARK    1  A    between atoms: S_1  and  N_8
REMARK    2  A    between atoms: S_1  and  C_16
REMARK    3  A    between atoms: O_4  and  C_10
REMARK    4  A    between atoms: N_7  and  C_9
REMARK    5  A    between atoms: N_7  and  C_14
REMARK    6  A    between atoms: N_8  and  C_13
REMARK    7  A    between atoms: C_11  and  C_13
REMARK    8  A    between atoms: C_14  and  C_15
REMARK                            x       y       z     vdW  Elec       q    Type
REMARK                         _______ _______ _______ _____ _____    ______ ____
ROOT
ATOM      3  O   UNL     1      -2.545   3.430  23.488  0.00  0.00    -0.371 OA
ATOM      9  C   UNL     1      -4.721   2.796  24.196  0.00  0.00    +0.111 C 
ATOM     10  C   UNL     1      -4.058   3.604  25.296  0.00  0.00    +0.164 C 
ATOM     11  C   UNL     1      -2.981   4.340  24.511  0.00  0.00    +0.164 C 
ATOM     12  C   UNL     1      -3.519   2.380  23.364  0.00  0.00    +0.181 C 
ENDROOT
BRANCH  10   4
ATOM      4  O   UNL     1      -4.953   4.499  25.929  0.00  0.00    -0.388 OA
ATOM     28  H   UNL     1      -5.712   4.640  25.340  0.00  0.00    +0.210 HD
ENDBRANCH  10   4
BRANCH   9   7
ATOM      7  N   UNL     1      -5.489   1.664  24.687  0.00  0.00    -0.305 NA
ATOM     27  H   UNL     1      -5.667   1.021  23.914  0.00  0.00    +0.123 HD
BRANCH   7  14
ATOM     14  C   UNL     1      -4.765   0.953  25.735  0.00  0.00    +0.116 C 
BRANCH  14  15
ATOM      2  F   UNL     1      -2.890  -4.057  23.964  0.00  0.00    -0.205 F 
ATOM     15  C   UNL     1      -4.265  -0.386  25.262  0.00  0.00    -0.033 A 
ATOM     17  C   UNL     1      -4.601  -0.847  23.989  0.00  0.00    +0.008 A 
ATOM     18  C   UNL     1      -3.464  -1.166  26.097  0.00  0.00    +0.008 A 
ATOM     21  C   UNL     1      -4.138  -2.086  23.550  0.00  0.00    +0.038 A 
ATOM     22  C   UNL     1      -2.999  -2.406  25.658  0.00  0.00    +0.038 A 
ATOM     23  C   UNL     1      -3.337  -2.866  24.385  0.00  0.00    +0.123 A 
ENDBRANCH  14  15
ENDBRANCH   7  14
ENDBRANCH   9   7
BRANCH  11  13
ATOM     13  C   UNL     1      -1.797   4.759  25.364  0.00  0.00    +0.140 C 
BRANCH  13   8
ATOM      8  N   UNL     1      -0.630   3.914  25.042  0.00  0.00    -0.187 NA
ATOM     29  H   UNL     1      -0.331   3.922  24.059  0.00  0.00    +0.148 HD
BRANCH   8   1
ATOM      1  S   UNL     1      -0.291   2.536  25.980  0.00  0.00    +0.058 S 
ATOM      5  O   UNL     1      -1.506   2.088  26.634  0.00  0.00    -0.153 OA
ATOM      6  O   UNL     1       0.909   2.778  26.757  0.00  0.00    -0.153 OA
BRANCH   1  16
ATOM     16  C   UNL     1       0.128   1.348  24.738  0.00  0.00    +0.105 A 
ATOM     19  C   UNL     1       1.220   1.572  23.900  0.00  0.00    +0.028 A 
ATOM     20  C   UNL     1      -0.632   0.187  24.599  0.00  0.00    +0.028 A 
ATOM     24  C   UNL     1       1.551   0.636  22.921  0.00  0.00    +0.002 A 
ATOM     25  C   UNL     1      -0.302  -0.750  23.621  0.00  0.00    +0.002 A 
ATOM     26  C   UNL     1       0.790  -0.525  22.782  0.00  0.00    +0.000 A 
ENDBRANCH   1  16
ENDBRANCH   8   1
ENDBRANCH  13   8
ENDBRANCH  11  13
TORSDOF 8
ENDMDL
MODEL 5
REMARK VINA RESULT:      -4.9      4.046      7.049
REMARK  Name = 75536683
REMARK  8 active torsions:
REMARK  status: ('A' for Active; 'I' for Inactive)
REMARK    1  A    between atoms: S_1  and  N_8
REMARK    2  A    between atoms: S_1  and  C_16
REMARK    3  A    between atoms: O_4  and  C_10
REMARK    4  A    between atoms: N_7  and  C_9
REMARK    5  A    between atoms: N_7  and  C_14
REMARK    6  A    between atoms: N_8  and  C_13
REMARK    7  A    between atoms: C_11  and  C_13
REMARK    8  A    between atoms: C_14  and  C_15
REMARK                            x       y       z     vdW  Elec       q    Type
REMARK                         _______ _______ _______ _____ _____    ______ ____
ROOT
ATOM      3  O   UNL     1      -1.465  -1.079  26.467  0.00  0.00    -0.371 OA
ATOM      9  C   UNL     1      -3.345  -1.896  25.268  0.00  0.00    +0.111 C 
ATOM     10  C   UNL     1      -2.122  -1.951  24.370  0.00  0.00    +0.164 C 
ATOM     11  C   UNL     1      -1.001  -1.922  25.400  0.00  0.00    +0.164 C 
ATOM     12  C   UNL     1      -2.888  -0.917  26.336  0.00  0.00    +0.181 C 
ENDROOT
BRANCH  10   4
ATOM      4  O   UNL     1      -2.080  -3.124  23.578  0.00  0.00    -0.388 OA
ATOM     28  H   UNL     1      -1.922  -2.864  22.656  0.00  0.00    +0.210 HD
ENDBRANCH  10   4
BRANCH   9   7
ATOM      7  N   UNL     1      -4.552  -1.464  24.582  0.00  0.00    -0.305 NA
ATOM     27  H   UNL     1      -5.225  -1.129  25.272  0.00  0.00    +0.123 HD
BRANCH   7  14
ATOM     14  C   UNL     1      -4.264  -0.387  23.641  0.00  0.00    +0.116 C 
BRANCH  14  15
ATOM      2  F   UNL     1      -5.575   4.665  25.763  0.00  0.00    -0.205 F 
ATOM     15  C   UNL     1      -4.615   0.962  24.208  0.00  0.00    -0.033 A 
ATOM     17  C   UNL     1      -5.475   1.058  25.302  0.00  0.00    +0.008 A 
ATOM     18  C   UNL     1      -4.080   2.119  23.639  0.00  0.00    +0.008 A 
ATOM     21  C   UNL     1      -5.800   2.307  25.828  0.00  0.00    +0.038 A 
ATOM     22  C   UNL     1      -4.405   3.370  24.165  0.00  0.00    +0.038 A 
ATOM     23  C   UNL     1      -5.265   3.464  25.259  0.00  0.00    +0.123 A 
ENDBRANCH  14  15
ENDBRANCH   7  14
ENDBRANCH   9   7
BRANCH  11  13
ATOM     13  C   UNL     1       0.306  -1.380  24.848  0.00  0.00    +0.140 C 
BRANCH  13   8
ATOM      8  N   UNL     1       0.398   0.068  25.125  0.00  0.00    -0.187 NA
ATOM     29  H   UNL     1       0.030   0.372  26.034  0.00  0.00    +0.148 HD
BRANCH   8   1
ATOM      1  S   UNL     1       0.404   1.182  23.840  0.00  0.00    +0.058 S 
ATOM      5  O   UNL     1      -0.433   0.682  22.765  0.00  0.00    -0.153 OA
ATOM      6  O   UNL     1       1.771   1.586  23.572  0.00  0.00    -0.153 OA
BRANCH   1  16
ATOM     16  C   UNL     1      -0.413   2.573  24.565  0.00  0.00    +0.105 A 
ATOM     19  C   UNL     1      -1.167   2.412  25.727  0.00  0.00    +0.028 A 
ATOM     20  C   UNL     1      -0.302   3.832  23.974  0.00  0.00    +0.028 A 
ATOM     24  C   UNL     1      -1.811   3.508  26.299  0.00  0.00    +0.002 A 
ATOM     25  C   UNL     1      -0.945   4.929  24.545  0.00  0.00    +0.002 A 
ATOM     26  C   UNL     1      -1.700   4.767  25.708  0.00  0.00    +0.000 A 
ENDBRANCH   1  16
ENDBRANCH   8   1
ENDBRANCH  13   8
ENDBRANCH  11  13
TORSDOF 8
ENDMDL
MODEL 6
REMARK VINA RESULT:      -4.5      3.790      6.043
REMARK  Name = 75536683
REMARK  8 active torsions:
REMARK  status: ('A' for Active; 'I' for Inactive)
REMARK    1  A    between atoms: S_1  and  N_8
REMARK    2  A    between atoms: S_1  and  C_16
REMARK    3  A    between atoms: O_4  and  C_10
REMARK    4  A    between atoms: N_7  and  C_9
REMARK    5  A    between atoms: N_7  and  C_14
REMARK    6  A    between atoms: N_8  and  C_13
REMARK    7  A    between atoms: C_11  and  C_13
REMARK    8  A    between atoms: C_14  and  C_15
REMARK                            x       y       z     vdW  Elec       q    Type
REMARK                         _______ _______ _______ _____ _____    ______ ____
ROOT
ATOM      3  O   UNL     1      -0.556   4.888  24.337  0.00  0.00    -0.371 OA
ATOM      9  C   UNL     1      -2.028   4.434  26.145  0.00  0.00    +0.111 C 
ATOM     10  C   UNL     1      -1.265   3.168  25.797  0.00  0.00    +0.164 C 
ATOM     11  C   UNL     1      -0.066   3.743  25.055  0.00  0.00    +0.164 C 
ATOM     12  C   UNL     1      -1.834   5.257  24.882  0.00  0.00    +0.181 C 
ENDROOT
BRANCH  10   4
ATOM      4  O   UNL     1      -0.874   2.435  26.943  0.00  0.00    -0.388 OA
ATOM     28  H   UNL     1      -1.213   1.529  26.856  0.00  0.00    +0.210 HD
ENDBRANCH  10   4
BRANCH   9   7
ATOM      7  N   UNL     1      -3.427   4.202  26.461  0.00  0.00    -0.305 NA
ATOM     27  H   UNL     1      -3.781   4.990  27.004  0.00  0.00    +0.123 HD
BRANCH   7  14
ATOM     14  C   UNL     1      -4.225   4.068  25.248  0.00  0.00    +0.116 C 
BRANCH  14  15
ATOM      2  F   UNL     1      -4.598  -1.295  23.562  0.00  0.00    -0.205 F 
ATOM     15  C   UNL     1      -4.325   2.635  24.797  0.00  0.00    -0.033 A 
ATOM     17  C   UNL     1      -3.558   2.187  23.721  0.00  0.00    +0.008 A 
ATOM     18  C   UNL     1      -5.185   1.755  25.455  0.00  0.00    +0.008 A 
ATOM     21  C   UNL     1      -3.650   0.860  23.304  0.00  0.00    +0.038 A 
ATOM     22  C   UNL     1      -5.277   0.427  25.038  0.00  0.00    +0.038 A 
ATOM     23  C   UNL     1      -4.510  -0.020  23.962  0.00  0.00    +0.123 A 
ENDBRANCH  14  15
ENDBRANCH   7  14
ENDBRANCH   9   7
BRANCH  11  13
ATOM     13  C   UNL     1       0.567   2.761  24.085  0.00  0.00    +0.140 C 
BRANCH  13   8
ATOM      8  N   UNL     1       0.518   1.401  24.656  0.00  0.00    -0.187 NA
ATOM     29  H   UNL     1       1.015   1.272  25.546  0.00  0.00    +0.148 HD
BRANCH   8   1
ATOM      1  S   UNL     1       0.328   0.054  23.634  0.00  0.00    +0.058 S 
ATOM      5  O   UNL     1       1.561  -0.710  23.610  0.00  0.00    -0.153 OA
ATOM      6  O   UNL     1      -0.286   0.486  22.394  0.00  0.00    -0.153 OA
BRANCH   1  16
ATOM     16  C   UNL     1      -0.883  -0.894  24.508  0.00  0.00    +0.105 A 
ATOM     19  C   UNL     1      -1.366  -0.445  25.737  0.00  0.00    +0.028 A 
ATOM     20  C   UNL     1      -1.355  -2.090  23.967  0.00  0.00    +0.028 A 
ATOM     24  C   UNL     1      -2.321  -1.192  26.425  0.00  0.00    +0.002 A 
ATOM     25  C   UNL     1      -2.310  -2.837  24.655  0.00  0.00    +0.002 A 
ATOM     26  C   UNL     1      -2.793  -2.388  25.885  0.00  0.00    +0.000 A 
ENDBRANCH   1  16
ENDBRANCH   8   1
ENDBRANCH  13   8
ENDBRANCH  11  13
TORSDOF 8
ENDMDL
MODEL 7
REMARK VINA RESULT:      -4.4      3.782      6.366
REMARK  Name = 75536683
REMARK  8 active torsions:
REMARK  status: ('A' for Active; 'I' for Inactive)
REMARK    1  A    between atoms: S_1  and  N_8
REMARK    2  A    between atoms: S_1  and  C_16
REMARK    3  A    between atoms: O_4  and  C_10
REMARK    4  A    between atoms: N_7  and  C_9
REMARK    5  A    between atoms: N_7  and  C_14
REMARK    6  A    between atoms: N_8  and  C_13
REMARK    7  A    between atoms: C_11  and  C_13
REMARK    8  A    between atoms: C_14  and  C_15
REMARK                            x       y       z     vdW  Elec       q    Type
REMARK                         _______ _______ _______ _____ _____    ______ ____
ROOT
ATOM      3  O   UNL     1       0.270   3.152  23.286  0.00  0.00    -0.371 OA
ATOM      9  C   UNL     1      -0.444   3.971  25.398  0.00  0.00    +0.111 C 
ATOM     10  C   UNL     1      -0.052   2.511  25.540  0.00  0.00    +0.164 C 
ATOM     11  C   UNL     1       0.837   2.327  24.318  0.00  0.00    +0.164 C 
ATOM     12  C   UNL     1      -0.639   4.084  23.895  0.00  0.00    +0.181 C 
ENDROOT
BRANCH  10   4
ATOM      4  O   UNL     1       0.644   2.248  26.743  0.00  0.00    -0.388 OA
ATOM     28  H   UNL     1       0.245   1.468  27.163  0.00  0.00    +0.210 HD
ENDBRANCH  10   4
BRANCH   9   7
ATOM      7  N   UNL     1      -1.633   4.331  26.153  0.00  0.00    -0.305 NA
ATOM     27  H   UNL     1      -1.392   5.057  26.828  0.00  0.00    +0.123 HD
BRANCH   7  14
ATOM     14  C   UNL     1      -2.681   4.834  25.272  0.00  0.00    +0.116 C 
BRANCH  14  15
ATOM      2  F   UNL     1      -6.897   1.139  24.706  0.00  0.00    -0.205 F 
ATOM     15  C   UNL     1      -3.808   3.847  25.121  0.00  0.00    -0.033 A 
ATOM     17  C   UNL     1      -3.960   3.138  23.929  0.00  0.00    +0.008 A 
ATOM     18  C   UNL     1      -4.701   3.640  26.173  0.00  0.00    +0.008 A 
ATOM     21  C   UNL     1      -5.003   2.224  23.788  0.00  0.00    +0.038 A 
ATOM     22  C   UNL     1      -5.745   2.725  26.033  0.00  0.00    +0.038 A 
ATOM     23  C   UNL     1      -5.895   2.018  24.840  0.00  0.00    +0.123 A 
ENDBRANCH  14  15
ENDBRANCH   7  14
ENDBRANCH   9   7
BRANCH  11  13
ATOM     13  C   UNL     1       0.910   0.887  23.841  0.00  0.00    +0.140 C 
BRANCH  13   8
ATOM      8  N   UNL     1      -0.422   0.261  23.950  0.00  0.00    -0.187 NA
ATOM     29  H   UNL     1      -1.210   0.827  23.612  0.00  0.00    +0.148 HD
BRANCH   8   1
ATOM      1  S   UNL     1      -0.720  -0.906  25.150  0.00  0.00    +0.058 S 
ATOM      5  O   UNL     1      -0.923  -0.244  26.425  0.00  0.00    -0.153 OA
ATOM      6  O   UNL     1       0.259  -1.969  25.029  0.00  0.00    -0.153 OA
BRANCH   1  16
ATOM     16  C   UNL     1      -2.273  -1.572  24.630  0.00  0.00    +0.105 A 
ATOM     19  C   UNL     1      -3.325  -0.716  24.304  0.00  0.00    +0.028 A 
ATOM     20  C   UNL     1      -2.446  -2.954  24.543  0.00  0.00    +0.028 A 
ATOM     24  C   UNL     1      -4.550  -1.241  23.893  0.00  0.00    +0.002 A 
ATOM     25  C   UNL     1      -3.670  -3.480  24.132  0.00  0.00    +0.002 A 
ATOM     26  C   UNL     1      -4.722  -2.623  23.808  0.00  0.00    +0.000 A 
ENDBRANCH   1  16
ENDBRANCH   8   1
ENDBRANCH  13   8
ENDBRANCH  11  13
TORSDOF 8
ENDMDL
MODEL 8
REMARK VINA RESULT:      -4.4      3.088      7.044
REMARK  Name = 75536683
REMARK  8 active torsions:
REMARK  status: ('A' for Active; 'I' for Inactive)
REMARK    1  A    between atoms: S_1  and  N_8
REMARK    2  A    between atoms: S_1  and  C_16
REMARK    3  A    between atoms: O_4  and  C_10
REMARK    4  A    between atoms: N_7  and  C_9
REMARK    5  A    between atoms: N_7  and  C_14
REMARK    6  A    between atoms: N_8  and  C_13
REMARK    7  A    between atoms: C_11  and  C_13
REMARK    8  A    between atoms: C_14  and  C_15
REMARK                            x       y       z     vdW  Elec       q    Type
REMARK                         _______ _______ _______ _____ _____    ______ ____
ROOT
ATOM      3  O   UNL     1      -1.156  -1.166  25.845  0.00  0.00    -0.371 OA
ATOM      9  C   UNL     1      -3.509  -0.895  25.677  0.00  0.00    +0.111 C 
ATOM     10  C   UNL     1      -2.963  -1.331  24.330  0.00  0.00    +0.164 C 
ATOM     11  C   UNL     1      -1.633  -1.949  24.739  0.00  0.00    +0.164 C 
ATOM     12  C   UNL     1      -2.250  -0.388  26.361  0.00  0.00    +0.181 C 
ENDROOT
BRANCH  10   4
ATOM      4  O   UNL     1      -3.802  -2.268  23.680  0.00  0.00    -0.388 OA
ATOM     28  H   UNL     1      -3.853  -2.031  22.739  0.00  0.00    +0.210 HD
ENDBRANCH  10   4
BRANCH   9   7
ATOM      7  N   UNL     1      -4.549   0.116  25.585  0.00  0.00    -0.305 NA
ATOM     27  H   UNL     1      -4.507   0.715  26.410  0.00  0.00    +0.123 HD
BRANCH   7  14
ATOM     14  C   UNL     1      -4.375   0.941  24.394  0.00  0.00    +0.116 C 
BRANCH  14  15
ATOM      2  F   UNL     1      -1.357   5.575  25.472  0.00  0.00    -0.205 F 
ATOM     15  C   UNL     1      -3.568   2.179  24.682  0.00  0.00    -0.033 A 
ATOM     17  C   UNL     1      -2.352   2.387  24.031  0.00  0.00    +0.008 A 
ATOM     18  C   UNL     1      -4.036   3.119  25.601  0.00  0.00    +0.008 A 
ATOM     21  C   UNL     1      -1.605   3.533  24.297  0.00  0.00    +0.038 A 
ATOM     22  C   UNL     1      -3.289   4.267  25.868  0.00  0.00    +0.038 A 
ATOM     23  C   UNL     1      -2.073   4.473  25.216  0.00  0.00    +0.123 A 
ENDBRANCH  14  15
ENDBRANCH   7  14
ENDBRANCH   9   7
BRANCH  11  13
ATOM     13  C   UNL     1      -0.602  -1.945  23.624  0.00  0.00    +0.140 C 
BRANCH  13   8
ATOM      8  N   UNL     1       0.548  -1.106  24.016  0.00  0.00    -0.187 NA
ATOM     29  H   UNL     1       0.641  -0.918  25.022  0.00  0.00    +0.148 HD
BRANCH   8   1
ATOM      1  S   UNL     1       1.193   0.022  22.919  0.00  0.00    +0.058 S 
ATOM      5  O   UNL     1       0.796   1.360  23.315  0.00  0.00    -0.153 OA
ATOM      6  O   UNL     1       0.948  -0.441  21.567  0.00  0.00    -0.153 OA
BRANCH   1  16
ATOM     16  C   UNL     1       2.929  -0.140  23.214  0.00  0.00    +0.105 A 
ATOM     19  C   UNL     1       3.783   0.933  22.959  0.00  0.00    +0.028 A 
ATOM     20  C   UNL     1       3.444  -1.341  23.703  0.00  0.00    +0.028 A 
ATOM     24  C   UNL     1       5.152   0.805  23.192  0.00  0.00    +0.002 A 
ATOM     25  C   UNL     1       4.813  -1.469  23.936  0.00  0.00    +0.002 A 
ATOM     26  C   UNL     1       5.667  -0.396  23.680  0.00  0.00    +0.000 A 
ENDBRANCH   1  16
ENDBRANCH   8   1
ENDBRANCH  13   8
ENDBRANCH  11  13
TORSDOF 8
ENDMDL
MODEL 9
REMARK VINA RESULT:      -4.2      2.898      6.931
REMARK  Name = 75536683
REMARK  8 active torsions:
REMARK  status: ('A' for Active; 'I' for Inactive)
REMARK    1  A    between atoms: S_1  and  N_8
REMARK    2  A    between atoms: S_1  and  C_16
REMARK    3  A    between atoms: O_4  and  C_10
REMARK    4  A    between atoms: N_7  and  C_9
REMARK    5  A    between atoms: N_7  and  C_14
REMARK    6  A    between atoms: N_8  and  C_13
REMARK    7  A    between atoms: C_11  and  C_13
REMARK    8  A    between atoms: C_14  and  C_15
REMARK                            x       y       z     vdW  Elec       q    Type
REMARK                         _______ _______ _______ _____ _____    ______ ____
ROOT
ATOM      3  O   UNL     1      -0.411   3.124  25.778  0.00  0.00    -0.371 OA
ATOM      9  C   UNL     1      -2.510   2.265  25.076  0.00  0.00    +0.111 C 
ATOM     10  C   UNL     1      -1.425   1.731  24.159  0.00  0.00    +0.164 C 
ATOM     11  C   UNL     1      -0.189   1.918  25.028  0.00  0.00    +0.164 C 
ATOM     12  C   UNL     1      -1.809   3.454  25.710  0.00  0.00    +0.181 C 
ENDROOT
BRANCH  10   4
ATOM      4  O   UNL     1      -1.624   0.373  23.811  0.00  0.00    -0.388 OA
ATOM     28  H   UNL     1      -2.554   0.148  23.979  0.00  0.00    +0.210 HD
ENDBRANCH  10   4
BRANCH   9   7
ATOM      7  N   UNL     1      -3.732   2.633  24.379  0.00  0.00    -0.305 NA
ATOM     27  H   UNL     1      -3.585   2.535  23.374  0.00  0.00    +0.123 HD
BRANCH   7  14
ATOM     14  C   UNL     1      -4.843   1.777  24.779  0.00  0.00    +0.116 C 
BRANCH  14  15
ATOM      2  F   UNL     1      -3.325  -3.642  25.063  0.00  0.00    -0.205 F 
ATOM     15  C   UNL     1      -4.437   0.329  24.855  0.00  0.00    -0.033 A 
ATOM     17  C   UNL     1      -3.892  -0.182  26.033  0.00  0.00    +0.008 A 
ATOM     18  C   UNL     1      -4.606  -0.502  23.747  0.00  0.00    +0.008 A 
ATOM     21  C   UNL     1      -3.516  -1.522  26.104  0.00  0.00    +0.038 A 
ATOM     22  C   UNL     1      -4.230  -1.844  23.818  0.00  0.00    +0.038 A 
ATOM     23  C   UNL     1      -3.685  -2.354  24.996  0.00  0.00    +0.123 A 
ENDBRANCH  14  15
ENDBRANCH   7  14
ENDBRANCH   9   7
BRANCH  11  13
ATOM     13  C   UNL     1       1.095   2.041  24.226  0.00  0.00    +0.140 C 
BRANCH  13   8
ATOM      8  N   UNL     1       0.911   1.423  22.899  0.00  0.00    -0.187 NA
ATOM     29  H   UNL     1       0.167   1.826  22.318  0.00  0.00    +0.148 HD
BRANCH   8   1
ATOM      1  S   UNL     1       1.341  -0.204  22.650  0.00  0.00    +0.058 S 
ATOM      5  O   UNL     1       1.242  -0.517  21.237  0.00  0.00    -0.153 OA
ATOM      6  O   UNL     1       0.656  -1.028  23.628  0.00  0.00    -0.153 OA
BRANCH   1  16
ATOM     16  C   UNL     1       3.054  -0.197  23.089  0.00  0.00    +0.105 A 
ATOM     19  C   UNL     1       3.630  -1.327  23.668  0.00  0.00    +0.028 A 
ATOM     20  C   UNL     1       3.829   0.939  22.854  0.00  0.00    +0.028 A 
ATOM     24  C   UNL     1       4.981  -1.322  24.014  0.00  0.00    +0.002 A 
ATOM     25  C   UNL     1       5.180   0.945  23.199  0.00  0.00    +0.002 A 
ATOM     26  C   UNL     1       5.755  -0.186  23.779  0.00  0.00    +0.000 A 
ENDBRANCH   1  16
ENDBRANCH   8   1
ENDBRANCH  13   8
ENDBRANCH  11  13
TORSDOF 8
ENDMDL
MODEL 10
REMARK VINA RESULT:      -3.6      3.548      5.734
REMARK  Name = 75536683
REMARK  8 active torsions:
REMARK  status: ('A' for Active; 'I' for Inactive)
REMARK    1  A    between atoms: S_1  and  N_8
REMARK    2  A    between atoms: S_1  and  C_16
REMARK    3  A    between atoms: O_4  and  C_10
REMARK    4  A    between atoms: N_7  and  C_9
REMARK    5  A    between atoms: N_7  and  C_14
REMARK    6  A    between atoms: N_8  and  C_13
REMARK    7  A    between atoms: C_11  and  C_13
REMARK    8  A    between atoms: C_14  and  C_15
REMARK                            x       y       z     vdW  Elec       q    Type
REMARK                         _______ _______ _______ _____ _____    ______ ____
ROOT
ATOM      3  O   UNL     1       0.681   0.716  22.791  0.00  0.00    -0.371 OA
ATOM      9  C   UNL     1      -0.219  -0.762  24.418  0.00  0.00    +0.111 C 
ATOM     10  C   UNL     1      -0.189   0.644  24.989  0.00  0.00    +0.164 C 
ATOM     11  C   UNL     1      -0.114   1.476  23.716  0.00  0.00    +0.164 C 
ATOM     12  C   UNL     1       0.764  -0.639  23.266  0.00  0.00    +0.181 C 
ENDROOT
BRANCH  10   4
ATOM      4  O   UNL     1      -1.342   0.949  25.751  0.00  0.00    -0.388 OA
ATOM     28  H   UNL     1      -1.566   0.172  26.290  0.00  0.00    +0.210 HD
ENDBRANCH  10   4
BRANCH   9   7
ATOM      7  N   UNL     1       0.156  -1.788  25.377  0.00  0.00    -0.305 NA
ATOM     27  H   UNL     1       0.342  -1.349  26.279  0.00  0.00    +0.123 HD
BRANCH   7  14
ATOM     14  C   UNL     1      -0.910  -2.769  25.540  0.00  0.00    +0.116 C 
BRANCH  14  15
ATOM      2  F   UNL     1      -5.934  -0.674  24.086  0.00  0.00    -0.205 F 
ATOM     15  C   UNL     1      -2.253  -2.210  25.152  0.00  0.00    -0.033 A 
ATOM     17  C   UNL     1      -2.857  -1.233  25.944  0.00  0.00    +0.008 A 
ATOM     18  C   UNL     1      -2.893  -2.667  24.000  0.00  0.00    +0.008 A 
ATOM     21  C   UNL     1      -4.100  -0.715  25.585  0.00  0.00    +0.038 A 
ATOM     22  C   UNL     1      -4.137  -2.148  23.640  0.00  0.00    +0.038 A 
ATOM     23  C   UNL     1      -4.741  -1.172  24.433  0.00  0.00    +0.123 A 
ENDBRANCH  14  15
ENDBRANCH   7  14
ENDBRANCH   9   7
BRANCH  11  13
ATOM     13  C   UNL     1       0.511   2.843  23.927  0.00  0.00    +0.140 C 
BRANCH  13   8
ATOM      8  N   UNL     1      -0.533   3.883  23.848  0.00  0.00    -0.187 NA
ATOM     29  H   UNL     1      -0.435   4.556  23.077  0.00  0.00    +0.148 HD
BRANCH   8   1
ATOM      1  S   UNL     1      -1.353   4.377  25.254  0.00  0.00    +0.058 S 
ATOM      5  O   UNL     1      -1.517   5.818  25.234  0.00  0.00    -0.153 OA
ATOM      6  O   UNL     1      -0.754   3.727  26.403  0.00  0.00    -0.153 OA
BRANCH   1  16
ATOM     16  C   UNL     1      -2.946   3.645  25.018  0.00  0.00    +0.105 A 
ATOM     19  C   UNL     1      -3.241   2.986  23.825  0.00  0.00    +0.028 A 
ATOM     20  C   UNL     1      -3.906   3.725  26.027  0.00  0.00    +0.028 A 
ATOM     24  C   UNL     1      -4.497   2.408  23.640  0.00  0.00    +0.002 A 
ATOM     25  C   UNL     1      -5.162   3.148  25.843  0.00  0.00    +0.002 A 
ATOM     26  C   UNL     1      -5.457   2.490  24.649  0.00  0.00    +0.000 A 
ENDBRANCH   1  16
ENDBRANCH   8   1
ENDBRANCH  13   8
ENDBRANCH  11  13
TORSDOF 8
ENDMDL
