MODEL 1
REMARK VINA RESULT:      -5.7      0.000      0.000
REMARK  Name = 26743556
REMARK  5 active torsions:
REMARK  status: ('A' for Active; 'I' for Inactive)
REMARK    1  A    between atoms: O_2  and  C_9
REMARK    2  A    between atoms: N_4  and  C_11
REMARK    3  A    between atoms: C_7  and  C_12
REMARK    4  A    between atoms: C_11  and  C_13
REMARK    5  A    between atoms: C_16  and  C_19
REMARK                            x       y       z     vdW  Elec       q    Type
REMARK                         _______ _______ _______ _____ _____    ______ ____
ROOT
ATOM      4  N   UNL     1      -4.830   1.666  25.275  0.00  0.00    -0.285 NA
ATOM      7  C   UNL     1      -4.083   2.498  24.309  0.00  0.00    +0.149 C 
ATOM      8  C   UNL     1      -4.442   3.949  24.679  0.00  0.00    +0.061 C 
ATOM      9  C   UNL     1      -5.431   3.828  25.832  0.00  0.00    +0.130 C 
ATOM     10  C   UNL     1      -6.010   2.437  25.660  0.00  0.00    +0.116 C 
ENDROOT
BRANCH   7  12
ATOM      3  O   UNL     1      -1.914   2.747  25.407  0.00  0.00    -0.336 OA
ATOM      5  N   UNL     1      -1.842   1.586  23.493  0.00  0.00    -0.190 NA
ATOM      6  N   UNL     1      -0.574   2.383  25.223  0.00  0.00    -0.056 NA
ATOM     12  C   UNL     1      -2.591   2.237  24.345  0.00  0.00    +0.245 A 
ATOM     16  C   UNL     1      -0.612   1.702  24.073  0.00  0.00    +0.202 A 
BRANCH  16  19
ATOM     19  C   UNL     1       0.560   1.124  23.480  0.00  0.00    +0.022 A 
ATOM     21  C   UNL     1       0.455  -0.053  22.739  0.00  0.00    +0.012 A 
ATOM     22  C   UNL     1       1.801   1.738  23.643  0.00  0.00    +0.012 A 
ATOM     23  C   UNL     1       1.593  -0.617  22.162  0.00  0.00    +0.001 A 
ATOM     24  C   UNL     1       2.938   1.174  23.067  0.00  0.00    +0.001 A 
ATOM     25  C   UNL     1       2.835  -0.002  22.326  0.00  0.00    +0.000 A 
ENDBRANCH  16  19
ENDBRANCH   7  12
BRANCH   9   2
ATOM      2  O   UNL     1      -6.428   4.827  25.744  0.00  0.00    -0.390 OA
ATOM     26  H   UNL     1      -6.914   4.831  26.587  0.00  0.00    +0.210 HD
ENDBRANCH   9   2
BRANCH   4  11
ATOM     11  C   UNL     1      -5.180   0.353  24.750  0.00  0.00    +0.120 C 
BRANCH  11  13
ATOM      1  F   UNL     1      -0.871  -3.262  25.100  0.00  0.00    -0.205 F 
ATOM     13  C   UNL     1      -4.029  -0.613  24.843  0.00  0.00    -0.033 A 
ATOM     14  C   UNL     1      -3.056  -0.446  25.829  0.00  0.00    +0.008 A 
ATOM     15  C   UNL     1      -3.934  -1.675  23.944  0.00  0.00    +0.008 A 
ATOM     17  C   UNL     1      -1.990  -1.340  25.916  0.00  0.00    +0.038 A 
ATOM     18  C   UNL     1      -2.868  -2.569  24.030  0.00  0.00    +0.038 A 
ATOM     20  C   UNL     1      -1.895  -2.402  25.016  0.00  0.00    +0.123 A 
ENDBRANCH  11  13
ENDBRANCH   4  11
TORSDOF 5
ENDMDL
MODEL 2
REMARK VINA RESULT:      -4.7      1.948      2.988
REMARK  Name = 26743556
REMARK  5 active torsions:
REMARK  status: ('A' for Active; 'I' for Inactive)
REMARK    1  A    between atoms: O_2  and  C_9
REMARK    2  A    between atoms: N_4  and  C_11
REMARK    3  A    between atoms: C_7  and  C_12
REMARK    4  A    between atoms: C_11  and  C_13
REMARK    5  A    between atoms: C_16  and  C_19
REMARK                            x       y       z     vdW  Elec       q    Type
REMARK                         _______ _______ _______ _____ _____    ______ ____
ROOT
ATOM      4  N   UNL     1      -2.461   2.293  24.577  0.00  0.00    -0.285 NA
ATOM      7  C   UNL     1      -1.386   2.724  23.661  0.00  0.00    +0.149 C 
ATOM      8  C   UNL     1      -0.847   4.030  24.272  0.00  0.00    +0.061 C 
ATOM      9  C   UNL     1      -1.712   4.276  25.503  0.00  0.00    +0.130 C 
ATOM     10  C   UNL     1      -2.984   3.507  25.202  0.00  0.00    +0.116 C 
ENDROOT
BRANCH   7  12
ATOM      3  O   UNL     1      -0.728   0.435  23.111  0.00  0.00    -0.336 OA
ATOM      5  N   UNL     1       0.985   1.773  23.653  0.00  0.00    -0.190 NA
ATOM      6  N   UNL     1       0.427  -0.353  23.019  0.00  0.00    -0.056 NA
ATOM     12  C   UNL     1      -0.310   1.671  23.489  0.00  0.00    +0.245 A 
ATOM     16  C   UNL     1       1.394   0.506  23.355  0.00  0.00    +0.202 A 
BRANCH  16  19
ATOM     19  C   UNL     1       2.778   0.131  23.398  0.00  0.00    +0.022 A 
ATOM     21  C   UNL     1       3.764   1.078  23.121  0.00  0.00    +0.012 A 
ATOM     22  C   UNL     1       3.137  -1.178  23.717  0.00  0.00    +0.012 A 
ATOM     23  C   UNL     1       5.111   0.714  23.162  0.00  0.00    +0.001 A 
ATOM     24  C   UNL     1       4.483  -1.542  23.758  0.00  0.00    +0.001 A 
ATOM     25  C   UNL     1       5.469  -0.596  23.481  0.00  0.00    +0.000 A 
ENDBRANCH  16  19
ENDBRANCH   7  12
BRANCH   9   2
ATOM      2  O   UNL     1      -1.961   5.658  25.673  0.00  0.00    -0.390 OA
ATOM     26  H   UNL     1      -1.416   6.135  25.025  0.00  0.00    +0.210 HD
ENDBRANCH   9   2
BRANCH   4  11
ATOM     11  C   UNL     1      -3.506   1.523  23.915  0.00  0.00    +0.120 C 
BRANCH  11  13
ATOM      1  F   UNL     1      -3.537  -3.853  25.601  0.00  0.00    -0.205 F 
ATOM     13  C   UNL     1      -3.514   0.087  24.365  0.00  0.00    -0.033 A 
ATOM     14  C   UNL     1      -4.031  -0.904  23.530  0.00  0.00    +0.008 A 
ATOM     15  C   UNL     1      -3.006  -0.254  25.618  0.00  0.00    +0.008 A 
ATOM     17  C   UNL     1      -4.039  -2.234  23.947  0.00  0.00    +0.038 A 
ATOM     18  C   UNL     1      -3.014  -1.584  26.036  0.00  0.00    +0.038 A 
ATOM     20  C   UNL     1      -3.531  -2.575  25.201  0.00  0.00    +0.123 A 
ENDBRANCH  11  13
ENDBRANCH   4  11
TORSDOF 5
ENDMDL
MODEL 3
REMARK VINA RESULT:      -3.7      2.039      5.880
REMARK  Name = 26743556
REMARK  5 active torsions:
REMARK  status: ('A' for Active; 'I' for Inactive)
REMARK    1  A    between atoms: O_2  and  C_9
REMARK    2  A    between atoms: N_4  and  C_11
REMARK    3  A    between atoms: C_7  and  C_12
REMARK    4  A    between atoms: C_11  and  C_13
REMARK    5  A    between atoms: C_16  and  C_19
REMARK                            x       y       z     vdW  Elec       q    Type
REMARK                         _______ _______ _______ _____ _____    ______ ____
ROOT
ATOM      4  N   UNL     1       0.223  -0.205  23.878  0.00  0.00    -0.285 NA
ATOM      7  C   UNL     1       0.580   1.083  24.509  0.00  0.00    +0.149 C 
ATOM      8  C   UNL     1       1.683   1.670  23.608  0.00  0.00    +0.061 C 
ATOM      9  C   UNL     1       1.909   0.621  22.526  0.00  0.00    +0.130 C 
ATOM     10  C   UNL     1       1.416  -0.663  23.167  0.00  0.00    +0.116 C 
ENDROOT
BRANCH   7  12
ATOM      3  O   UNL     1      -0.365   3.336  24.503  0.00  0.00    -0.336 OA
ATOM      5  N   UNL     1      -1.859   1.720  24.917  0.00  0.00    -0.190 NA
ATOM      6  N   UNL     1      -1.596   3.980  24.683  0.00  0.00    -0.056 NA
ATOM     12  C   UNL     1      -0.609   2.009  24.657  0.00  0.00    +0.245 A 
ATOM     16  C   UNL     1      -2.426   2.960  24.924  0.00  0.00    +0.202 A 
BRANCH  16  19
ATOM     19  C   UNL     1      -3.827   3.148  25.172  0.00  0.00    +0.022 A 
ATOM     21  C   UNL     1      -4.675   2.043  25.242  0.00  0.00    +0.012 A 
ATOM     22  C   UNL     1      -4.340   4.434  25.343  0.00  0.00    +0.012 A 
ATOM     23  C   UNL     1      -6.037   2.224  25.483  0.00  0.00    +0.001 A 
ATOM     24  C   UNL     1      -5.701   4.614  25.583  0.00  0.00    +0.001 A 
ATOM     25  C   UNL     1      -6.550   3.510  25.654  0.00  0.00    +0.000 A 
ENDBRANCH  16  19
ENDBRANCH   7  12
BRANCH   9   2
ATOM      2  O   UNL     1       3.278   0.543  22.181  0.00  0.00    -0.390 OA
ATOM     26  H   UNL     1       3.332   0.480  21.212  0.00  0.00    +0.210 HD
ENDBRANCH   9   2
BRANCH   4  11
ATOM     11  C   UNL     1      -0.262  -1.195  24.830  0.00  0.00    +0.120 C 
BRANCH  11  13
ATOM      1  F   UNL     1      -5.520  -2.842  23.646  0.00  0.00    -0.205 F 
ATOM     13  C   UNL     1      -1.666  -1.635  24.514  0.00  0.00    -0.033 A 
ATOM     14  C   UNL     1      -2.606  -0.705  24.069  0.00  0.00    +0.008 A 
ATOM     15  C   UNL     1      -2.029  -2.974  24.666  0.00  0.00    +0.008 A 
ATOM     17  C   UNL     1      -3.907  -1.112  23.776  0.00  0.00    +0.038 A 
ATOM     18  C   UNL     1      -3.330  -3.381  24.373  0.00  0.00    +0.038 A 
ATOM     20  C   UNL     1      -4.270  -2.450  23.929  0.00  0.00    +0.123 A 
ENDBRANCH  11  13
ENDBRANCH   4  11
TORSDOF 5
ENDMDL
MODEL 4
REMARK VINA RESULT:      -3.5      3.030      4.766
REMARK  Name = 26743556
REMARK  5 active torsions:
REMARK  status: ('A' for Active; 'I' for Inactive)
REMARK    1  A    between atoms: O_2  and  C_9
REMARK    2  A    between atoms: N_4  and  C_11
REMARK    3  A    between atoms: C_7  and  C_12
REMARK    4  A    between atoms: C_11  and  C_13
REMARK    5  A    between atoms: C_16  and  C_19
REMARK                            x       y       z     vdW  Elec       q    Type
REMARK                         _______ _______ _______ _____ _____    ______ ____
ROOT
ATOM      4  N   UNL     1      -2.842  -0.189  24.770  0.00  0.00    -0.285 NA
ATOM      7  C   UNL     1      -1.795  -1.230  24.708  0.00  0.00    +0.149 C 
ATOM      8  C   UNL     1      -2.443  -2.394  23.936  0.00  0.00    +0.061 C 
ATOM      9  C   UNL     1      -3.866  -1.933  23.647  0.00  0.00    +0.130 C 
ATOM     10  C   UNL     1      -4.125  -0.888  24.716  0.00  0.00    +0.116 C 
ENDROOT
BRANCH   7  12
ATOM      3  O   UNL     1      -0.665   0.098  22.996  0.00  0.00    -0.336 OA
ATOM      5  N   UNL     1       0.725  -0.995  24.371  0.00  0.00    -0.190 NA
ATOM      6  N   UNL     1       0.632   0.415  22.572  0.00  0.00    -0.056 NA
ATOM     12  C   UNL     1      -0.519  -0.735  24.059  0.00  0.00    +0.245 A 
ATOM     16  C   UNL     1       1.395  -0.268  23.431  0.00  0.00    +0.202 A 
BRANCH  16  19
ATOM     19  C   UNL     1       2.829  -0.241  23.378  0.00  0.00    +0.022 A 
ATOM     21  C   UNL     1       3.562  -1.334  23.843  0.00  0.00    +0.012 A 
ATOM     22  C   UNL     1       3.488   0.874  22.864  0.00  0.00    +0.012 A 
ATOM     23  C   UNL     1       4.956  -1.309  23.793  0.00  0.00    +0.001 A 
ATOM     24  C   UNL     1       4.882   0.898  22.814  0.00  0.00    +0.001 A 
ATOM     25  C   UNL     1       5.615  -0.193  23.278  0.00  0.00    +0.000 A 
ENDBRANCH  16  19
ENDBRANCH   7  12
BRANCH   9   2
ATOM      2  O   UNL     1      -4.773  -3.014  23.739  0.00  0.00    -0.390 OA
ATOM     26  H   UNL     1      -4.901  -3.366  22.842  0.00  0.00    +0.210 HD
ENDBRANCH   9   2
BRANCH   4  11
ATOM     11  C   UNL     1      -2.732   0.666  25.945  0.00  0.00    +0.120 C 
BRANCH  11  13
ATOM      1  F   UNL     1      -0.537   5.698  24.677  0.00  0.00    -0.205 F 
ATOM     13  C   UNL     1      -2.146   2.010  25.606  0.00  0.00    -0.033 A 
ATOM     14  C   UNL     1      -0.772   2.223  25.728  0.00  0.00    +0.008 A 
ATOM     15  C   UNL     1      -2.975   3.043  25.171  0.00  0.00    +0.008 A 
ATOM     17  C   UNL     1      -0.229   3.468  25.415  0.00  0.00    +0.038 A 
ATOM     18  C   UNL     1      -2.432   4.289  24.857  0.00  0.00    +0.038 A 
ATOM     20  C   UNL     1      -1.059   4.502  24.979  0.00  0.00    +0.123 A 
ENDBRANCH  11  13
ENDBRANCH   4  11
TORSDOF 5
ENDMDL
MODEL 5
REMARK VINA RESULT:      -3.4      2.215      3.307
REMARK  Name = 26743556
REMARK  5 active torsions:
REMARK  status: ('A' for Active; 'I' for Inactive)
REMARK    1  A    between atoms: O_2  and  C_9
REMARK    2  A    between atoms: N_4  and  C_11
REMARK    3  A    between atoms: C_7  and  C_12
REMARK    4  A    between atoms: C_11  and  C_13
REMARK    5  A    between atoms: C_16  and  C_19
REMARK                            x       y       z     vdW  Elec       q    Type
REMARK                         _______ _______ _______ _____ _____    ______ ____
ROOT
ATOM      4  N   UNL     1      -1.378   1.352  25.393  0.00  0.00    -0.285 NA
ATOM      7  C   UNL     1      -1.361   1.145  23.930  0.00  0.00    +0.149 C 
ATOM      8  C   UNL     1      -1.739   2.514  23.335  0.00  0.00    +0.061 C 
ATOM      9  C   UNL     1      -1.994   3.411  24.540  0.00  0.00    +0.130 C 
ATOM     10  C   UNL     1      -2.329   2.431  25.648  0.00  0.00    +0.116 C 
ENDROOT
BRANCH   7  12
ATOM      3  O   UNL     1      -0.025   0.044  22.205  0.00  0.00    -0.336 OA
ATOM      5  N   UNL     1       1.149   0.682  24.003  0.00  0.00    -0.190 NA
ATOM      6  N   UNL     1       1.300  -0.338  21.961  0.00  0.00    -0.056 NA
ATOM     12  C   UNL     1      -0.026   0.637  23.427  0.00  0.00    +0.245 A 
ATOM     16  C   UNL     1       1.930   0.072  23.066  0.00  0.00    +0.202 A 
BRANCH  16  19
ATOM     19  C   UNL     1       3.340  -0.111  23.263  0.00  0.00    +0.022 A 
ATOM     21  C   UNL     1       3.824  -1.333  23.733  0.00  0.00    +0.012 A 
ATOM     22  C   UNL     1       4.225   0.930  22.985  0.00  0.00    +0.012 A 
ATOM     23  C   UNL     1       5.194  -1.512  23.925  0.00  0.00    +0.001 A 
ATOM     24  C   UNL     1       5.595   0.750  23.177  0.00  0.00    +0.001 A 
ATOM     25  C   UNL     1       6.079  -0.471  23.646  0.00  0.00    +0.000 A 
ENDBRANCH  16  19
ENDBRANCH   7  12
BRANCH   9   2
ATOM      2  O   UNL     1      -3.062   4.303  24.286  0.00  0.00    -0.390 OA
ATOM     26  H   UNL     1      -2.709   5.207  24.347  0.00  0.00    +0.210 HD
ENDBRANCH   9   2
BRANCH   4  11
ATOM     11  C   UNL     1      -1.705   0.144  26.139  0.00  0.00    +0.120 C 
BRANCH  11  13
ATOM      1  F   UNL     1      -4.983  -3.339  23.159  0.00  0.00    -0.205 F 
ATOM     13  C   UNL     1      -2.581  -0.786  25.343  0.00  0.00    -0.033 A 
ATOM     14  C   UNL     1      -3.839  -0.364  24.914  0.00  0.00    +0.008 A 
ATOM     15  C   UNL     1      -2.134  -2.071  25.035  0.00  0.00    +0.008 A 
ATOM     17  C   UNL     1      -4.650  -1.226  24.177  0.00  0.00    +0.038 A 
ATOM     18  C   UNL     1      -2.945  -2.933  24.297  0.00  0.00    +0.038 A 
ATOM     20  C   UNL     1      -4.204  -2.511  23.868  0.00  0.00    +0.123 A 
ENDBRANCH  11  13
ENDBRANCH   4  11
TORSDOF 5
ENDMDL
MODEL 6
REMARK VINA RESULT:      -3.3      2.788      3.547
REMARK  Name = 26743556
REMARK  5 active torsions:
REMARK  status: ('A' for Active; 'I' for Inactive)
REMARK    1  A    between atoms: O_2  and  C_9
REMARK    2  A    between atoms: N_4  and  C_11
REMARK    3  A    between atoms: C_7  and  C_12
REMARK    4  A    between atoms: C_11  and  C_13
REMARK    5  A    between atoms: C_16  and  C_19
REMARK                            x       y       z     vdW  Elec       q    Type
REMARK                         _______ _______ _______ _____ _____    ______ ____
ROOT
ATOM      4  N   UNL     1      -3.959   1.970  24.745  0.00  0.00    -0.285 NA
ATOM      7  C   UNL     1      -3.123   3.187  24.687  0.00  0.00    +0.149 C 
ATOM      8  C   UNL     1      -3.948   4.266  25.413  0.00  0.00    +0.061 C 
ATOM      9  C   UNL     1      -5.249   3.573  25.801  0.00  0.00    +0.130 C 
ATOM     10  C   UNL     1      -5.347   2.424  24.816  0.00  0.00    +0.116 C 
ENDROOT
BRANCH   7  12
ATOM      3  O   UNL     1      -0.735   2.728  24.442  0.00  0.00    -0.336 OA
ATOM      5  N   UNL     1      -1.398   3.015  26.563  0.00  0.00    -0.190 NA
ATOM      6  N   UNL     1       0.412   2.578  25.233  0.00  0.00    -0.056 NA
ATOM     12  C   UNL     1      -1.755   2.983  25.303  0.00  0.00    +0.245 A 
ATOM     16  C   UNL     1      -0.061   2.760  26.470  0.00  0.00    +0.202 A 
BRANCH  16  19
ATOM     19  C   UNL     1       0.777   2.698  27.633  0.00  0.00    +0.022 A 
ATOM     21  C   UNL     1       2.129   3.027  27.533  0.00  0.00    +0.012 A 
ATOM     22  C   UNL     1       0.242   2.308  28.860  0.00  0.00    +0.012 A 
ATOM     23  C   UNL     1       2.946   2.966  28.663  0.00  0.00    +0.001 A 
ATOM     24  C   UNL     1       1.059   2.247  29.989  0.00  0.00    +0.001 A 
ATOM     25  C   UNL     1       2.410   2.577  29.890  0.00  0.00    +0.000 A 
ENDBRANCH  16  19
ENDBRANCH   7  12
BRANCH   9   2
ATOM      2  O   UNL     1      -6.344   4.461  25.684  0.00  0.00    -0.390 OA
ATOM     26  H   UNL     1      -6.521   4.826  26.567  0.00  0.00    +0.210 HD
ENDBRANCH   9   2
BRANCH   4  11
ATOM     11  C   UNL     1      -3.735   1.066  23.624  0.00  0.00    +0.120 C 
BRANCH  11  13
ATOM      1  F   UNL     1      -1.191  -3.693  25.248  0.00  0.00    -0.205 F 
ATOM     13  C   UNL     1      -3.055  -0.205  24.058  0.00  0.00    -0.033 A 
ATOM     14  C   UNL     1      -3.807  -1.362  24.267  0.00  0.00    +0.008 A 
ATOM     15  C   UNL     1      -1.674  -0.227  24.252  0.00  0.00    +0.008 A 
ATOM     17  C   UNL     1      -3.177  -2.540  24.669  0.00  0.00    +0.038 A 
ATOM     18  C   UNL     1      -1.045  -1.405  24.654  0.00  0.00    +0.038 A 
ATOM     20  C   UNL     1      -1.796  -2.561  24.863  0.00  0.00    +0.123 A 
ENDBRANCH  11  13
ENDBRANCH   4  11
TORSDOF 5
ENDMDL
MODEL 7
REMARK VINA RESULT:      -2.3      3.102      4.871
REMARK  Name = 26743556
REMARK  5 active torsions:
REMARK  status: ('A' for Active; 'I' for Inactive)
REMARK    1  A    between atoms: O_2  and  C_9
REMARK    2  A    between atoms: N_4  and  C_11
REMARK    3  A    between atoms: C_7  and  C_12
REMARK    4  A    between atoms: C_11  and  C_13
REMARK    5  A    between atoms: C_16  and  C_19
REMARK                            x       y       z     vdW  Elec       q    Type
REMARK                         _______ _______ _______ _____ _____    ______ ____
ROOT
ATOM      4  N   UNL     1      -2.747  -0.133  24.612  0.00  0.00    -0.285 NA
ATOM      7  C   UNL     1      -1.719  -1.194  24.657  0.00  0.00    +0.149 C 
ATOM      8  C   UNL     1      -2.384  -2.415  23.994  0.00  0.00    +0.061 C 
ATOM      9  C   UNL     1      -3.797  -1.957  23.652  0.00  0.00    +0.130 C 
ATOM     10  C   UNL     1      -4.042  -0.811  24.615  0.00  0.00    +0.116 C 
ENDROOT
BRANCH   7  12
ATOM      3  O   UNL     1      -0.552  -0.196  22.756  0.00  0.00    -0.336 OA
ATOM      5  N   UNL     1       0.805  -0.923  24.384  0.00  0.00    -0.190 NA
ATOM      6  N   UNL     1       0.753   0.085  22.330  0.00  0.00    -0.056 NA
ATOM     12  C   UNL     1      -0.431  -0.787  23.973  0.00  0.00    +0.245 A 
ATOM     16  C   UNL     1       1.495  -0.375  23.342  0.00  0.00    +0.202 A 
BRANCH  16  19
ATOM     19  C   UNL     1       2.928  -0.297  23.345  0.00  0.00    +0.022 A 
ATOM     21  C   UNL     1       3.682  -1.369  23.823  0.00  0.00    +0.012 A 
ATOM     22  C   UNL     1       3.567   0.848  22.870  0.00  0.00    +0.012 A 
ATOM     23  C   UNL     1       5.075  -1.294  23.827  0.00  0.00    +0.001 A 
ATOM     24  C   UNL     1       4.959   0.922  22.873  0.00  0.00    +0.001 A 
ATOM     25  C   UNL     1       5.713  -0.149  23.351  0.00  0.00    +0.000 A 
ENDBRANCH  16  19
ENDBRANCH   7  12
BRANCH   9   2
ATOM      2  O   UNL     1      -4.724  -3.008  23.840  0.00  0.00    -0.390 OA
ATOM     26  H   UNL     1      -4.634  -3.616  23.086  0.00  0.00    +0.210 HD
ENDBRANCH   9   2
BRANCH   4  11
ATOM     11  C   UNL     1      -2.627   0.828  25.700  0.00  0.00    +0.120 C 
BRANCH  11  13
ATOM      1  F   UNL     1      -6.431   4.963  25.272  0.00  0.00    -0.205 F 
ATOM     13  C   UNL     1      -3.644   1.932  25.586  0.00  0.00    -0.033 A 
ATOM     14  C   UNL     1      -3.224   3.258  25.467  0.00  0.00    +0.008 A 
ATOM     15  C   UNL     1      -5.006   1.631  25.599  0.00  0.00    +0.008 A 
ATOM     17  C   UNL     1      -4.165   4.281  25.362  0.00  0.00    +0.038 A 
ATOM     18  C   UNL     1      -5.947   2.655  25.494  0.00  0.00    +0.038 A 
ATOM     20  C   UNL     1      -5.527   3.980  25.375  0.00  0.00    +0.123 A 
ENDBRANCH  11  13
ENDBRANCH   4  11
TORSDOF 5
ENDMDL
