MODEL 1
REMARK VINA RESULT:       5.7      0.000      0.000
REMARK  Name = 11879855
REMARK  10 active torsions:
REMARK  status: ('A' for Active; 'I' for Inactive)
REMARK    1  A    between atoms: S_1  and  N_11
REMARK    2  A    between atoms: S_1  and  C_25
REMARK    3  A    between atoms: O_6  and  C_29
REMARK    4  A    between atoms: O_6  and  C_33
REMARK    5  A    between atoms: O_7  and  C_30
REMARK    6  A    between atoms: O_7  and  C_34
REMARK    7  A    between atoms: N_10  and  C_24
REMARK    8  A    between atoms: N_11  and  C_22
REMARK    9  A    between atoms: C_25  and  C_26
REMARK   10  A    between atoms: C_26  and  C_31
REMARK                            x       y       z     vdW  Elec       q    Type
REMARK                         _______ _______ _______ _____ _____    ______ ____
ROOT
ATOM      2  O   UNL     1      -0.096   2.398  26.717  0.00  0.00    -0.266 OA
ATOM      3  O   UNL     1      -4.887   0.718  26.471  0.00  0.00    -0.252 OA
ATOM      8  N   UNL     1      -4.766   2.512  25.018  0.00  0.00    -0.284 N 
ATOM      9  N   UNL     1      -1.719   3.256  25.261  0.00  0.00    -0.310 N 
ATOM     10  N   UNL     1      -4.586   0.306  24.206  0.00  0.00    -0.269 N 
ATOM     12  C   UNL     1      -3.783   4.536  26.071  0.00  0.00    +0.027 C 
ATOM     13  C   UNL     1      -3.464   4.124  23.661  0.00  0.00    +0.054 C 
ATOM     14  C   UNL     1      -3.720   5.213  24.705  0.00  0.00    +0.018 C 
ATOM     15  C   UNL     1      -4.908   3.483  26.106  0.00  0.00    +0.114 C 
ATOM     16  C   UNL     1      -2.410   3.924  26.374  0.00  0.00    +0.130 C 
ATOM     17  C   UNL     1      -4.632   3.120  23.683  0.00  0.00    +0.119 C 
ATOM     18  C   UNL     1      -2.158   3.402  23.937  0.00  0.00    +0.027 A 
ATOM     19  C   UNL     1      -1.450   2.874  22.921  0.00  0.00    +0.024 A 
ATOM     20  C   UNL     1      -0.541   2.546  25.580  0.00  0.00    +0.274 A 
ATOM     21  C   UNL     1      -4.769   1.132  25.314  0.00  0.00    +0.306 C 
ATOM     22  C   UNL     1       0.181   1.966  24.420  0.00  0.00    +0.112 A 
ATOM     23  C   UNL     1      -0.244   2.132  23.167  0.00  0.00    +0.031 A 
ATOM     35  H   UNL     1      -4.909   0.634  23.303  0.00  0.00    +0.156 HD
ENDROOT
BRANCH  10  24
ATOM     24  C   UNL     1      -3.977  -0.973  24.180  0.00  0.00    +0.042 A 
ATOM     27  C   UNL     1      -4.696  -2.079  23.727  0.00  0.00    +0.069 A 
ATOM     28  C   UNL     1      -2.657  -1.126  24.605  0.00  0.00    +0.069 A 
ATOM     29  C   UNL     1      -2.056  -2.385  24.578  0.00  0.00    +0.125 A 
ATOM     30  C   UNL     1      -4.097  -3.338  23.701  0.00  0.00    +0.125 A 
ATOM     32  C   UNL     1      -2.776  -3.490  24.126  0.00  0.00    +0.091 A 
BRANCH  29   6
ATOM      6  O   UNL     1      -0.770  -2.534  24.994  0.00  0.00    -0.495 OA
ATOM     33  C   UNL     1      -0.275  -1.580  25.932  0.00  0.00    +0.277 C 
ENDBRANCH  29   6
BRANCH  30   7
ATOM      7  O   UNL     1      -4.798  -4.417  23.260  0.00  0.00    -0.495 OA
ATOM     34  C   UNL     1      -5.808  -4.179  22.280  0.00  0.00    +0.277 C 
ENDBRANCH  30   7
ENDBRANCH  10  24
BRANCH  22  11
ATOM     11  N   UNL     1       1.361   1.228  24.618  0.00  0.00    -0.215 N 
ATOM     36  H   UNL     1       2.142   1.767  25.015  0.00  0.00    +0.173 HD
BRANCH  11   1
ATOM      1  S   UNL     1       1.802   0.196  23.334  0.00  0.00    +0.043 S 
ATOM      4  O   UNL     1       2.265  -1.073  23.863  0.00  0.00    -0.155 OA
ATOM      5  O   UNL     1       0.787   0.253  22.300  0.00  0.00    -0.155 OA
BRANCH   1  25
ATOM     25  C   UNL     1       3.230   1.065  22.731  0.00  0.00    +0.188 C 
BRANCH  25  26
ATOM     26  C   UNL     1       4.457   0.170  22.717  0.00  0.00    +0.021 C 
ATOM     31  C   UNL     1       5.413   0.520  23.845  0.00  0.00    +0.005 C 
ENDBRANCH  25  26
ENDBRANCH   1  25
ENDBRANCH  11   1
ENDBRANCH  22  11
TORSDOF 7
ENDMDL
MODEL 2
REMARK VINA RESULT:       5.7      0.038      2.240
REMARK  Name = 11879855
REMARK  10 active torsions:
REMARK  status: ('A' for Active; 'I' for Inactive)
REMARK    1  A    between atoms: S_1  and  N_11
REMARK    2  A    between atoms: S_1  and  C_25
REMARK    3  A    between atoms: O_6  and  C_29
REMARK    4  A    between atoms: O_6  and  C_33
REMARK    5  A    between atoms: O_7  and  C_30
REMARK    6  A    between atoms: O_7  and  C_34
REMARK    7  A    between atoms: N_10  and  C_24
REMARK    8  A    between atoms: N_11  and  C_22
REMARK    9  A    between atoms: C_25  and  C_26
REMARK   10  A    between atoms: C_26  and  C_31
REMARK                            x       y       z     vdW  Elec       q    Type
REMARK                         _______ _______ _______ _____ _____    ______ ____
ROOT
ATOM      2  O   UNL     1      -0.095   2.402  26.710  0.00  0.00    -0.266 OA
ATOM      3  O   UNL     1      -4.892   0.742  26.440  0.00  0.00    -0.252 OA
ATOM      8  N   UNL     1      -4.752   2.527  24.977  0.00  0.00    -0.284 N 
ATOM      9  N   UNL     1      -1.703   3.259  25.238  0.00  0.00    -0.310 N 
ATOM     10  N   UNL     1      -4.577   0.315  24.180  0.00  0.00    -0.269 N 
ATOM     12  C   UNL     1      -3.767   4.553  26.026  0.00  0.00    +0.027 C 
ATOM     13  C   UNL     1      -3.433   4.125  23.621  0.00  0.00    +0.054 C 
ATOM     14  C   UNL     1      -3.692   5.222  24.656  0.00  0.00    +0.018 C 
ATOM     15  C   UNL     1      -4.898   3.505  26.058  0.00  0.00    +0.114 C 
ATOM     16  C   UNL     1      -2.400   3.936  26.342  0.00  0.00    +0.130 C 
ATOM     17  C   UNL     1      -4.606   3.126  23.640  0.00  0.00    +0.119 C 
ATOM     18  C   UNL     1      -2.133   3.399  23.910  0.00  0.00    +0.027 A 
ATOM     19  C   UNL     1      -1.420   2.862  22.902  0.00  0.00    +0.024 A 
ATOM     20  C   UNL     1      -0.532   2.545  25.569  0.00  0.00    +0.274 A 
ATOM     21  C   UNL     1      -4.764   1.149  25.282  0.00  0.00    +0.306 C 
ATOM     22  C   UNL     1       0.196   1.955  24.417  0.00  0.00    +0.112 A 
ATOM     23  C   UNL     1      -0.219   2.116  23.161  0.00  0.00    +0.031 A 
ATOM     35  H   UNL     1      -4.891   0.639  23.273  0.00  0.00    +0.156 HD
ENDROOT
BRANCH  10  24
ATOM     24  C   UNL     1      -3.973  -0.967  24.165  0.00  0.00    +0.042 A 
ATOM     27  C   UNL     1      -2.658  -1.123  24.601  0.00  0.00    +0.069 A 
ATOM     28  C   UNL     1      -4.695  -2.072  23.716  0.00  0.00    +0.069 A 
ATOM     29  C   UNL     1      -4.102  -3.335  23.701  0.00  0.00    +0.125 A 
ATOM     30  C   UNL     1      -2.063  -2.385  24.587  0.00  0.00    +0.125 A 
ATOM     32  C   UNL     1      -2.786  -3.491  24.137  0.00  0.00    +0.091 A 
BRANCH  29   6
ATOM      6  O   UNL     1      -4.805  -4.413  23.262  0.00  0.00    -0.495 OA
ATOM     33  C   UNL     1      -5.881  -4.163  22.361  0.00  0.00    +0.277 C 
ENDBRANCH  29   6
BRANCH  30   7
ATOM      7  O   UNL     1      -0.780  -2.537  25.012  0.00  0.00    -0.495 OA
ATOM     34  C   UNL     1      -0.272  -1.553  25.911  0.00  0.00    +0.277 C 
ENDBRANCH  30   7
ENDBRANCH  10  24
BRANCH  22  11
ATOM     11  N   UNL     1       1.371   1.213  24.628  0.00  0.00    -0.215 N 
ATOM     36  H   UNL     1       2.149   1.748  25.038  0.00  0.00    +0.173 HD
BRANCH  11   1
ATOM      1  S   UNL     1       1.827   0.185  23.346  0.00  0.00    +0.043 S 
ATOM      4  O   UNL     1       2.313  -1.074  23.878  0.00  0.00    -0.155 OA
ATOM      5  O   UNL     1       0.808   0.220  22.316  0.00  0.00    -0.155 OA
BRANCH   1  25
ATOM     25  C   UNL     1       3.237   1.077  22.736  0.00  0.00    +0.188 C 
BRANCH  25  26
ATOM     26  C   UNL     1       4.474   0.197  22.698  0.00  0.00    +0.021 C 
ATOM     31  C   UNL     1       5.421   0.520  23.842  0.00  0.00    +0.005 C 
ENDBRANCH  25  26
ENDBRANCH   1  25
ENDBRANCH  11   1
ENDBRANCH  22  11
TORSDOF 7
ENDMDL
MODEL 3
REMARK VINA RESULT:       8.6      2.532      6.953
REMARK  Name = 11879855
REMARK  10 active torsions:
REMARK  status: ('A' for Active; 'I' for Inactive)
REMARK    1  A    between atoms: S_1  and  N_11
REMARK    2  A    between atoms: S_1  and  C_25
REMARK    3  A    between atoms: O_6  and  C_29
REMARK    4  A    between atoms: O_6  and  C_33
REMARK    5  A    between atoms: O_7  and  C_30
REMARK    6  A    between atoms: O_7  and  C_34
REMARK    7  A    between atoms: N_10  and  C_24
REMARK    8  A    between atoms: N_11  and  C_22
REMARK    9  A    between atoms: C_25  and  C_26
REMARK   10  A    between atoms: C_26  and  C_31
REMARK                            x       y       z     vdW  Elec       q    Type
REMARK                         _______ _______ _______ _____ _____    ______ ____
ROOT
ATOM      2  O   UNL     1      -3.010   1.845  26.311  0.00  0.00    -0.266 OA
ATOM      3  O   UNL     1       0.379  -1.907  25.783  0.00  0.00    -0.252 OA
ATOM      8  N   UNL     1      -1.467  -2.535  24.541  0.00  0.00    -0.284 N 
ATOM      9  N   UNL     1      -3.317  -0.020  24.927  0.00  0.00    -0.310 N 
ATOM     10  N   UNL     1       0.388  -1.525  23.494  0.00  0.00    -0.269 N 
ATOM     12  C   UNL     1      -3.585  -2.400  25.833  0.00  0.00    +0.027 C 
ATOM     13  C   UNL     1      -3.599  -2.005  23.399  0.00  0.00    +0.054 C 
ATOM     14  C   UNL     1      -4.379  -2.642  24.551  0.00  0.00    +0.018 C 
ATOM     15  C   UNL     1      -2.178  -3.020  25.727  0.00  0.00    +0.114 C 
ATOM     16  C   UNL     1      -3.532  -0.890  26.093  0.00  0.00    +0.130 C 
ATOM     17  C   UNL     1      -2.222  -2.684  23.285  0.00  0.00    +0.119 C 
ATOM     18  C   UNL     1      -3.423  -0.515  23.619  0.00  0.00    +0.027 A 
ATOM     19  C   UNL     1      -3.330   0.318  22.565  0.00  0.00    +0.024 A 
ATOM     20  C   UNL     1      -3.095   1.349  25.189  0.00  0.00    +0.274 A 
ATOM     21  C   UNL     1      -0.173  -1.990  24.682  0.00  0.00    +0.306 C 
ATOM     22  C   UNL     1      -2.977   2.212  23.987  0.00  0.00    +0.112 A 
ATOM     23  C   UNL     1      -3.100   1.725  22.752  0.00  0.00    +0.031 A 
ATOM     35  H   UNL     1       0.116  -1.973  22.626  0.00  0.00    +0.156 HD
ENDROOT
BRANCH  10  24
ATOM     24  C   UNL     1       1.313  -0.463  23.337  0.00  0.00    +0.042 A 
ATOM     27  C   UNL     1       2.630  -0.735  22.970  0.00  0.00    +0.069 A 
ATOM     28  C   UNL     1       0.906   0.854  23.550  0.00  0.00    +0.069 A 
ATOM     29  C   UNL     1       1.817   1.899  23.397  0.00  0.00    +0.125 A 
ATOM     30  C   UNL     1       3.542   0.309  22.816  0.00  0.00    +0.125 A 
ATOM     32  C   UNL     1       3.134   1.627  23.029  0.00  0.00    +0.091 A 
BRANCH  29   6
ATOM      6  O   UNL     1       1.421   3.183  23.605  0.00  0.00    -0.495 OA
ATOM     33  C   UNL     1       0.197   3.379  24.312  0.00  0.00    +0.277 C 
ENDBRANCH  29   6
BRANCH  30   7
ATOM      7  O   UNL     1       4.827   0.044  22.458  0.00  0.00    -0.495 OA
ATOM     34  C   UNL     1       5.780  -0.093  23.511  0.00  0.00    +0.277 C 
ENDBRANCH  30   7
ENDBRANCH  10  24
BRANCH  22  11
ATOM     11  N   UNL     1      -2.744   3.591  24.125  0.00  0.00    -0.215 N 
ATOM     36  H   UNL     1      -1.837   3.832  24.545  0.00  0.00    +0.173 HD
BRANCH  11   1
ATOM      1  S   UNL     1      -4.058   4.498  24.726  0.00  0.00    +0.043 S 
ATOM      4  O   UNL     1      -3.881   4.732  26.146  0.00  0.00    -0.155 OA
ATOM      5  O   UNL     1      -4.345   5.590  23.816  0.00  0.00    -0.155 OA
BRANCH   1  25
ATOM     25  C   UNL     1      -5.355   3.297  24.548  0.00  0.00    +0.188 C 
BRANCH  25  26
ATOM     26  C   UNL     1      -6.057   3.042  25.871  0.00  0.00    +0.021 C 
ATOM     31  C   UNL     1      -6.457   1.583  26.015  0.00  0.00    +0.005 C 
ENDBRANCH  25  26
ENDBRANCH   1  25
ENDBRANCH  11   1
ENDBRANCH  22  11
TORSDOF 7
ENDMDL
MODEL 4
REMARK VINA RESULT:       8.6      2.532      6.840
REMARK  Name = 11879855
REMARK  10 active torsions:
REMARK  status: ('A' for Active; 'I' for Inactive)
REMARK    1  A    between atoms: S_1  and  N_11
REMARK    2  A    between atoms: S_1  and  C_25
REMARK    3  A    between atoms: O_6  and  C_29
REMARK    4  A    between atoms: O_6  and  C_33
REMARK    5  A    between atoms: O_7  and  C_30
REMARK    6  A    between atoms: O_7  and  C_34
REMARK    7  A    between atoms: N_10  and  C_24
REMARK    8  A    between atoms: N_11  and  C_22
REMARK    9  A    between atoms: C_25  and  C_26
REMARK   10  A    between atoms: C_26  and  C_31
REMARK                            x       y       z     vdW  Elec       q    Type
REMARK                         _______ _______ _______ _____ _____    ______ ____
ROOT
ATOM      2  O   UNL     1      -3.018   1.840  26.325  0.00  0.00    -0.266 OA
ATOM      3  O   UNL     1       0.390  -1.893  25.788  0.00  0.00    -0.252 OA
ATOM      8  N   UNL     1      -1.457  -2.533  24.553  0.00  0.00    -0.284 N 
ATOM      9  N   UNL     1      -3.319  -0.028  24.944  0.00  0.00    -0.310 N 
ATOM     10  N   UNL     1       0.389  -1.513  23.498  0.00  0.00    -0.269 N 
ATOM     12  C   UNL     1      -3.571  -2.409  25.851  0.00  0.00    +0.027 C 
ATOM     13  C   UNL     1      -3.596  -2.016  23.417  0.00  0.00    +0.054 C 
ATOM     14  C   UNL     1      -4.368  -2.657  24.573  0.00  0.00    +0.018 C 
ATOM     15  C   UNL     1      -2.161  -3.021  25.741  0.00  0.00    +0.114 C 
ATOM     16  C   UNL     1      -3.525  -0.898  26.111  0.00  0.00    +0.130 C 
ATOM     17  C   UNL     1      -2.215  -2.687  23.299  0.00  0.00    +0.119 C 
ATOM     18  C   UNL     1      -3.427  -0.524  23.636  0.00  0.00    +0.027 A 
ATOM     19  C   UNL     1      -3.343   0.308  22.582  0.00  0.00    +0.024 A 
ATOM     20  C   UNL     1      -3.105   1.342  25.204  0.00  0.00    +0.274 A 
ATOM     21  C   UNL     1      -0.166  -1.980  24.689  0.00  0.00    +0.306 C 
ATOM     22  C   UNL     1      -2.996   2.205  24.000  0.00  0.00    +0.112 A 
ATOM     23  C   UNL     1      -3.120   1.717  22.766  0.00  0.00    +0.031 A 
ATOM     35  H   UNL     1       0.116  -1.963  22.632  0.00  0.00    +0.156 HD
ENDROOT
BRANCH  10  24
ATOM     24  C   UNL     1       1.308  -0.446  23.338  0.00  0.00    +0.042 A 
ATOM     27  C   UNL     1       0.892   0.869  23.544  0.00  0.00    +0.069 A 
ATOM     28  C   UNL     1       2.628  -0.712  22.976  0.00  0.00    +0.069 A 
ATOM     29  C   UNL     1       3.533   0.338  22.819  0.00  0.00    +0.125 A 
ATOM     30  C   UNL     1       1.796   1.919  23.387  0.00  0.00    +0.125 A 
ATOM     32  C   UNL     1       3.117   1.653  23.024  0.00  0.00    +0.091 A 
BRANCH  29   6
ATOM      6  O   UNL     1       4.821   0.080  22.464  0.00  0.00    -0.495 OA
ATOM     33  C   UNL     1       5.746  -0.177  23.519  0.00  0.00    +0.277 C 
ENDBRANCH  29   6
BRANCH  30   7
ATOM      7  O   UNL     1       1.391   3.202  23.587  0.00  0.00    -0.495 OA
ATOM     34  C   UNL     1       0.229   3.399  24.392  0.00  0.00    +0.277 C 
ENDBRANCH  30   7
ENDBRANCH  10  24
BRANCH  22  11
ATOM     11  N   UNL     1      -2.771   3.586  24.137  0.00  0.00    -0.215 N 
ATOM     36  H   UNL     1      -1.859   3.833  24.546  0.00  0.00    +0.173 HD
BRANCH  11   1
ATOM      1  S   UNL     1      -4.082   4.484  24.756  0.00  0.00    +0.043 S 
ATOM      4  O   UNL     1      -3.889   4.716  26.175  0.00  0.00    -0.155 OA
ATOM      5  O   UNL     1      -4.387   5.575  23.852  0.00  0.00    -0.155 OA
BRANCH   1  25
ATOM     25  C   UNL     1      -5.373   3.275  24.593  0.00  0.00    +0.188 C 
BRANCH  25  26
ATOM     26  C   UNL     1      -6.081   3.039  25.916  0.00  0.00    +0.021 C 
ATOM     31  C   UNL     1      -6.409   1.569  26.116  0.00  0.00    +0.005 C 
ENDBRANCH  25  26
ENDBRANCH   1  25
ENDBRANCH  11   1
ENDBRANCH  22  11
TORSDOF 7
ENDMDL
MODEL 5
REMARK VINA RESULT:       8.7      1.905      5.484
REMARK  Name = 11879855
REMARK  10 active torsions:
REMARK  status: ('A' for Active; 'I' for Inactive)
REMARK    1  A    between atoms: S_1  and  N_11
REMARK    2  A    between atoms: S_1  and  C_25
REMARK    3  A    between atoms: O_6  and  C_29
REMARK    4  A    between atoms: O_6  and  C_33
REMARK    5  A    between atoms: O_7  and  C_30
REMARK    6  A    between atoms: O_7  and  C_34
REMARK    7  A    between atoms: N_10  and  C_24
REMARK    8  A    between atoms: N_11  and  C_22
REMARK    9  A    between atoms: C_25  and  C_26
REMARK   10  A    between atoms: C_26  and  C_31
REMARK                            x       y       z     vdW  Elec       q    Type
REMARK                         _______ _______ _______ _____ _____    ______ ____
ROOT
ATOM      2  O   UNL     1      -0.329  -0.737  21.986  0.00  0.00    -0.266 OA
ATOM      3  O   UNL     1      -5.036   0.426  23.512  0.00  0.00    -0.252 OA
ATOM      8  N   UNL     1      -4.261  -1.169  24.996  0.00  0.00    -0.284 N 
ATOM      9  N   UNL     1      -1.337  -1.598  23.918  0.00  0.00    -0.310 N 
ATOM     10  N   UNL     1      -4.164   1.122  25.547  0.00  0.00    -0.269 N 
ATOM     12  C   UNL     1      -3.350  -3.179  23.856  0.00  0.00    +0.027 C 
ATOM     13  C   UNL     1      -2.419  -2.465  26.025  0.00  0.00    +0.054 C 
ATOM     14  C   UNL     1      -2.809  -3.687  25.190  0.00  0.00    +0.018 C 
ATOM     15  C   UNL     1      -4.572  -2.266  24.076  0.00  0.00    +0.114 C 
ATOM     16  C   UNL     1      -2.218  -2.458  23.114  0.00  0.00    +0.130 C 
ATOM     17  C   UNL     1      -3.671  -1.603  26.273  0.00  0.00    +0.119 C 
ATOM     18  C   UNL     1      -1.358  -1.641  25.320  0.00  0.00    +0.027 A 
ATOM     19  C   UNL     1      -0.470  -0.927  26.037  0.00  0.00    +0.024 A 
ATOM     20  C   UNL     1      -0.408  -0.804  23.212  0.00  0.00    +0.274 A 
ATOM     21  C   UNL     1      -4.538   0.160  24.610  0.00  0.00    +0.306 C 
ATOM     22  C   UNL     1       0.527  -0.021  24.058  0.00  0.00    +0.112 A 
ATOM     23  C   UNL     1       0.503  -0.090  25.390  0.00  0.00    +0.031 A 
ATOM     35  H   UNL     1      -4.168   0.865  26.527  0.00  0.00    +0.156 HD
ENDROOT
BRANCH  10  24
ATOM     24  C   UNL     1      -3.754   2.454  25.295  0.00  0.00    +0.042 A 
ATOM     27  C   UNL     1      -4.708   3.450  25.089  0.00  0.00    +0.069 A 
ATOM     28  C   UNL     1      -2.396   2.770  25.254  0.00  0.00    +0.069 A 
ATOM     29  C   UNL     1      -1.992   4.082  25.006  0.00  0.00    +0.125 A 
ATOM     30  C   UNL     1      -4.305   4.762  24.840  0.00  0.00    +0.125 A 
ATOM     32  C   UNL     1      -2.946   5.078  24.799  0.00  0.00    +0.091 A 
BRANCH  29   6
ATOM      6  O   UNL     1      -0.668   4.391  24.965  0.00  0.00    -0.495 OA
ATOM     33  C   UNL     1       0.237   3.448  25.536  0.00  0.00    +0.277 C 
ENDBRANCH  29   6
BRANCH  30   7
ATOM      7  O   UNL     1      -5.236   5.734  24.638  0.00  0.00    -0.495 OA
ATOM     34  C   UNL     1      -6.491   5.578  25.299  0.00  0.00    +0.277 C 
ENDBRANCH  30   7
ENDBRANCH  10  24
BRANCH  22  11
ATOM     11  N   UNL     1       1.489   0.814  23.464  0.00  0.00    -0.215 N 
ATOM     36  H   UNL     1       1.100   1.614  22.946  0.00  0.00    +0.173 HD
BRANCH  11   1
ATOM      1  S   UNL     1       2.761   0.011  22.661  0.00  0.00    +0.043 S 
ATOM      4  O   UNL     1       3.118  -1.191  23.390  0.00  0.00    -0.155 OA
ATOM      5  O   UNL     1       2.482  -0.029  21.239  0.00  0.00    -0.155 OA
BRANCH   1  25
ATOM     25  C   UNL     1       4.066   1.189  22.919  0.00  0.00    +0.188 C 
BRANCH  25  26
ATOM     26  C   UNL     1       5.117   0.650  23.874  0.00  0.00    +0.021 C 
ATOM     31  C   UNL     1       6.116  -0.241  23.154  0.00  0.00    +0.005 C 
ENDBRANCH  25  26
ENDBRANCH   1  25
ENDBRANCH  11   1
ENDBRANCH  22  11
TORSDOF 7
ENDMDL
MODEL 6
REMARK VINA RESULT:       8.7      1.904      5.784
REMARK  Name = 11879855
REMARK  10 active torsions:
REMARK  status: ('A' for Active; 'I' for Inactive)
REMARK    1  A    between atoms: S_1  and  N_11
REMARK    2  A    between atoms: S_1  and  C_25
REMARK    3  A    between atoms: O_6  and  C_29
REMARK    4  A    between atoms: O_6  and  C_33
REMARK    5  A    between atoms: O_7  and  C_30
REMARK    6  A    between atoms: O_7  and  C_34
REMARK    7  A    between atoms: N_10  and  C_24
REMARK    8  A    between atoms: N_11  and  C_22
REMARK    9  A    between atoms: C_25  and  C_26
REMARK   10  A    between atoms: C_26  and  C_31
REMARK                            x       y       z     vdW  Elec       q    Type
REMARK                         _______ _______ _______ _____ _____    ______ ____
ROOT
ATOM      2  O   UNL     1      -0.326  -0.742  21.976  0.00  0.00    -0.266 OA
ATOM      3  O   UNL     1      -5.035   0.417  23.499  0.00  0.00    -0.252 OA
ATOM      8  N   UNL     1      -4.262  -1.182  24.979  0.00  0.00    -0.284 N 
ATOM      9  N   UNL     1      -1.336  -1.608  23.904  0.00  0.00    -0.310 N 
ATOM     10  N   UNL     1      -4.165   1.107  25.537  0.00  0.00    -0.269 N 
ATOM     12  C   UNL     1      -3.349  -3.189  23.835  0.00  0.00    +0.027 C 
ATOM     13  C   UNL     1      -2.421  -2.481  26.007  0.00  0.00    +0.054 C 
ATOM     14  C   UNL     1      -2.810  -3.700  25.168  0.00  0.00    +0.018 C 
ATOM     15  C   UNL     1      -4.572  -2.276  24.056  0.00  0.00    +0.114 C 
ATOM     16  C   UNL     1      -2.216  -2.466  23.097  0.00  0.00    +0.130 C 
ATOM     17  C   UNL     1      -3.674  -1.620  26.256  0.00  0.00    +0.119 C 
ATOM     18  C   UNL     1      -1.359  -1.655  25.306  0.00  0.00    +0.027 A 
ATOM     19  C   UNL     1      -0.472  -0.943  26.027  0.00  0.00    +0.024 A 
ATOM     20  C   UNL     1      -0.407  -0.812  23.201  0.00  0.00    +0.274 A 
ATOM     21  C   UNL     1      -4.539   0.148  24.597  0.00  0.00    +0.306 C 
ATOM     22  C   UNL     1       0.528  -0.032  24.051  0.00  0.00    +0.112 A 
ATOM     23  C   UNL     1       0.502  -0.105  25.382  0.00  0.00    +0.031 A 
ATOM     35  H   UNL     1      -4.171   0.847  26.517  0.00  0.00    +0.156 HD
ENDROOT
BRANCH  10  24
ATOM     24  C   UNL     1      -3.755   2.440  25.289  0.00  0.00    +0.042 A 
ATOM     27  C   UNL     1      -2.397   2.754  25.239  0.00  0.00    +0.069 A 
ATOM     28  C   UNL     1      -4.709   3.439  25.093  0.00  0.00    +0.069 A 
ATOM     29  C   UNL     1      -4.306   4.752  24.849  0.00  0.00    +0.125 A 
ATOM     30  C   UNL     1      -1.993   4.067  24.994  0.00  0.00    +0.125 A 
ATOM     32  C   UNL     1      -2.948   5.065  24.799  0.00  0.00    +0.091 A 
BRANCH  29   6
ATOM      6  O   UNL     1      -5.236   5.726  24.660  0.00  0.00    -0.495 OA
ATOM     33  C   UNL     1      -6.491   5.563  25.319  0.00  0.00    +0.277 C 
ENDBRANCH  29   6
BRANCH  30   7
ATOM      7  O   UNL     1      -0.668   4.373  24.946  0.00  0.00    -0.495 OA
ATOM     34  C   UNL     1       0.238   3.433  25.522  0.00  0.00    +0.277 C 
ENDBRANCH  30   7
ENDBRANCH  10  24
BRANCH  22  11
ATOM     11  N   UNL     1       1.490   0.805  23.461  0.00  0.00    -0.215 N 
ATOM     36  H   UNL     1       1.102   1.604  22.940  0.00  0.00    +0.173 HD
BRANCH  11   1
ATOM      1  S   UNL     1       2.768   0.004  22.665  0.00  0.00    +0.043 S 
ATOM      4  O   UNL     1       3.117  -1.202  23.391  0.00  0.00    -0.155 OA
ATOM      5  O   UNL     1       2.501  -0.029  21.240  0.00  0.00    -0.155 OA
BRANCH   1  25
ATOM     25  C   UNL     1       4.072   1.179  22.939  0.00  0.00    +0.188 C 
BRANCH  25  26
ATOM     26  C   UNL     1       5.125   0.625  23.883  0.00  0.00    +0.021 C 
ATOM     31  C   UNL     1       6.134  -0.239  23.145  0.00  0.00    +0.005 C 
ENDBRANCH  25  26
ENDBRANCH   1  25
ENDBRANCH  11   1
ENDBRANCH  22  11
TORSDOF 7
ENDMDL
MODEL 7
REMARK VINA RESULT:       9.2      2.223      5.417
REMARK  Name = 11879855
REMARK  10 active torsions:
REMARK  status: ('A' for Active; 'I' for Inactive)
REMARK    1  A    between atoms: S_1  and  N_11
REMARK    2  A    between atoms: S_1  and  C_25
REMARK    3  A    between atoms: O_6  and  C_29
REMARK    4  A    between atoms: O_6  and  C_33
REMARK    5  A    between atoms: O_7  and  C_30
REMARK    6  A    between atoms: O_7  and  C_34
REMARK    7  A    between atoms: N_10  and  C_24
REMARK    8  A    between atoms: N_11  and  C_22
REMARK    9  A    between atoms: C_25  and  C_26
REMARK   10  A    between atoms: C_26  and  C_31
REMARK                            x       y       z     vdW  Elec       q    Type
REMARK                         _______ _______ _______ _____ _____    ______ ____
ROOT
ATOM      2  O   UNL     1      -4.145   1.699  22.459  0.00  0.00    -0.266 OA
ATOM      3  O   UNL     1       0.153   4.352  23.026  0.00  0.00    -0.252 OA
ATOM      8  N   UNL     1      -0.867   4.340  25.101  0.00  0.00    -0.284 N 
ATOM      9  N   UNL     1      -3.384   2.550  24.505  0.00  0.00    -0.310 N 
ATOM     10  N   UNL     1       0.854   2.806  24.609  0.00  0.00    -0.269 N 
ATOM     12  C   UNL     1      -3.244   5.057  25.007  0.00  0.00    +0.027 C 
ATOM     13  C   UNL     1      -2.516   3.424  26.705  0.00  0.00    +0.054 C 
ATOM     14  C   UNL     1      -3.427   4.628  26.461  0.00  0.00    +0.018 C 
ATOM     15  C   UNL     1      -1.773   5.430  24.732  0.00  0.00    +0.114 C 
ATOM     16  C   UNL     1      -3.730   3.921  24.100  0.00  0.00    +0.130 C 
ATOM     17  C   UNL     1      -1.052   3.844  26.475  0.00  0.00    +0.119 C 
ATOM     18  C   UNL     1      -2.874   2.275  25.782  0.00  0.00    +0.027 A 
ATOM     19  C   UNL     1      -2.665   1.003  26.173  0.00  0.00    +0.024 A 
ATOM     20  C   UNL     1      -3.681   1.523  23.584  0.00  0.00    +0.274 A 
ATOM     21  C   UNL     1       0.074   3.870  24.160  0.00  0.00    +0.306 C 
ATOM     22  C   UNL     1      -3.406   0.145  24.065  0.00  0.00    +0.112 A 
ATOM     23  C   UNL     1      -2.938  -0.097  25.289  0.00  0.00    +0.031 A 
ATOM     35  H   UNL     1       1.049   2.737  25.601  0.00  0.00    +0.156 HD
ENDROOT
BRANCH  10  24
ATOM     24  C   UNL     1       1.421   1.767  23.829  0.00  0.00    +0.042 A 
ATOM     27  C   UNL     1       0.597   0.809  23.240  0.00  0.00    +0.069 A 
ATOM     28  C   UNL     1       2.803   1.704  23.651  0.00  0.00    +0.069 A 
ATOM     29  C   UNL     1       3.361   0.681  22.883  0.00  0.00    +0.125 A 
ATOM     30  C   UNL     1       1.154  -0.214  22.472  0.00  0.00    +0.125 A 
ATOM     32  C   UNL     1       2.537  -0.277  22.294  0.00  0.00    +0.091 A 
BRANCH  29   6
ATOM      6  O   UNL     1       4.709   0.618  22.710  0.00  0.00    -0.495 OA
ATOM     33  C   UNL     1       5.462  -0.061  23.713  0.00  0.00    +0.277 C 
ENDBRANCH  29   6
BRANCH  30   7
ATOM      7  O   UNL     1       0.350  -1.149  21.898  0.00  0.00    -0.495 OA
ATOM     34  C   UNL     1       0.459  -1.319  20.485  0.00  0.00    +0.277 C 
ENDBRANCH  30   7
ENDBRANCH  10  24
BRANCH  22  11
ATOM     11  N   UNL     1      -3.652  -0.958  23.229  0.00  0.00    -0.215 N 
ATOM     36  H   UNL     1      -4.421  -0.825  22.559  0.00  0.00    +0.173 HD
BRANCH  11   1
ATOM      1  S   UNL     1      -3.654  -2.478  24.004  0.00  0.00    +0.043 S 
ATOM      4  O   UNL     1      -3.909  -2.304  25.421  0.00  0.00    -0.155 OA
ATOM      5  O   UNL     1      -4.422  -3.420  23.213  0.00  0.00    -0.155 OA
BRANCH   1  25
ATOM     25  C   UNL     1      -1.938  -2.903  23.828  0.00  0.00    +0.188 C 
BRANCH  25  26
ATOM     26  C   UNL     1      -1.241  -2.960  25.176  0.00  0.00    +0.021 C 
ATOM     31  C   UNL     1      -0.208  -1.855  25.314  0.00  0.00    +0.005 C 
ENDBRANCH  25  26
ENDBRANCH   1  25
ENDBRANCH  11   1
ENDBRANCH  22  11
TORSDOF 7
ENDMDL
MODEL 8
REMARK VINA RESULT:       9.2      2.222      5.815
REMARK  Name = 11879855
REMARK  10 active torsions:
REMARK  status: ('A' for Active; 'I' for Inactive)
REMARK    1  A    between atoms: S_1  and  N_11
REMARK    2  A    between atoms: S_1  and  C_25
REMARK    3  A    between atoms: O_6  and  C_29
REMARK    4  A    between atoms: O_6  and  C_33
REMARK    5  A    between atoms: O_7  and  C_30
REMARK    6  A    between atoms: O_7  and  C_34
REMARK    7  A    between atoms: N_10  and  C_24
REMARK    8  A    between atoms: N_11  and  C_22
REMARK    9  A    between atoms: C_25  and  C_26
REMARK   10  A    between atoms: C_26  and  C_31
REMARK                            x       y       z     vdW  Elec       q    Type
REMARK                         _______ _______ _______ _____ _____    ______ ____
ROOT
ATOM      2  O   UNL     1      -4.149   1.715  22.468  0.00  0.00    -0.266 OA
ATOM      3  O   UNL     1       0.157   4.354  23.047  0.00  0.00    -0.252 OA
ATOM      8  N   UNL     1      -0.864   4.336  25.122  0.00  0.00    -0.284 N 
ATOM      9  N   UNL     1      -3.386   2.555  24.517  0.00  0.00    -0.310 N 
ATOM     10  N   UNL     1       0.853   2.799  24.623  0.00  0.00    -0.269 N 
ATOM     12  C   UNL     1      -3.238   5.060  25.031  0.00  0.00    +0.027 C 
ATOM     13  C   UNL     1      -2.516   3.417  26.722  0.00  0.00    +0.054 C 
ATOM     14  C   UNL     1      -3.423   4.625  26.482  0.00  0.00    +0.018 C 
ATOM     15  C   UNL     1      -1.767   5.430  24.756  0.00  0.00    +0.114 C 
ATOM     16  C   UNL     1      -3.728   3.928  24.118  0.00  0.00    +0.130 C 
ATOM     17  C   UNL     1      -1.050   3.834  26.494  0.00  0.00    +0.119 C 
ATOM     18  C   UNL     1      -2.876   2.273  25.793  0.00  0.00    +0.027 A 
ATOM     19  C   UNL     1      -2.671   0.999  26.179  0.00  0.00    +0.024 A 
ATOM     20  C   UNL     1      -3.685   1.532  23.593  0.00  0.00    +0.274 A 
ATOM     21  C   UNL     1       0.076   3.867  24.179  0.00  0.00    +0.306 C 
ATOM     22  C   UNL     1      -3.414   0.152  24.067  0.00  0.00    +0.112 A 
ATOM     23  C   UNL     1      -2.947  -0.097  25.291  0.00  0.00    +0.031 A 
ATOM     35  H   UNL     1       1.048   2.725  25.615  0.00  0.00    +0.156 HD
ENDROOT
BRANCH  10  24
ATOM     24  C   UNL     1       1.417   1.762  23.839  0.00  0.00    +0.042 A 
ATOM     27  C   UNL     1       2.798   1.696  23.660  0.00  0.00    +0.069 A 
ATOM     28  C   UNL     1       0.591   0.806  23.249  0.00  0.00    +0.069 A 
ATOM     29  C   UNL     1       1.145  -0.216  22.478  0.00  0.00    +0.125 A 
ATOM     30  C   UNL     1       3.354   0.675  22.889  0.00  0.00    +0.125 A 
ATOM     32  C   UNL     1       2.526  -0.281  22.298  0.00  0.00    +0.091 A 
BRANCH  29   6
ATOM      6  O   UNL     1       0.339  -1.147  21.900  0.00  0.00    -0.495 OA
ATOM     33  C   UNL     1       0.469  -1.336  20.493  0.00  0.00    +0.277 C 
ENDBRANCH  29   6
BRANCH  30   7
ATOM      7  O   UNL     1       4.701   0.610  22.713  0.00  0.00    -0.495 OA
ATOM     34  C   UNL     1       5.454  -0.088  23.705  0.00  0.00    +0.277 C 
ENDBRANCH  30   7
ENDBRANCH  10  24
BRANCH  22  11
ATOM     11  N   UNL     1      -3.663  -0.947  23.227  0.00  0.00    -0.215 N 
ATOM     36  H   UNL     1      -4.433  -0.809  22.558  0.00  0.00    +0.173 HD
BRANCH  11   1
ATOM      1  S   UNL     1      -3.666  -2.470  23.995  0.00  0.00    +0.043 S 
ATOM      4  O   UNL     1      -3.922  -2.302  25.412  0.00  0.00    -0.155 OA
ATOM      5  O   UNL     1      -4.434  -3.408  23.199  0.00  0.00    -0.155 OA
BRANCH   1  25
ATOM     25  C   UNL     1      -1.950  -2.895  23.817  0.00  0.00    +0.188 C 
BRANCH  25  26
ATOM     26  C   UNL     1      -1.253  -2.955  25.165  0.00  0.00    +0.021 C 
ATOM     31  C   UNL     1      -0.198  -1.869  25.293  0.00  0.00    +0.005 C 
ENDBRANCH  25  26
ENDBRANCH   1  25
ENDBRANCH  11   1
ENDBRANCH  22  11
TORSDOF 7
ENDMDL
MODEL 9
REMARK VINA RESULT:       9.4      2.474      6.085
REMARK  Name = 11879855
REMARK  10 active torsions:
REMARK  status: ('A' for Active; 'I' for Inactive)
REMARK    1  A    between atoms: S_1  and  N_11
REMARK    2  A    between atoms: S_1  and  C_25
REMARK    3  A    between atoms: O_6  and  C_29
REMARK    4  A    between atoms: O_6  and  C_33
REMARK    5  A    between atoms: O_7  and  C_30
REMARK    6  A    between atoms: O_7  and  C_34
REMARK    7  A    between atoms: N_10  and  C_24
REMARK    8  A    between atoms: N_11  and  C_22
REMARK    9  A    between atoms: C_25  and  C_26
REMARK   10  A    between atoms: C_26  and  C_31
REMARK                            x       y       z     vdW  Elec       q    Type
REMARK                         _______ _______ _______ _____ _____    ______ ____
ROOT
ATOM      2  O   UNL     1       0.444   0.494  22.745  0.00  0.00    -0.266 OA
ATOM      3  O   UNL     1      -4.449  -0.831  23.119  0.00  0.00    -0.252 OA
ATOM      8  N   UNL     1      -3.394  -1.765  24.952  0.00  0.00    -0.284 N 
ATOM      9  N   UNL     1      -0.464  -0.693  24.549  0.00  0.00    -0.310 N 
ATOM     10  N   UNL     1      -4.554   0.278  25.155  0.00  0.00    -0.269 N 
ATOM     12  C   UNL     1      -1.376  -3.076  24.335  0.00  0.00    +0.027 C 
ATOM     13  C   UNL     1      -1.474  -1.916  26.509  0.00  0.00    +0.054 C 
ATOM     14  C   UNL     1      -1.006  -3.195  25.811  0.00  0.00    +0.018 C 
ATOM     15  C   UNL     1      -2.899  -2.899  24.168  0.00  0.00    +0.114 C 
ATOM     16  C   UNL     1      -0.590  -1.907  23.729  0.00  0.00    +0.130 C 
ATOM     17  C   UNL     1      -3.004  -1.798  26.372  0.00  0.00    +0.119 C 
ATOM     18  C   UNL     1      -0.807  -0.693  25.909  0.00  0.00    +0.027 A 
ATOM     19  C   UNL     1      -0.583   0.395  26.669  0.00  0.00    +0.024 A 
ATOM     20  C   UNL     1       0.108   0.437  23.926  0.00  0.00    +0.274 A 
ATOM     21  C   UNL     1      -4.173  -0.772  24.320  0.00  0.00    +0.306 C 
ATOM     22  C   UNL     1       0.307   1.613  24.810  0.00  0.00    +0.112 A 
ATOM     23  C   UNL     1      -0.009   1.586  26.106  0.00  0.00    +0.031 A 
ATOM     35  H   UNL     1      -4.676   0.087  26.142  0.00  0.00    +0.156 HD
ENDROOT
BRANCH  10  24
ATOM     24  C   UNL     1      -4.791   1.626  24.787  0.00  0.00    +0.042 A 
ATOM     27  C   UNL     1      -5.539   2.455  25.622  0.00  0.00    +0.069 A 
ATOM     28  C   UNL     1      -4.274   2.123  23.591  0.00  0.00    +0.069 A 
ATOM     29  C   UNL     1      -4.506   3.450  23.228  0.00  0.00    +0.125 A 
ATOM     30  C   UNL     1      -5.773   3.782  25.260  0.00  0.00    +0.125 A 
ATOM     32  C   UNL     1      -5.256   4.279  24.063  0.00  0.00    +0.091 A 
BRANCH  29   6
ATOM      6  O   UNL     1      -4.004   3.935  22.061  0.00  0.00    -0.495 OA
ATOM     33  C   UNL     1      -3.378   3.000  21.185  0.00  0.00    +0.277 C 
ENDBRANCH  29   6
BRANCH  30   7
ATOM      7  O   UNL     1      -6.503   4.591  26.074  0.00  0.00    -0.495 OA
ATOM     34  C   UNL     1      -6.651   5.953  25.673  0.00  0.00    +0.277 C 
ENDBRANCH  30   7
ENDBRANCH  10  24
BRANCH  22  11
ATOM     11  N   UNL     1       0.858   2.800  24.296  0.00  0.00    -0.215 N 
ATOM     36  H   UNL     1       1.608   3.208  24.870  0.00  0.00    +0.173 HD
BRANCH  11   1
ATOM      1  S   UNL     1      -0.270   3.936  23.707  0.00  0.00    +0.043 S 
ATOM      4  O   UNL     1       0.388   4.852  22.796  0.00  0.00    -0.155 OA
ATOM      5  O   UNL     1      -1.491   3.250  23.330  0.00  0.00    -0.155 OA
BRANCH   1  25
ATOM     25  C   UNL     1      -0.600   4.831  25.206  0.00  0.00    +0.188 C 
BRANCH  25  26
ATOM     26  C   UNL     1      -2.093   4.965  25.452  0.00  0.00    +0.021 C 
ATOM     31  C   UNL     1      -2.567   4.003  26.529  0.00  0.00    +0.005 C 
ENDBRANCH  25  26
ENDBRANCH   1  25
ENDBRANCH  11   1
ENDBRANCH  22  11
TORSDOF 7
ENDMDL
MODEL 10
REMARK VINA RESULT:       9.4      2.473      6.067
REMARK  Name = 11879855
REMARK  10 active torsions:
REMARK  status: ('A' for Active; 'I' for Inactive)
REMARK    1  A    between atoms: S_1  and  N_11
REMARK    2  A    between atoms: S_1  and  C_25
REMARK    3  A    between atoms: O_6  and  C_29
REMARK    4  A    between atoms: O_6  and  C_33
REMARK    5  A    between atoms: O_7  and  C_30
REMARK    6  A    between atoms: O_7  and  C_34
REMARK    7  A    between atoms: N_10  and  C_24
REMARK    8  A    between atoms: N_11  and  C_22
REMARK    9  A    between atoms: C_25  and  C_26
REMARK   10  A    between atoms: C_26  and  C_31
REMARK                            x       y       z     vdW  Elec       q    Type
REMARK                         _______ _______ _______ _____ _____    ______ ____
ROOT
ATOM      2  O   UNL     1       0.443   0.485  22.734  0.00  0.00    -0.266 OA
ATOM      3  O   UNL     1      -4.450  -0.837  23.124  0.00  0.00    -0.252 OA
ATOM      8  N   UNL     1      -3.391  -1.768  24.956  0.00  0.00    -0.284 N 
ATOM      9  N   UNL     1      -0.461  -0.698  24.543  0.00  0.00    -0.310 N 
ATOM     10  N   UNL     1      -4.550   0.276  25.158  0.00  0.00    -0.269 N 
ATOM     12  C   UNL     1      -1.375  -3.081  24.335  0.00  0.00    +0.027 C 
ATOM     13  C   UNL     1      -1.467  -1.918  26.508  0.00  0.00    +0.054 C 
ATOM     14  C   UNL     1      -1.001  -3.198  25.811  0.00  0.00    +0.018 C 
ATOM     15  C   UNL     1      -2.898  -2.903  24.173  0.00  0.00    +0.114 C 
ATOM     16  C   UNL     1      -0.590  -1.914  23.726  0.00  0.00    +0.130 C 
ATOM     17  C   UNL     1      -2.997  -1.799  26.374  0.00  0.00    +0.119 C 
ATOM     18  C   UNL     1      -0.800  -0.696  25.904  0.00  0.00    +0.027 A 
ATOM     19  C   UNL     1      -0.574   0.393  26.662  0.00  0.00    +0.024 A 
ATOM     20  C   UNL     1       0.109   0.430  23.917  0.00  0.00    +0.274 A 
ATOM     21  C   UNL     1      -4.171  -0.776  24.324  0.00  0.00    +0.306 C 
ATOM     22  C   UNL     1       0.311   1.608  24.798  0.00  0.00    +0.112 A 
ATOM     23  C   UNL     1      -0.001   1.584  26.094  0.00  0.00    +0.031 A 
ATOM     35  H   UNL     1      -4.668   0.087  26.147  0.00  0.00    +0.156 HD
ENDROOT
BRANCH  10  24
ATOM     24  C   UNL     1      -4.787   1.623  24.789  0.00  0.00    +0.042 A 
ATOM     27  C   UNL     1      -4.274   2.118  23.590  0.00  0.00    +0.069 A 
ATOM     28  C   UNL     1      -5.534   2.454  25.623  0.00  0.00    +0.069 A 
ATOM     29  C   UNL     1      -5.768   3.780  25.260  0.00  0.00    +0.125 A 
ATOM     30  C   UNL     1      -4.507   3.444  23.226  0.00  0.00    +0.125 A 
ATOM     32  C   UNL     1      -5.255   4.275  24.061  0.00  0.00    +0.091 A 
BRANCH  29   6
ATOM      6  O   UNL     1      -6.496   4.591  26.074  0.00  0.00    -0.495 OA
ATOM     33  C   UNL     1      -6.641   5.952  25.674  0.00  0.00    +0.277 C 
ENDBRANCH  29   6
BRANCH  30   7
ATOM      7  O   UNL     1      -4.006   3.927  22.057  0.00  0.00    -0.495 OA
ATOM     34  C   UNL     1      -3.386   2.989  21.178  0.00  0.00    +0.277 C 
ENDBRANCH  30   7
ENDBRANCH  10  24
BRANCH  22  11
ATOM     11  N   UNL     1       0.861   2.793  24.281  0.00  0.00    -0.215 N 
ATOM     36  H   UNL     1       1.615   3.201  24.851  0.00  0.00    +0.173 HD
BRANCH  11   1
ATOM      1  S   UNL     1      -0.268   3.930  23.697  0.00  0.00    +0.043 S 
ATOM      4  O   UNL     1       0.388   4.845  22.782  0.00  0.00    -0.155 OA
ATOM      5  O   UNL     1      -1.491   3.246  23.325  0.00  0.00    -0.155 OA
BRANCH   1  25
ATOM     25  C   UNL     1      -0.589   4.827  25.196  0.00  0.00    +0.188 C 
BRANCH  25  26
ATOM     26  C   UNL     1      -2.081   4.964  25.450  0.00  0.00    +0.021 C 
ATOM     31  C   UNL     1      -2.554   3.994  26.519  0.00  0.00    +0.005 C 
ENDBRANCH  25  26
ENDBRANCH   1  25
ENDBRANCH  11   1
ENDBRANCH  22  11
TORSDOF 7
ENDMDL
