MODEL 1
REMARK VINA RESULT:       6.8      0.000      0.000
REMARK  Name = 40777677
REMARK  13 active torsions:
REMARK  status: ('A' for Active; 'I' for Inactive)
REMARK    1  A    between atoms: O_5  and  C_27
REMARK    2  A    between atoms: N_7  and  C_12
REMARK    3  A    between atoms: N_8  and  C_26
REMARK    4  A    between atoms: C_10  and  C_13
REMARK    5  A    between atoms: C_16  and  C_17
REMARK    6  A    between atoms: C_16  and  C_21
REMARK    7  A    between atoms: C_16  and  C_22
REMARK    8  A    between atoms: C_16  and  C_23
REMARK    9  A    between atoms: C_17  and  C_19
REMARK   10  A    between atoms: C_18  and  C_24
REMARK   11  A    between atoms: C_20  and  C_25
REMARK   12  A    between atoms: C_21  and  C_27
REMARK   13  A    between atoms: C_32  and  C_33
REMARK                            x       y       z     vdW  Elec       q    Type
REMARK                         _______ _______ _______ _____ _____    ______ ____
ROOT
ATOM     10  C   UNL     1      -2.237   0.341  24.695  0.00  0.00    +0.047 C 
ATOM     11  C   UNL     1      -3.189   0.496  23.492  0.00  0.00    +0.039 C 
ATOM     12  C   UNL     1      -4.604   0.311  24.051  0.00  0.00    +0.097 C 
ATOM     14  C   UNL     1      -3.075  -0.431  25.673  0.00  0.00    -0.021 C 
ATOM     15  C   UNL     1      -4.365  -0.440  25.319  0.00  0.00    -0.009 C 
ENDROOT
BRANCH  10  13
ATOM      8  N   UNL     1       1.182  -0.713  23.910  0.00  0.00    -0.236 N 
ATOM      9  N   UNL     1       0.595  -1.909  23.729  0.00  0.00    -0.171 NA
ATOM     13  C   UNL     1      -0.922  -0.312  24.336  0.00  0.00    +0.003 A 
ATOM     18  C   UNL     1       0.318   0.276  24.274  0.00  0.00    +0.046 A 
ATOM     20  C   UNL     1      -0.690  -1.657  23.991  0.00  0.00    +0.064 A 
ATOM     24  C   UNL     1       0.740   1.669  24.528  0.00  0.00    +0.066 C 
ATOM     25  C   UNL     1      -1.675  -2.749  23.898  0.00  0.00    +0.068 C 
BRANCH   8  26
ATOM     26  C   UNL     1       2.559  -0.583  23.720  0.00  0.00    +0.066 A 
ATOM     28  C   UNL     1       3.418  -1.611  24.108  0.00  0.00    +0.028 A 
ATOM     29  C   UNL     1       3.076   0.579  23.146  0.00  0.00    +0.028 A 
ATOM     30  C   UNL     1       4.794  -1.478  23.922  0.00  0.00    +0.014 A 
ATOM     31  C   UNL     1       4.452   0.712  22.961  0.00  0.00    +0.014 A 
ATOM     32  C   UNL     1       5.311  -0.316  23.348  0.00  0.00    +0.055 A 
BRANCH  32  33
ATOM      1  F   UNL     1       7.228  -0.699  21.971  0.00  0.00    -0.166 F 
ATOM      2  F   UNL     1       7.505  -0.796  24.126  0.00  0.00    -0.166 F 
ATOM      3  F   UNL     1       7.211   1.123  23.147  0.00  0.00    -0.166 F 
ATOM     33  C   UNL     1       6.782  -0.174  23.150  0.00  0.00    +0.417 C 
ENDBRANCH  32  33
ENDBRANCH   8  26
ENDBRANCH  10  13
BRANCH  12   7
ATOM      4  O   UNL     1      -5.868   1.033  26.531  0.00  0.00    -0.276 OA
ATOM      7  N   UNL     1      -5.250   1.560  24.357  0.00  0.00    -0.309 N 
ATOM     19  C   UNL     1      -5.835   1.818  25.585  0.00  0.00    +0.214 C 
ATOM     34  H   UNL     1      -5.306   2.265  23.627  0.00  0.00    +0.149 HD
BRANCH  19  17
ATOM     17  C   UNL     1      -6.449   3.206  25.673  0.00  0.00    +0.102 C 
BRANCH  17  16
ATOM     16  C   UNL     1      -5.458   4.372  25.429  0.00  0.00    -0.017 C 
ATOM     22  C   UNL     1      -6.260   5.691  25.456  0.00  0.00    +0.012 C 
ATOM     23  C   UNL     1      -4.817   4.250  24.030  0.00  0.00    +0.012 C 
BRANCH  16  21
ATOM     21  C   UNL     1      -4.317   4.422  26.474  0.00  0.00    +0.127 C 
BRANCH  21  27
ATOM      6  O   UNL     1      -2.539   2.940  25.761  0.00  0.00    -0.251 OA
ATOM     27  C   UNL     1      -2.945   4.082  25.932  0.00  0.00    +0.305 C 
BRANCH  27   5
ATOM      5  O   UNL     1      -2.199   5.181  25.660  0.00  0.00    -0.481 OA
ATOM     35  H   UNL     1      -1.910   5.639  26.479  0.00  0.00    +0.295 HD
ENDBRANCH  27   5
ENDBRANCH  21  27
ENDBRANCH  16  21
ENDBRANCH  17  16
ENDBRANCH  19  17
ENDBRANCH  12   7
TORSDOF 9
ENDMDL
MODEL 2
REMARK VINA RESULT:       7.5      1.384      2.661
REMARK  Name = 40777677
REMARK  13 active torsions:
REMARK  status: ('A' for Active; 'I' for Inactive)
REMARK    1  A    between atoms: O_5  and  C_27
REMARK    2  A    between atoms: N_7  and  C_12
REMARK    3  A    between atoms: N_8  and  C_26
REMARK    4  A    between atoms: C_10  and  C_13
REMARK    5  A    between atoms: C_16  and  C_17
REMARK    6  A    between atoms: C_16  and  C_21
REMARK    7  A    between atoms: C_16  and  C_22
REMARK    8  A    between atoms: C_16  and  C_23
REMARK    9  A    between atoms: C_17  and  C_19
REMARK   10  A    between atoms: C_18  and  C_24
REMARK   11  A    between atoms: C_20  and  C_25
REMARK   12  A    between atoms: C_21  and  C_27
REMARK   13  A    between atoms: C_32  and  C_33
REMARK                            x       y       z     vdW  Elec       q    Type
REMARK                         _______ _______ _______ _____ _____    ______ ____
ROOT
ATOM     10  C   UNL     1      -1.653   0.849  23.674  0.00  0.00    +0.047 C 
ATOM     11  C   UNL     1      -1.623   2.150  24.502  0.00  0.00    +0.039 C 
ATOM     12  C   UNL     1      -2.523   3.142  23.757  0.00  0.00    +0.097 C 
ATOM     14  C   UNL     1      -2.076   1.339  22.320  0.00  0.00    -0.021 C 
ATOM     15  C   UNL     1      -2.553   2.587  22.371  0.00  0.00    -0.009 C 
ENDROOT
BRANCH  10  13
ATOM      8  N   UNL     1       1.771  -0.451  23.637  0.00  0.00    -0.236 N 
ATOM      9  N   UNL     1       1.150  -1.627  23.836  0.00  0.00    -0.171 NA
ATOM     13  C   UNL     1      -0.342   0.097  23.694  0.00  0.00    +0.003 A 
ATOM     18  C   UNL     1       0.923   0.613  23.545  0.00  0.00    +0.046 A 
ATOM     20  C   UNL     1      -0.140  -1.285  23.870  0.00  0.00    +0.064 A 
ATOM     24  C   UNL     1       1.381   2.000  23.328  0.00  0.00    +0.066 C 
ATOM     25  C   UNL     1      -1.160  -2.328  24.078  0.00  0.00    +0.068 C 
BRANCH   8  26
ATOM     26  C   UNL     1       3.164  -0.410  23.544  0.00  0.00    +0.066 A 
ATOM     28  C   UNL     1       3.922  -1.510  23.945  0.00  0.00    +0.028 A 
ATOM     29  C   UNL     1       3.795   0.732  23.054  0.00  0.00    +0.028 A 
ATOM     30  C   UNL     1       5.313  -1.467  23.855  0.00  0.00    +0.014 A 
ATOM     31  C   UNL     1       5.187   0.776  22.965  0.00  0.00    +0.014 A 
ATOM     32  C   UNL     1       5.946  -0.324  23.364  0.00  0.00    +0.055 A 
BRANCH  32  33
ATOM      1  F   UNL     1       7.931   0.979  23.079  0.00  0.00    -0.166 F 
ATOM      2  F   UNL     1       7.917  -1.024  22.234  0.00  0.00    -0.166 F 
ATOM      3  F   UNL     1       8.067  -0.746  24.386  0.00  0.00    -0.166 F 
ATOM     33  C   UNL     1       7.434  -0.278  23.270  0.00  0.00    +0.417 C 
ENDBRANCH  32  33
ENDBRANCH   8  26
ENDBRANCH  10  13
BRANCH  12   7
ATOM      4  O   UNL     1      -3.333   4.087  26.348  0.00  0.00    -0.276 OA
ATOM      7  N   UNL     1      -3.863   3.179  24.280  0.00  0.00    -0.309 N 
ATOM     19  C   UNL     1      -4.158   3.654  25.546  0.00  0.00    +0.214 C 
ATOM     34  H   UNL     1      -4.616   2.810  23.705  0.00  0.00    +0.149 HD
BRANCH  19  17
ATOM     17  C   UNL     1      -5.641   3.599  25.873  0.00  0.00    +0.102 C 
BRANCH  17  16
ATOM     16  C   UNL     1      -6.227   2.170  26.006  0.00  0.00    -0.017 C 
ATOM     22  C   UNL     1      -6.893   1.803  24.663  0.00  0.00    +0.012 C 
ATOM     23  C   UNL     1      -7.324   2.136  27.091  0.00  0.00    +0.012 C 
BRANCH  16  21
ATOM     21  C   UNL     1      -5.158   1.114  26.376  0.00  0.00    +0.127 C 
BRANCH  21  27
ATOM      6  O   UNL     1      -4.971   0.454  24.054  0.00  0.00    -0.251 OA
ATOM     27  C   UNL     1      -4.712   0.232  25.229  0.00  0.00    +0.305 C 
BRANCH  27   5
ATOM      5  O   UNL     1      -3.997  -0.844  25.640  0.00  0.00    -0.481 OA
ATOM     35  H   UNL     1      -3.989  -1.557  24.964  0.00  0.00    +0.295 HD
ENDBRANCH  27   5
ENDBRANCH  21  27
ENDBRANCH  16  21
ENDBRANCH  17  16
ENDBRANCH  19  17
ENDBRANCH  12   7
TORSDOF 9
ENDMDL
MODEL 3
REMARK VINA RESULT:       9.7      1.052      2.243
REMARK  Name = 40777677
REMARK  13 active torsions:
REMARK  status: ('A' for Active; 'I' for Inactive)
REMARK    1  A    between atoms: O_5  and  C_27
REMARK    2  A    between atoms: N_7  and  C_12
REMARK    3  A    between atoms: N_8  and  C_26
REMARK    4  A    between atoms: C_10  and  C_13
REMARK    5  A    between atoms: C_16  and  C_17
REMARK    6  A    between atoms: C_16  and  C_21
REMARK    7  A    between atoms: C_16  and  C_22
REMARK    8  A    between atoms: C_16  and  C_23
REMARK    9  A    between atoms: C_17  and  C_19
REMARK   10  A    between atoms: C_18  and  C_24
REMARK   11  A    between atoms: C_20  and  C_25
REMARK   12  A    between atoms: C_21  and  C_27
REMARK   13  A    between atoms: C_32  and  C_33
REMARK                            x       y       z     vdW  Elec       q    Type
REMARK                         _______ _______ _______ _____ _____    ______ ____
ROOT
ATOM     10  C   UNL     1      -1.706   0.531  24.215  0.00  0.00    +0.047 C 
ATOM     11  C   UNL     1      -2.161   1.212  22.907  0.00  0.00    +0.039 C 
ATOM     12  C   UNL     1      -3.690   1.100  22.886  0.00  0.00    +0.097 C 
ATOM     14  C   UNL     1      -2.873  -0.356  24.538  0.00  0.00    -0.021 C 
ATOM     15  C   UNL     1      -3.952  -0.040  23.815  0.00  0.00    -0.009 C 
ENDROOT
BRANCH  10  13
ATOM      8  N   UNL     1       1.734  -0.673  23.855  0.00  0.00    -0.236 N 
ATOM      9  N   UNL     1       1.149  -1.877  23.967  0.00  0.00    -0.171 NA
ATOM     13  C   UNL     1      -0.382  -0.186  24.085  0.00  0.00    +0.003 A 
ATOM     18  C   UNL     1       0.862   0.373  23.919  0.00  0.00    +0.046 A 
ATOM     20  C   UNL     1      -0.145  -1.573  24.108  0.00  0.00    +0.064 A 
ATOM     24  C   UNL     1       1.280   1.786  23.820  0.00  0.00    +0.066 C 
ATOM     25  C   UNL     1      -1.130  -2.656  24.264  0.00  0.00    +0.068 C 
BRANCH   8  26
ATOM     26  C   UNL     1       3.118  -0.589  23.689  0.00  0.00    +0.066 A 
ATOM     28  C   UNL     1       3.686   0.557  23.132  0.00  0.00    +0.028 A 
ATOM     29  C   UNL     1       3.931  -1.653  24.077  0.00  0.00    +0.028 A 
ATOM     30  C   UNL     1       5.068   0.639  22.963  0.00  0.00    +0.014 A 
ATOM     31  C   UNL     1       5.314  -1.572  23.907  0.00  0.00    +0.014 A 
ATOM     32  C   UNL     1       5.882  -0.426  23.351  0.00  0.00    +0.055 A 
BRANCH  32  33
ATOM      1  F   UNL     1       7.833  -1.123  22.157  0.00  0.00    -0.166 F 
ATOM      2  F   UNL     1       8.049  -0.722  24.283  0.00  0.00    -0.166 F 
ATOM      3  F   UNL     1       7.802   0.921  22.880  0.00  0.00    -0.166 F 
ATOM     33  C   UNL     1       7.360  -0.339  23.170  0.00  0.00    +0.417 C 
ENDBRANCH  32  33
ENDBRANCH   8  26
ENDBRANCH  10  13
BRANCH  12   7
ATOM      4  O   UNL     1      -2.443   3.604  23.549  0.00  0.00    -0.276 OA
ATOM      7  N   UNL     1      -4.342   2.279  23.390  0.00  0.00    -0.309 N 
ATOM     19  C   UNL     1      -3.655   3.445  23.683  0.00  0.00    +0.214 C 
ATOM     34  H   UNL     1      -5.342   2.239  23.567  0.00  0.00    +0.149 HD
BRANCH  19  17
ATOM     17  C   UNL     1      -4.557   4.556  24.196  0.00  0.00    +0.102 C 
BRANCH  17  16
ATOM     16  C   UNL     1      -4.974   4.422  25.682  0.00  0.00    -0.017 C 
ATOM     22  C   UNL     1      -6.407   4.978  25.827  0.00  0.00    +0.012 C 
ATOM     23  C   UNL     1      -4.053   5.278  26.578  0.00  0.00    +0.012 C 
BRANCH  16  21
ATOM     21  C   UNL     1      -4.915   2.963  26.195  0.00  0.00    +0.127 C 
BRANCH  21  27
ATOM      6  O   UNL     1      -6.854   1.906  27.189  0.00  0.00    -0.251 OA
ATOM     27  C   UNL     1      -6.241   2.232  26.182  0.00  0.00    +0.305 C 
BRANCH  27   5
ATOM      5  O   UNL     1      -6.681   1.963  24.927  0.00  0.00    -0.481 OA
ATOM     35  H   UNL     1      -7.327   2.632  24.615  0.00  0.00    +0.295 HD
ENDBRANCH  27   5
ENDBRANCH  21  27
ENDBRANCH  16  21
ENDBRANCH  17  16
ENDBRANCH  19  17
ENDBRANCH  12   7
TORSDOF 9
ENDMDL
