MODEL 1
REMARK VINA RESULT:       6.3      0.000      0.000
REMARK  Name = 51136833
REMARK  5 active torsions:
REMARK  status: ('A' for Active; 'I' for Inactive)
REMARK    1  A    between atoms: N_3  and  C_15
REMARK    2  A    between atoms: C_11  and  C_16
REMARK    3  A    between atoms: C_15  and  C_19
REMARK    4  A    between atoms: C_23  and  C_24
REMARK    5  A    between atoms: C_26  and  C_31
REMARK                            x       y       z     vdW  Elec       q    Type
REMARK                         _______ _______ _______ _____ _____    ______ ____
ROOT
ATOM      1  O   UNL     1      -5.956   1.021  25.024  0.00  0.00    -0.336 OA
ATOM      6  N   UNL     1      -3.767   1.189  25.468  0.00  0.00    -0.190 NA
ATOM      8  N   UNL     1      -5.369  -0.161  24.549  0.00  0.00    -0.056 NA
ATOM     16  C   UNL     1      -4.943   1.759  25.548  0.00  0.00    +0.245 A 
ATOM     23  C   UNL     1      -4.079   0.015  24.848  0.00  0.00    +0.202 A 
ENDROOT
BRANCH  23  24
ATOM      2  O   UNL     1       4.631   1.120  21.909  0.00  0.00    -0.276 OA
ATOM      4  N   UNL     1       0.451  -1.130  23.655  0.00  0.00    -0.312 N 
ATOM      5  N   UNL     1       3.137  -0.208  23.094  0.00  0.00    -0.299 N 
ATOM     10  N   UNL     1      -1.119  -2.870  23.941  0.00  0.00    -0.240 NA
ATOM     17  C   UNL     1       0.689   0.152  22.986  0.00  0.00    +0.125 C 
ATOM     18  C   UNL     1       1.607  -1.974  23.964  0.00  0.00    +0.125 C 
ATOM     20  C   UNL     1       2.012   0.125  22.223  0.00  0.00    +0.126 C 
ATOM     21  C   UNL     1       2.853  -1.121  24.204  0.00  0.00    +0.126 C 
ATOM     22  C   UNL     1      -0.845  -1.547  23.952  0.00  0.00    +0.122 A 
ATOM     24  C   UNL     1      -3.075  -0.965  24.539  0.00  0.00    +0.027 A 
ATOM     25  C   UNL     1      -1.776  -0.564  24.241  0.00  0.00    +0.055 A 
ATOM     26  C   UNL     1       4.390   0.351  22.843  0.00  0.00    +0.213 C 
ATOM     27  C   UNL     1      -3.396  -2.316  24.538  0.00  0.00    +0.031 A 
ATOM     30  C   UNL     1      -2.391  -3.221  24.235  0.00  0.00    +0.113 A 
ATOM     31  C   UNL     1       5.496  -0.038  23.794  0.00  0.00    +0.109 C 
ENDBRANCH  23  24
BRANCH  16  11
ATOM      3  N   UNL     1      -4.401   4.181  25.727  0.00  0.00    -0.284 NA
ATOM     11  C   UNL     1      -5.321   3.102  26.136  0.00  0.00    +0.146 C 
ATOM     12  C   UNL     1      -6.712   3.580  25.680  0.00  0.00    +0.030 C 
ATOM     13  C   UNL     1      -6.483   4.959  25.082  0.00  0.00    +0.017 C 
ATOM     14  C   UNL     1      -5.187   5.415  25.722  0.00  0.00    +0.085 C 
BRANCH   3  15
ATOM     15  C   UNL     1      -3.222   4.285  26.577  0.00  0.00    +0.159 C 
BRANCH  15  19
ATOM      7  N   UNL     1      -1.338   2.824  25.808  0.00  0.00    -0.347 N 
ATOM      9  N   UNL     1      -1.300   4.918  25.070  0.00  0.00    -0.239 NA
ATOM     19  C   UNL     1      -1.952   4.045  25.805  0.00  0.00    +0.121 A 
ATOM     28  C   UNL     1      -0.222   2.924  25.025  0.00  0.00    +0.104 A 
ATOM     29  C   UNL     1      -0.220   4.225  24.580  0.00  0.00    +0.130 A 
ATOM     32  H   UNL     1      -1.650   1.995  26.297  0.00  0.00    +0.167 HD
ENDBRANCH  15  19
ENDBRANCH   3  15
ENDBRANCH  16  11
TORSDOF 4
ENDMDL
