MODEL 1
REMARK VINA RESULT:       9.1      0.000      0.000
REMARK  Name = 11867059
REMARK  12 active torsions:
REMARK  status: ('A' for Active; 'I' for Inactive)
REMARK    1  A    between atoms: O_2  and  C_15
REMARK    2  A    between atoms: O_3  and  C_20
REMARK    3  A    between atoms: O_6  and  C_29
REMARK    4  A    between atoms: O_6  and  C_35
REMARK    5  A    between atoms: N_8  and  C_26
REMARK    6  A    between atoms: C_10  and  C_18
REMARK    7  A    between atoms: C_12  and  C_20
REMARK    8  A    between atoms: C_12  and  C_21
REMARK    9  A    between atoms: C_13  and  C_23
REMARK   10  A    between atoms: C_23  and  C_24
REMARK   11  A    between atoms: C_26  and  C_28
REMARK   12  A    between atoms: C_27  and  C_29
REMARK                            x       y       z     vdW  Elec       q    Type
REMARK                         _______ _______ _______ _____ _____    ______ ____
ROOT
ATOM      1  S   UNL     1      -0.668  -0.998  23.532  0.00  0.00    -0.057 S 
ATOM      5  O   UNL     1       3.100   1.724  23.154  0.00  0.00    -0.273 OA
ATOM      7  N   UNL     1       0.228   1.409  23.837  0.00  0.00    -0.229 NA
ATOM      9  N   UNL     1       1.797  -0.243  23.052  0.00  0.00    -0.263 N 
ATOM     10  C   UNL     1      -3.385   2.516  24.609  0.00  0.00    -0.019 C 
ATOM     11  C   UNL     1      -3.764   1.106  25.246  0.00  0.00    +0.011 C 
ATOM     12  C   UNL     1      -5.267   0.895  25.676  0.00  0.00    +0.021 C 
ATOM     13  C   UNL     1      -1.796   2.670  24.664  0.00  0.00    +0.054 C 
ATOM     14  C   UNL     1      -4.016   3.651  25.456  0.00  0.00    +0.010 C 
ATOM     15  C   UNL     1      -5.752   2.140  26.471  0.00  0.00    +0.123 C 
ATOM     16  C   UNL     1      -3.179  -0.071  24.413  0.00  0.00    +0.049 C 
ATOM     17  C   UNL     1      -5.498   3.456  25.744  0.00  0.00    +0.032 C 
ATOM     18  C   UNL     1      -3.867   2.662  23.144  0.00  0.00    +0.012 C 
ATOM     19  C   UNL     1      -1.112   1.416  24.179  0.00  0.00    +0.058 A 
ATOM     21  C   UNL     1      -5.354  -0.328  26.631  0.00  0.00    +0.016 C 
ATOM     22  C   UNL     1      -1.747   0.194  24.092  0.00  0.00    +0.015 A 
ATOM     25  C   UNL     1       0.568   0.192  23.473  0.00  0.00    +0.165 A 
ATOM     27  C   UNL     1       2.966   0.527  22.920  0.00  0.00    +0.244 C 
ATOM     39  H   UNL     1       1.845  -1.231  22.817  0.00  0.00    +0.157 HD
ENDROOT
BRANCH  15   2
ATOM      2  O   UNL     1      -7.145   2.039  26.763  0.00  0.00    -0.391 OA
ATOM     36  H   UNL     1      -7.588   1.687  25.973  0.00  0.00    +0.210 HD
ENDBRANCH  15   2
BRANCH  12  20
ATOM     20  C   UNL     1      -6.229   0.580  24.508  0.00  0.00    +0.165 C 
BRANCH  20   3
ATOM      3  O   UNL     1      -7.105   1.674  24.363  0.00  0.00    -0.394 OA
ATOM     37  H   UNL     1      -6.728   2.416  24.865  0.00  0.00    +0.209 HD
ENDBRANCH  20   3
ENDBRANCH  12  20
BRANCH  13  23
ATOM     23  C   UNL     1      -1.251   3.917  23.954  0.00  0.00    +0.106 C 
BRANCH  23  24
ATOM      4  O   UNL     1       0.009   5.835  24.719  0.00  0.00    -0.276 OA
ATOM      8  N   UNL     1       0.470   3.735  25.602  0.00  0.00    -0.311 N 
ATOM     24  C   UNL     1      -0.205   4.628  24.781  0.00  0.00    +0.214 C 
ATOM     38  H   UNL     1       0.229   2.748  25.563  0.00  0.00    +0.149 HD
BRANCH   8  26
ATOM     26  C   UNL     1       1.527   4.133  26.501  0.00  0.00    +0.139 C 
BRANCH  26  28
ATOM     28  C   UNL     1       1.537   3.312  27.758  0.00  0.00    -0.030 A 
ATOM     30  C   UNL     1       2.708   3.194  28.505  0.00  0.00    +0.005 A 
ATOM     31  C   UNL     1       0.373   2.668  28.179  0.00  0.00    +0.005 A 
ATOM     32  C   UNL     1       2.717   2.431  29.674  0.00  0.00    +0.000 A 
ATOM     33  C   UNL     1       0.381   1.906  29.347  0.00  0.00    +0.000 A 
ATOM     34  C   UNL     1       1.553   1.788  30.095  0.00  0.00    +0.000 A 
ENDBRANCH  26  28
ENDBRANCH   8  26
ENDBRANCH  23  24
ENDBRANCH  13  23
BRANCH  27  29
ATOM     29  C   UNL     1       4.128  -0.315  22.425  0.00  0.00    +0.255 C 
BRANCH  29   6
ATOM      6  O   UNL     1       5.338   0.089  23.032  0.00  0.00    -0.374 OA
ATOM     35  C   UNL     1       5.557  -0.575  24.273  0.00  0.00    +0.194 C 
ENDBRANCH  29   6
ENDBRANCH  27  29
TORSDOF 9
ENDMDL
MODEL 2
REMARK VINA RESULT:      11.1      2.509      4.118
REMARK  Name = 11867059
REMARK  12 active torsions:
REMARK  status: ('A' for Active; 'I' for Inactive)
REMARK    1  A    between atoms: O_2  and  C_15
REMARK    2  A    between atoms: O_3  and  C_20
REMARK    3  A    between atoms: O_6  and  C_29
REMARK    4  A    between atoms: O_6  and  C_35
REMARK    5  A    between atoms: N_8  and  C_26
REMARK    6  A    between atoms: C_10  and  C_18
REMARK    7  A    between atoms: C_12  and  C_20
REMARK    8  A    between atoms: C_12  and  C_21
REMARK    9  A    between atoms: C_13  and  C_23
REMARK   10  A    between atoms: C_23  and  C_24
REMARK   11  A    between atoms: C_26  and  C_28
REMARK   12  A    between atoms: C_27  and  C_29
REMARK                            x       y       z     vdW  Elec       q    Type
REMARK                         _______ _______ _______ _____ _____    ______ ____
ROOT
ATOM      1  S   UNL     1       2.108  -1.758  22.655  0.00  0.00    -0.057 S 
ATOM      5  O   UNL     1       5.400   1.295  23.918  0.00  0.00    -0.273 OA
ATOM      7  N   UNL     1       2.553   0.449  23.928  0.00  0.00    -0.229 NA
ATOM      9  N   UNL     1       4.458  -0.623  22.913  0.00  0.00    -0.263 N 
ATOM     10  C   UNL     1      -1.260   0.807  24.379  0.00  0.00    -0.019 C 
ATOM     11  C   UNL     1      -1.483  -0.770  24.412  0.00  0.00    +0.011 C 
ATOM     12  C   UNL     1      -2.974  -1.281  24.468  0.00  0.00    +0.021 C 
ATOM     13  C   UNL     1       0.263   1.097  24.766  0.00  0.00    +0.054 C 
ATOM     14  C   UNL     1      -2.170   1.478  25.441  0.00  0.00    +0.010 C 
ATOM     15  C   UNL     1      -3.753  -0.475  25.545  0.00  0.00    +0.123 C 
ATOM     16  C   UNL     1      -0.613  -1.490  23.341  0.00  0.00    +0.049 C 
ATOM     17  C   UNL     1      -3.625   1.035  25.375  0.00  0.00    +0.032 C 
ATOM     18  C   UNL     1      -1.568   1.429  22.995  0.00  0.00    +0.012 C 
ATOM     19  C   UNL     1       1.197   0.189  24.007  0.00  0.00    +0.058 A 
ATOM     21  C   UNL     1      -2.982  -2.772  24.909  0.00  0.00    +0.016 C 
ATOM     22  C   UNL     1       0.786  -0.976  23.392  0.00  0.00    +0.015 A 
ATOM     25  C   UNL     1       3.130  -0.505  23.232  0.00  0.00    +0.165 A 
ATOM     27  C   UNL     1       5.493   0.261  23.265  0.00  0.00    +0.244 C 
ATOM     39  H   UNL     1       4.696  -1.445  22.363  0.00  0.00    +0.157 HD
ENDROOT
BRANCH  15   2
ATOM      2  O   UNL     1      -5.136  -0.822  25.531  0.00  0.00    -0.391 OA
ATOM     36  H   UNL     1      -5.219  -1.722  25.890  0.00  0.00    +0.210 HD
ENDBRANCH  15   2
BRANCH  12  20
ATOM     20  C   UNL     1      -3.714  -1.246  23.111  0.00  0.00    +0.165 C 
BRANCH  20   3
ATOM      3  O   UNL     1      -4.647  -2.303  23.101  0.00  0.00    -0.394 OA
ATOM     37  H   UNL     1      -5.308  -2.099  22.418  0.00  0.00    +0.209 HD
ENDBRANCH  20   3
ENDBRANCH  12  20
BRANCH  13  23
ATOM     23  C   UNL     1       0.683   2.567  24.640  0.00  0.00    +0.106 C 
BRANCH  23  24
ATOM      4  O   UNL     1      -0.390   3.439  26.626  0.00  0.00    -0.276 OA
ATOM      8  N   UNL     1      -0.875   4.377  24.556  0.00  0.00    -0.311 N 
ATOM     24  C   UNL     1      -0.236   3.488  25.409  0.00  0.00    +0.214 C 
ATOM     38  H   UNL     1      -0.693   4.322  23.557  0.00  0.00    +0.149 HD
BRANCH   8  26
ATOM     26  C   UNL     1      -1.816   5.372  25.013  0.00  0.00    +0.139 C 
BRANCH  26  28
ATOM     28  C   UNL     1      -3.180   4.791  25.248  0.00  0.00    -0.030 A 
ATOM     30  C   UNL     1      -3.992   4.455  24.165  0.00  0.00    +0.005 A 
ATOM     31  C   UNL     1      -3.635   4.584  26.551  0.00  0.00    +0.005 A 
ATOM     32  C   UNL     1      -5.260   3.914  24.384  0.00  0.00    +0.000 A 
ATOM     33  C   UNL     1      -4.902   4.044  26.770  0.00  0.00    +0.000 A 
ATOM     34  C   UNL     1      -5.714   3.708  25.687  0.00  0.00    +0.000 A 
ENDBRANCH  26  28
ENDBRANCH   8  26
ENDBRANCH  23  24
ENDBRANCH  13  23
BRANCH  27  29
ATOM     29  C   UNL     1       6.830  -0.213  22.724  0.00  0.00    +0.255 C 
BRANCH  29   6
ATOM      6  O   UNL     1       7.887   0.191  23.569  0.00  0.00    -0.374 OA
ATOM     35  C   UNL     1       9.160  -0.140  23.021  0.00  0.00    +0.194 C 
ENDBRANCH  29   6
ENDBRANCH  27  29
TORSDOF 9
ENDMDL
MODEL 3
REMARK VINA RESULT:      11.4      2.774      4.235
REMARK  Name = 11867059
REMARK  12 active torsions:
REMARK  status: ('A' for Active; 'I' for Inactive)
REMARK    1  A    between atoms: O_2  and  C_15
REMARK    2  A    between atoms: O_3  and  C_20
REMARK    3  A    between atoms: O_6  and  C_29
REMARK    4  A    between atoms: O_6  and  C_35
REMARK    5  A    between atoms: N_8  and  C_26
REMARK    6  A    between atoms: C_10  and  C_18
REMARK    7  A    between atoms: C_12  and  C_20
REMARK    8  A    between atoms: C_12  and  C_21
REMARK    9  A    between atoms: C_13  and  C_23
REMARK   10  A    between atoms: C_23  and  C_24
REMARK   11  A    between atoms: C_26  and  C_28
REMARK   12  A    between atoms: C_27  and  C_29
REMARK                            x       y       z     vdW  Elec       q    Type
REMARK                         _______ _______ _______ _____ _____    ______ ____
ROOT
ATOM      1  S   UNL     1       0.866   2.193  25.583  0.00  0.00    -0.057 S 
ATOM      5  O   UNL     1       2.428   0.545  21.509  0.00  0.00    -0.273 OA
ATOM      7  N   UNL     1       0.209   1.657  23.139  0.00  0.00    -0.229 NA
ATOM      9  N   UNL     1       2.487   1.197  23.778  0.00  0.00    -0.263 N 
ATOM     10  C   UNL     1      -3.431   2.529  24.064  0.00  0.00    -0.019 C 
ATOM     11  C   UNL     1      -2.981   3.597  25.156  0.00  0.00    +0.011 C 
ATOM     12  C   UNL     1      -4.120   4.261  26.022  0.00  0.00    +0.021 C 
ATOM     13  C   UNL     1      -2.221   2.330  23.041  0.00  0.00    +0.054 C 
ATOM     14  C   UNL     1      -4.650   3.079  23.278  0.00  0.00    +0.010 C 
ATOM     15  C   UNL     1      -5.278   4.710  25.087  0.00  0.00    +0.123 C 
ATOM     16  C   UNL     1      -1.777   3.079  25.996  0.00  0.00    +0.049 C 
ATOM     17  C   UNL     1      -5.772   3.601  24.164  0.00  0.00    +0.032 C 
ATOM     18  C   UNL     1      -3.815   1.162  24.682  0.00  0.00    +0.012 C 
ATOM     19  C   UNL     1      -0.915   2.152  23.774  0.00  0.00    +0.058 A 
ATOM     21  C   UNL     1      -3.557   5.537  26.709  0.00  0.00    +0.016 C 
ATOM     22  C   UNL     1      -0.733   2.512  25.094  0.00  0.00    +0.015 A 
ATOM     25  C   UNL     1       1.205   1.626  23.998  0.00  0.00    +0.165 A 
ATOM     27  C   UNL     1       3.015   0.693  22.576  0.00  0.00    +0.244 C 
ATOM     39  H   UNL     1       3.105   1.259  24.584  0.00  0.00    +0.157 HD
ENDROOT
BRANCH  15   2
ATOM      2  O   UNL     1      -6.381   5.197  25.850  0.00  0.00    -0.391 OA
ATOM     36  H   UNL     1      -7.056   5.512  25.226  0.00  0.00    +0.210 HD
ENDBRANCH  15   2
BRANCH  12  20
ATOM     20  C   UNL     1      -4.653   3.372  27.169  0.00  0.00    +0.165 C 
BRANCH  20   3
ATOM      3  O   UNL     1      -5.823   2.733  26.712  0.00  0.00    -0.394 OA
ATOM     37  H   UNL     1      -6.461   2.737  27.446  0.00  0.00    +0.209 HD
ENDBRANCH  20   3
ENDBRANCH  12  20
BRANCH  13  23
ATOM     23  C   UNL     1      -2.438   1.220  22.004  0.00  0.00    +0.106 C 
BRANCH  23  24
ATOM      4  O   UNL     1      -3.597  -0.738  22.826  0.00  0.00    -0.276 OA
ATOM      8  N   UNL     1      -1.282  -0.618  23.000  0.00  0.00    -0.311 N 
ATOM     24  C   UNL     1      -2.537  -0.144  22.646  0.00  0.00    +0.214 C 
ATOM     38  H   UNL     1      -0.466  -0.038  22.824  0.00  0.00    +0.149 HD
BRANCH   8  26
ATOM     26  C   UNL     1      -1.072  -1.898  23.636  0.00  0.00    +0.139 C 
BRANCH  26  28
ATOM     28  C   UNL     1      -1.762  -1.985  24.967  0.00  0.00    -0.030 A 
ATOM     30  C   UNL     1      -1.377  -1.142  26.009  0.00  0.00    +0.005 A 
ATOM     31  C   UNL     1      -2.791  -2.907  25.159  0.00  0.00    +0.005 A 
ATOM     32  C   UNL     1      -2.019  -1.222  27.245  0.00  0.00    +0.000 A 
ATOM     33  C   UNL     1      -3.433  -2.988  26.395  0.00  0.00    +0.000 A 
ATOM     34  C   UNL     1      -3.047  -2.145  27.438  0.00  0.00    +0.000 A 
ENDBRANCH  26  28
ENDBRANCH   8  26
ENDBRANCH  23  24
ENDBRANCH  13  23
BRANCH  27  29
ATOM     29  C   UNL     1       4.479   0.323  22.730  0.00  0.00    +0.255 C 
BRANCH  29   6
ATOM      6  O   UNL     1       4.915   0.531  24.057  0.00  0.00    -0.374 OA
ATOM     35  C   UNL     1       5.648  -0.584  24.557  0.00  0.00    +0.194 C 
ENDBRANCH  29   6
ENDBRANCH  27  29
TORSDOF 9
ENDMDL
MODEL 4
REMARK VINA RESULT:      11.7      1.921      3.343
REMARK  Name = 11867059
REMARK  12 active torsions:
REMARK  status: ('A' for Active; 'I' for Inactive)
REMARK    1  A    between atoms: O_2  and  C_15
REMARK    2  A    between atoms: O_3  and  C_20
REMARK    3  A    between atoms: O_6  and  C_29
REMARK    4  A    between atoms: O_6  and  C_35
REMARK    5  A    between atoms: N_8  and  C_26
REMARK    6  A    between atoms: C_10  and  C_18
REMARK    7  A    between atoms: C_12  and  C_20
REMARK    8  A    between atoms: C_12  and  C_21
REMARK    9  A    between atoms: C_13  and  C_23
REMARK   10  A    between atoms: C_23  and  C_24
REMARK   11  A    between atoms: C_26  and  C_28
REMARK   12  A    between atoms: C_27  and  C_29
REMARK                            x       y       z     vdW  Elec       q    Type
REMARK                         _______ _______ _______ _____ _____    ______ ____
ROOT
ATOM      1  S   UNL     1       0.462   2.808  23.965  0.00  0.00    -0.057 S 
ATOM      5  O   UNL     1       2.929  -0.937  22.687  0.00  0.00    -0.273 OA
ATOM      7  N   UNL     1       0.333   0.273  23.470  0.00  0.00    -0.229 NA
ATOM      9  N   UNL     1       2.494   1.316  23.242  0.00  0.00    -0.263 N 
ATOM     10  C   UNL     1      -3.334   0.359  24.660  0.00  0.00    -0.019 C 
ATOM     11  C   UNL     1      -3.540   1.860  24.170  0.00  0.00    +0.011 C 
ATOM     12  C   UNL     1      -4.920   2.543  24.513  0.00  0.00    +0.021 C 
ATOM     13  C   UNL     1      -2.104  -0.260  23.849  0.00  0.00    +0.054 C 
ATOM     14  C   UNL     1      -4.603  -0.470  24.330  0.00  0.00    +0.010 C 
ATOM     15  C   UNL     1      -6.076   1.563  24.166  0.00  0.00    +0.123 C 
ATOM     16  C   UNL     1      -2.303   2.743  24.507  0.00  0.00    +0.049 C 
ATOM     17  C   UNL     1      -5.901   0.181  24.786  0.00  0.00    +0.032 C 
ATOM     18  C   UNL     1      -3.054   0.255  26.179  0.00  0.00    +0.012 C 
ATOM     19  C   UNL     1      -0.935   0.692  23.828  0.00  0.00    +0.058 A 
ATOM     21  C   UNL     1      -5.098   3.803  23.621  0.00  0.00    +0.016 C 
ATOM     22  C   UNL     1      -1.050   2.038  24.108  0.00  0.00    +0.015 A 
ATOM     25  C   UNL     1       1.151   1.301  23.515  0.00  0.00    +0.165 A 
ATOM     27  C   UNL     1       3.289   0.224  22.853  0.00  0.00    +0.244 C 
ATOM     39  H   UNL     1       2.941   2.224  23.338  0.00  0.00    +0.157 HD
ENDROOT
BRANCH  15   2
ATOM      2  O   UNL     1      -7.331   2.097  24.584  0.00  0.00    -0.391 OA
ATOM     36  H   UNL     1      -7.941   2.045  23.829  0.00  0.00    +0.210 HD
ENDBRANCH  15   2
BRANCH  12  20
ATOM     20  C   UNL     1      -5.042   3.044  25.970  0.00  0.00    +0.165 C 
BRANCH  20   3
ATOM      3  O   UNL     1      -6.058   4.020  26.006  0.00  0.00    -0.394 OA
ATOM     37  H   UNL     1      -5.629   4.889  25.932  0.00  0.00    +0.209 HD
ENDBRANCH  20   3
ENDBRANCH  12  20
BRANCH  13  23
ATOM     23  C   UNL     1      -1.679  -1.661  24.306  0.00  0.00    +0.106 C 
BRANCH  23  24
ATOM      4  O   UNL     1       0.370  -2.207  25.471  0.00  0.00    -0.276 OA
ATOM      8  N   UNL     1      -1.186  -0.809  26.483  0.00  0.00    -0.311 N 
ATOM     24  C   UNL     1      -0.703  -1.610  25.458  0.00  0.00    +0.214 C 
ATOM     38  H   UNL     1      -2.099  -0.372  26.382  0.00  0.00    +0.149 HD
BRANCH   8  26
ATOM     26  C   UNL     1      -0.465  -0.578  27.713  0.00  0.00    +0.139 C 
BRANCH  26  28
ATOM     28  C   UNL     1       0.116   0.805  27.775  0.00  0.00    -0.030 A 
ATOM     30  C   UNL     1       0.944   1.167  28.837  0.00  0.00    +0.005 A 
ATOM     31  C   UNL     1      -0.170   1.727  26.768  0.00  0.00    +0.005 A 
ATOM     32  C   UNL     1       1.485   2.452  28.893  0.00  0.00    +0.000 A 
ATOM     33  C   UNL     1       0.369   3.012  26.825  0.00  0.00    +0.000 A 
ATOM     34  C   UNL     1       1.198   3.374  27.887  0.00  0.00    +0.000 A 
ENDBRANCH  26  28
ENDBRANCH   8  26
ENDBRANCH  23  24
ENDBRANCH  13  23
BRANCH  27  29
ATOM     29  C   UNL     1       4.733   0.640  22.642  0.00  0.00    +0.255 C 
BRANCH  29   6
ATOM      6  O   UNL     1       5.416   0.734  23.875  0.00  0.00    -0.374 OA
ATOM     35  C   UNL     1       5.681  -0.550  24.433  0.00  0.00    +0.194 C 
ENDBRANCH  29   6
ENDBRANCH  27  29
TORSDOF 9
ENDMDL
MODEL 5
REMARK VINA RESULT:      12.8      2.716      5.705
REMARK  Name = 11867059
REMARK  12 active torsions:
REMARK  status: ('A' for Active; 'I' for Inactive)
REMARK    1  A    between atoms: O_2  and  C_15
REMARK    2  A    between atoms: O_3  and  C_20
REMARK    3  A    between atoms: O_6  and  C_29
REMARK    4  A    between atoms: O_6  and  C_35
REMARK    5  A    between atoms: N_8  and  C_26
REMARK    6  A    between atoms: C_10  and  C_18
REMARK    7  A    between atoms: C_12  and  C_20
REMARK    8  A    between atoms: C_12  and  C_21
REMARK    9  A    between atoms: C_13  and  C_23
REMARK   10  A    between atoms: C_23  and  C_24
REMARK   11  A    between atoms: C_26  and  C_28
REMARK   12  A    between atoms: C_27  and  C_29
REMARK                            x       y       z     vdW  Elec       q    Type
REMARK                         _______ _______ _______ _____ _____    ______ ____
ROOT
ATOM      1  S   UNL     1      -1.261   2.823  27.997  0.00  0.00    -0.057 S 
ATOM      5  O   UNL     1       3.364   2.222  28.006  0.00  0.00    -0.273 OA
ATOM      7  N   UNL     1       0.817   2.469  26.499  0.00  0.00    -0.229 NA
ATOM      9  N   UNL     1       1.194   2.551  28.878  0.00  0.00    -0.263 N 
ATOM     10  C   UNL     1      -1.567   2.204  23.479  0.00  0.00    -0.019 C 
ATOM     11  C   UNL     1      -2.630   3.195  24.132  0.00  0.00    +0.011 C 
ATOM     12  C   UNL     1      -3.985   3.406  23.352  0.00  0.00    +0.021 C 
ATOM     13  C   UNL     1      -0.152   2.477  24.169  0.00  0.00    +0.054 C 
ATOM     14  C   UNL     1      -1.439   2.511  21.964  0.00  0.00    +0.010 C 
ATOM     15  C   UNL     1      -3.677   3.654  21.849  0.00  0.00    +0.123 C 
ATOM     16  C   UNL     1      -2.818   2.907  25.650  0.00  0.00    +0.049 C 
ATOM     17  C   UNL     1      -2.773   2.590  21.236  0.00  0.00    +0.032 C 
ATOM     18  C   UNL     1      -1.947   0.714  23.654  0.00  0.00    +0.012 C 
ATOM     19  C   UNL     1      -0.286   2.555  25.669  0.00  0.00    +0.058 A 
ATOM     21  C   UNL     1      -4.689   4.681  23.897  0.00  0.00    +0.016 C 
ATOM     22  C   UNL     1      -1.488   2.767  26.311  0.00  0.00    +0.015 A 
ATOM     25  C   UNL     1       0.421   2.588  27.747  0.00  0.00    +0.165 A 
ATOM     27  C   UNL     1       2.588   2.375  28.944  0.00  0.00    +0.244 C 
ATOM     39  H   UNL     1       0.684   2.665  29.751  0.00  0.00    +0.157 HD
ENDROOT
BRANCH  15   2
ATOM      2  O   UNL     1      -4.885   3.720  21.092  0.00  0.00    -0.391 OA
ATOM     36  H   UNL     1      -5.129   4.657  21.006  0.00  0.00    +0.210 HD
ENDBRANCH  15   2
BRANCH  12  20
ATOM     20  C   UNL     1      -5.007   2.260  23.524  0.00  0.00    +0.165 C 
BRANCH  20   3
ATOM      3  O   UNL     1      -5.694   2.472  24.737  0.00  0.00    -0.394 OA
ATOM     37  H   UNL     1      -5.508   1.711  25.312  0.00  0.00    +0.209 HD
ENDBRANCH  20   3
ENDBRANCH  12  20
BRANCH  13  23
ATOM     23  C   UNL     1       0.958   1.501  23.754  0.00  0.00    +0.106 C 
BRANCH  23  24
ATOM      4  O   UNL     1       0.433  -0.666  22.815  0.00  0.00    -0.276 OA
ATOM      8  N   UNL     1       0.154  -0.306  25.094  0.00  0.00    -0.311 N 
ATOM     24  C   UNL     1       0.495   0.064  23.801  0.00  0.00    +0.214 C 
ATOM     38  H   UNL     1       0.223   0.381  25.840  0.00  0.00    +0.149 HD
BRANCH   8  26
ATOM     26  C   UNL     1      -0.327  -1.624  25.438  0.00  0.00    +0.139 C 
BRANCH  26  28
ATOM     28  C   UNL     1      -1.777  -1.803  25.092  0.00  0.00    -0.030 A 
ATOM     30  C   UNL     1      -2.165  -2.819  24.220  0.00  0.00    +0.005 A 
ATOM     31  C   UNL     1      -2.736  -0.954  25.645  0.00  0.00    +0.005 A 
ATOM     32  C   UNL     1      -3.513  -2.987  23.899  0.00  0.00    +0.000 A 
ATOM     33  C   UNL     1      -4.083  -1.120  25.323  0.00  0.00    +0.000 A 
ATOM     34  C   UNL     1      -4.472  -2.137  24.451  0.00  0.00    +0.000 A 
ENDBRANCH  26  28
ENDBRANCH   8  26
ENDBRANCH  23  24
ENDBRANCH  13  23
BRANCH  27  29
ATOM     29  C   UNL     1       3.078   2.391  30.380  0.00  0.00    +0.255 C 
BRANCH  29   6
ATOM      6  O   UNL     1       2.250   1.597  31.204  0.00  0.00    -0.374 OA
ATOM     35  C   UNL     1       0.996   2.222  31.457  0.00  0.00    +0.194 C 
ENDBRANCH  29   6
ENDBRANCH  27  29
TORSDOF 9
ENDMDL
