MODEL 1
REMARK VINA RESULT:      -4.7      0.000      0.000
REMARK  Name = 71693201
REMARK  14 active torsions:
REMARK  status: ('A' for Active; 'I' for Inactive)
REMARK    1  A    between atoms: O_2  and  C_25
REMARK    2  A    between atoms: O_2  and  C_30
REMARK    3  A    between atoms: O_3  and  C_31
REMARK    4  A    between atoms: N_5  and  C_15
REMARK    5  A    between atoms: C_8  and  C_12
REMARK    6  A    between atoms: C_9  and  C_15
REMARK    7  A    between atoms: C_11  and  C_16
REMARK    8  A    between atoms: C_12  and  C_17
REMARK    9  A    between atoms: C_12  and  C_18
REMARK   10  A    between atoms: C_13  and  C_19
REMARK   11  A    between atoms: C_16  and  C_20
REMARK   12  A    between atoms: C_21  and  C_25
REMARK   13  A    between atoms: C_24  and  C_29
REMARK   14  A    between atoms: C_30  and  C_31
REMARK                            x       y       z     vdW  Elec       q    Type
REMARK                         _______ _______ _______ _____ _____    ______ ____
ROOT
ATOM      8  C   UNL     1      -2.533   2.326  23.655  0.00  0.00    +0.000 C 
ATOM      9  C   UNL     1      -1.358   2.871  24.504  0.00  0.00    +0.032 C 
ATOM     10  C   UNL     1      -3.667   3.360  23.581  0.00  0.00    +0.012 C 
ATOM     11  C   UNL     1      -4.204   3.737  24.975  0.00  0.00    +0.022 C 
ATOM     13  C   UNL     1      -3.082   4.029  25.951  0.00  0.00    -0.073 C 
ATOM     14  C   UNL     1      -1.814   3.647  25.717  0.00  0.00    -0.022 C 
ATOM     19  C   UNL     1      -3.444   4.813  27.182  0.00  0.00    +0.039 C 
ENDROOT
BRANCH   8  12
ATOM     12  C   UNL     1      -2.085   1.946  22.241  0.00  0.00    -0.013 C 
ATOM     17  C   UNL     1      -2.283   0.452  22.002  0.00  0.00    +0.007 C 
ATOM     18  C   UNL     1      -2.846   2.764  21.203  0.00  0.00    +0.007 C 
ENDBRANCH   8  12
BRANCH   9  15
ATOM     15  C   UNL     1      -0.422   1.739  24.944  0.00  0.00    +0.112 C 
BRANCH  15   5
ATOM      1  O   UNL     1       0.389  -0.754  23.724  0.00  0.00    -0.273 OA
ATOM      5  N   UNL     1       0.624   1.546  23.991  0.00  0.00    -0.313 N 
ATOM     21  C   UNL     1       0.950   0.303  23.450  0.00  0.00    +0.239 C 
ATOM     32  H   UNL     1       1.112   2.368  23.646  0.00  0.00    +0.149 HD
BRANCH  21  25
ATOM     25  C   UNL     1       2.097   0.390  22.465  0.00  0.00    +0.256 C 
BRANCH  25   2
ATOM      2  O   UNL     1       3.154   1.160  22.996  0.00  0.00    -0.359 OA
BRANCH   2  30
ATOM     30  C   UNL     1       4.428   0.599  22.687  0.00  0.00    +0.280 C 
BRANCH  30  31
ATOM      4  O   UNL     1       4.917  -1.468  23.866  0.00  0.00    -0.248 OA
ATOM     31  C   UNL     1       4.903  -0.247  23.835  0.00  0.00    +0.331 C 
BRANCH  31   3
ATOM      3  O   UNL     1       5.325   0.542  24.855  0.00  0.00    -0.479 OA
ATOM     34  H   UNL     1       5.795   1.339  24.531  0.00  0.00    +0.295 HD
ENDBRANCH  31   3
ENDBRANCH  30  31
ENDBRANCH   2  30
ENDBRANCH  25   2
ENDBRANCH  21  25
ENDBRANCH  15   5
ENDBRANCH   9  15
BRANCH  11  16
ATOM     16  C   UNL     1      -5.135   2.648  25.520  0.00  0.00    +0.082 C 
BRANCH  16  20
ATOM      6  N   UNL     1      -5.176   0.397  24.431  0.00  0.00    -0.342 N 
ATOM      7  N   UNL     1      -3.489   0.766  25.830  0.00  0.00    -0.232 NA
ATOM     20  C   UNL     1      -4.571   1.276  25.284  0.00  0.00    +0.109 A 
ATOM     22  C   UNL     1      -4.436  -0.758  24.426  0.00  0.00    +0.066 A 
ATOM     23  C   UNL     1      -3.389  -0.502  25.305  0.00  0.00    +0.092 A 
ATOM     24  C   UNL     1      -2.427  -1.500  25.535  0.00  0.00    -0.023 A 
ATOM     26  C   UNL     1      -4.588  -1.967  23.746  0.00  0.00    +0.028 A 
ATOM     27  C   UNL     1      -2.559  -2.723  24.864  0.00  0.00    +0.005 A 
ATOM     28  C   UNL     1      -3.622  -2.950  23.986  0.00  0.00    +0.002 A 
ATOM     29  C   UNL     1      -1.274  -1.306  26.464  0.00  0.00    +0.046 C 
ATOM     33  H   UNL     1      -6.019   0.565  23.898  0.00  0.00    +0.167 HD
ENDBRANCH  16  20
ENDBRANCH  11  16
TORSDOF 10
ENDMDL
MODEL 2
REMARK VINA RESULT:      -3.1      1.475      4.353
REMARK  Name = 71693201
REMARK  14 active torsions:
REMARK  status: ('A' for Active; 'I' for Inactive)
REMARK    1  A    between atoms: O_2  and  C_25
REMARK    2  A    between atoms: O_2  and  C_30
REMARK    3  A    between atoms: O_3  and  C_31
REMARK    4  A    between atoms: N_5  and  C_15
REMARK    5  A    between atoms: C_8  and  C_12
REMARK    6  A    between atoms: C_9  and  C_15
REMARK    7  A    between atoms: C_11  and  C_16
REMARK    8  A    between atoms: C_12  and  C_17
REMARK    9  A    between atoms: C_12  and  C_18
REMARK   10  A    between atoms: C_13  and  C_19
REMARK   11  A    between atoms: C_16  and  C_20
REMARK   12  A    between atoms: C_21  and  C_25
REMARK   13  A    between atoms: C_24  and  C_29
REMARK   14  A    between atoms: C_30  and  C_31
REMARK                            x       y       z     vdW  Elec       q    Type
REMARK                         _______ _______ _______ _____ _____    ______ ____
ROOT
ATOM      8  C   UNL     1      -1.454   0.635  25.395  0.00  0.00    +0.000 C 
ATOM      9  C   UNL     1      -0.221   0.112  24.615  0.00  0.00    +0.032 C 
ATOM     10  C   UNL     1      -2.044  -0.478  26.274  0.00  0.00    +0.012 C 
ATOM     11  C   UNL     1      -2.473  -1.707  25.449  0.00  0.00    +0.022 C 
ATOM     13  C   UNL     1      -1.403  -2.121  24.458  0.00  0.00    -0.073 C 
ATOM     14  C   UNL     1      -0.397  -1.300  24.109  0.00  0.00    -0.022 C 
ATOM     19  C   UNL     1      -1.491  -3.520  23.913  0.00  0.00    +0.039 C 
ENDROOT
BRANCH   8  12
ATOM     12  C   UNL     1      -1.106   1.849  26.261  0.00  0.00    -0.013 C 
ATOM     17  C   UNL     1       0.398   1.911  26.513  0.00  0.00    +0.007 C 
ATOM     18  C   UNL     1      -1.596   3.132  25.599  0.00  0.00    +0.007 C 
ENDBRANCH   8  12
BRANCH   9  15
ATOM     15  C   UNL     1       0.124   1.037  23.441  0.00  0.00    +0.112 C 
BRANCH  15   5
ATOM      1  O   UNL     1       1.378  -0.463  21.310  0.00  0.00    -0.273 OA
ATOM      5  N   UNL     1       1.518   0.973  23.137  0.00  0.00    -0.313 N 
ATOM     21  C   UNL     1       2.041   0.221  22.086  0.00  0.00    +0.239 C 
ATOM     32  H   UNL     1       2.151   1.555  23.679  0.00  0.00    +0.149 HD
BRANCH  21  25
ATOM     25  C   UNL     1       3.548   0.336  21.993  0.00  0.00    +0.256 C 
BRANCH  25   2
ATOM      2  O   UNL     1       4.067   1.012  23.119  0.00  0.00    -0.359 OA
BRANCH   2  30
ATOM     30  C   UNL     1       5.340   0.501  23.505  0.00  0.00    +0.280 C 
BRANCH  30  31
ATOM      4  O   UNL     1       4.291  -1.662  23.859  0.00  0.00    -0.248 OA
ATOM     31  C   UNL     1       5.176  -0.861  24.120  0.00  0.00    +0.331 C 
BRANCH  31   3
ATOM      3  O   UNL     1       6.163  -1.090  25.023  0.00  0.00    -0.479 OA
ATOM     34  H   UNL     1       6.815  -0.358  25.046  0.00  0.00    +0.295 HD
ENDBRANCH  31   3
ENDBRANCH  30  31
ENDBRANCH   2  30
ENDBRANCH  25   2
ENDBRANCH  21  25
ENDBRANCH  15   5
ENDBRANCH   9  15
BRANCH  11  16
ATOM     16  C   UNL     1      -3.809  -1.457  24.741  0.00  0.00    +0.082 C 
BRANCH  16  20
ATOM      6  N   UNL     1      -4.909   0.573  25.702  0.00  0.00    -0.342 N 
ATOM      7  N   UNL     1      -3.793   0.881  23.804  0.00  0.00    -0.232 NA
ATOM     20  C   UNL     1      -4.152   0.005  24.716  0.00  0.00    +0.109 A 
ATOM     22  C   UNL     1      -5.050   1.905  25.406  0.00  0.00    +0.066 A 
ATOM     23  C   UNL     1      -4.345   2.073  24.219  0.00  0.00    +0.092 A 
ATOM     24  C   UNL     1      -4.287   3.347  23.629  0.00  0.00    -0.023 A 
ATOM     26  C   UNL     1      -5.713   2.946  26.057  0.00  0.00    +0.028 A 
ATOM     27  C   UNL     1      -4.945   4.408  24.265  0.00  0.00    +0.005 A 
ATOM     28  C   UNL     1      -5.646   4.208  25.458  0.00  0.00    +0.002 A 
ATOM     29  C   UNL     1      -3.552   3.611  22.356  0.00  0.00    +0.046 C 
ATOM     33  H   UNL     1      -5.297   0.099  26.506  0.00  0.00    +0.167 HD
ENDBRANCH  16  20
ENDBRANCH  11  16
TORSDOF 10
ENDMDL
MODEL 3
REMARK VINA RESULT:      -2.7      1.424      4.703
REMARK  Name = 71693201
REMARK  14 active torsions:
REMARK  status: ('A' for Active; 'I' for Inactive)
REMARK    1  A    between atoms: O_2  and  C_25
REMARK    2  A    between atoms: O_2  and  C_30
REMARK    3  A    between atoms: O_3  and  C_31
REMARK    4  A    between atoms: N_5  and  C_15
REMARK    5  A    between atoms: C_8  and  C_12
REMARK    6  A    between atoms: C_9  and  C_15
REMARK    7  A    between atoms: C_11  and  C_16
REMARK    8  A    between atoms: C_12  and  C_17
REMARK    9  A    between atoms: C_12  and  C_18
REMARK   10  A    between atoms: C_13  and  C_19
REMARK   11  A    between atoms: C_16  and  C_20
REMARK   12  A    between atoms: C_21  and  C_25
REMARK   13  A    between atoms: C_24  and  C_29
REMARK   14  A    between atoms: C_30  and  C_31
REMARK                            x       y       z     vdW  Elec       q    Type
REMARK                         _______ _______ _______ _____ _____    ______ ____
ROOT
ATOM      8  C   UNL     1      -1.666  -0.624  25.218  0.00  0.00    +0.000 C 
ATOM      9  C   UNL     1      -1.286  -2.009  24.638  0.00  0.00    +0.032 C 
ATOM     10  C   UNL     1      -3.049  -0.683  25.884  0.00  0.00    +0.012 C 
ATOM     11  C   UNL     1      -4.152  -1.121  24.900  0.00  0.00    +0.022 C 
ATOM     13  C   UNL     1      -3.736  -2.335  24.093  0.00  0.00    -0.073 C 
ATOM     14  C   UNL     1      -2.453  -2.724  23.999  0.00  0.00    -0.022 C 
ATOM     19  C   UNL     1      -4.838  -3.118  23.434  0.00  0.00    +0.039 C 
ENDROOT
BRANCH   8  12
ATOM     12  C   UNL     1      -0.627  -0.123  26.225  0.00  0.00    -0.013 C 
ATOM     17  C   UNL     1      -0.607   1.402  26.256  0.00  0.00    +0.007 C 
ATOM     18  C   UNL     1      -0.913  -0.690  27.611  0.00  0.00    +0.007 C 
ENDBRANCH   8  12
BRANCH   9  15
ATOM     15  C   UNL     1      -0.142  -1.889  23.623  0.00  0.00    +0.112 C 
BRANCH  15   5
ATOM      1  O   UNL     1       1.295  -0.325  21.661  0.00  0.00    -0.273 OA
ATOM      5  N   UNL     1       0.620  -0.703  23.856  0.00  0.00    -0.313 N 
ATOM     21  C   UNL     1       1.285  -0.007  22.847  0.00  0.00    +0.239 C 
ATOM     32  H   UNL     1       0.624  -0.316  24.796  0.00  0.00    +0.149 HD
BRANCH  21  25
ATOM     25  C   UNL     1       2.012   1.212  23.375  0.00  0.00    +0.256 C 
BRANCH  25   2
ATOM      2  O   UNL     1       3.306   1.302  22.817  0.00  0.00    -0.359 OA
BRANCH   2  30
ATOM     30  C   UNL     1       3.935   0.026  22.727  0.00  0.00    +0.280 C 
BRANCH  30  31
ATOM      4  O   UNL     1       5.597   0.771  24.335  0.00  0.00    -0.248 OA
ATOM     31  C   UNL     1       4.934  -0.128  23.840  0.00  0.00    +0.331 C 
BRANCH  31   3
ATOM      3  O   UNL     1       5.004  -1.425  24.231  0.00  0.00    -0.479 OA
ATOM     34  H   UNL     1       4.851  -1.525  25.194  0.00  0.00    +0.295 HD
ENDBRANCH  31   3
ENDBRANCH  30  31
ENDBRANCH   2  30
ENDBRANCH  25   2
ENDBRANCH  21  25
ENDBRANCH  15   5
ENDBRANCH   9  15
BRANCH  11  16
ATOM     16  C   UNL     1      -4.563   0.035  23.982  0.00  0.00    +0.082 C 
BRANCH  16  20
ATOM      6  N   UNL     1      -2.624   1.533  23.480  0.00  0.00    -0.342 N 
ATOM      7  N   UNL     1      -3.939   2.175  25.154  0.00  0.00    -0.232 NA
ATOM     20  C   UNL     1      -3.730   1.259  24.234  0.00  0.00    +0.109 A 
ATOM     22  C   UNL     1      -2.081   2.704  23.945  0.00  0.00    +0.066 A 
ATOM     23  C   UNL     1      -2.919   3.085  24.987  0.00  0.00    +0.092 A 
ATOM     24  C   UNL     1      -2.641   4.267  25.694  0.00  0.00    -0.023 A 
ATOM     26  C   UNL     1      -0.962   3.440  23.552  0.00  0.00    +0.028 A 
ATOM     27  C   UNL     1      -1.523   5.023  25.318  0.00  0.00    +0.005 A 
ATOM     28  C   UNL     1      -0.700   4.614  24.265  0.00  0.00    +0.002 A 
ATOM     29  C   UNL     1      -3.490   4.745  26.826  0.00  0.00    +0.046 C 
ATOM     33  H   UNL     1      -2.267   0.974  22.717  0.00  0.00    +0.167 HD
ENDBRANCH  16  20
ENDBRANCH  11  16
TORSDOF 10
ENDMDL
MODEL 4
REMARK VINA RESULT:      -2.1      1.484      2.662
REMARK  Name = 71693201
REMARK  14 active torsions:
REMARK  status: ('A' for Active; 'I' for Inactive)
REMARK    1  A    between atoms: O_2  and  C_25
REMARK    2  A    between atoms: O_2  and  C_30
REMARK    3  A    between atoms: O_3  and  C_31
REMARK    4  A    between atoms: N_5  and  C_15
REMARK    5  A    between atoms: C_8  and  C_12
REMARK    6  A    between atoms: C_9  and  C_15
REMARK    7  A    between atoms: C_11  and  C_16
REMARK    8  A    between atoms: C_12  and  C_17
REMARK    9  A    between atoms: C_12  and  C_18
REMARK   10  A    between atoms: C_13  and  C_19
REMARK   11  A    between atoms: C_16  and  C_20
REMARK   12  A    between atoms: C_21  and  C_25
REMARK   13  A    between atoms: C_24  and  C_29
REMARK   14  A    between atoms: C_30  and  C_31
REMARK                            x       y       z     vdW  Elec       q    Type
REMARK                         _______ _______ _______ _____ _____    ______ ____
ROOT
ATOM      8  C   UNL     1      -3.108   2.587  23.792  0.00  0.00    +0.000 C 
ATOM      9  C   UNL     1      -2.987   4.116  24.005  0.00  0.00    +0.032 C 
ATOM     10  C   UNL     1      -4.573   2.193  23.548  0.00  0.00    +0.012 C 
ATOM     11  C   UNL     1      -5.489   2.598  24.719  0.00  0.00    +0.022 C 
ATOM     13  C   UNL     1      -5.235   4.024  25.165  0.00  0.00    -0.073 C 
ATOM     14  C   UNL     1      -4.118   4.691  24.825  0.00  0.00    -0.022 C 
ATOM     19  C   UNL     1      -6.319   4.683  25.974  0.00  0.00    +0.039 C 
ENDROOT
BRANCH   8  12
ATOM     12  C   UNL     1      -2.241   2.104  22.627  0.00  0.00    -0.013 C 
ATOM     17  C   UNL     1      -2.266   0.581  22.539  0.00  0.00    +0.007 C 
ATOM     18  C   UNL     1      -2.711   2.729  21.318  0.00  0.00    +0.007 C 
ENDBRANCH   8  12
BRANCH   9  15
ATOM     15  C   UNL     1      -1.648   4.479  24.658  0.00  0.00    +0.112 C 
BRANCH  15   5
ATOM      1  O   UNL     1      -0.707   2.676  26.713  0.00  0.00    -0.273 OA
ATOM      5  N   UNL     1      -0.705   3.416  24.507  0.00  0.00    -0.313 N 
ATOM     21  C   UNL     1      -0.305   2.590  25.556  0.00  0.00    +0.239 C 
ATOM     32  H   UNL     1      -0.359   3.216  23.572  0.00  0.00    +0.149 HD
BRANCH  21  25
ATOM     25  C   UNL     1       0.700   1.548  25.113  0.00  0.00    +0.256 C 
BRANCH  25   2
ATOM      2  O   UNL     1       0.851   1.565  23.709  0.00  0.00    -0.359 OA
BRANCH   2  30
ATOM     30  C   UNL     1       1.066   0.258  23.183  0.00  0.00    +0.280 C 
BRANCH  30  31
ATOM      4  O   UNL     1       3.436   0.562  22.739  0.00  0.00    -0.248 OA
ATOM     31  C   UNL     1       2.321   0.243  22.354  0.00  0.00    +0.331 C 
BRANCH  31   3
ATOM      3  O   UNL     1       2.046  -0.181  21.095  0.00  0.00    -0.479 OA
ATOM     34  H   UNL     1       1.790   0.560  20.506  0.00  0.00    +0.295 HD
ENDBRANCH  31   3
ENDBRANCH  30  31
ENDBRANCH   2  30
ENDBRANCH  25   2
ENDBRANCH  21  25
ENDBRANCH  15   5
ENDBRANCH   9  15
BRANCH  11  16
ATOM     16  C   UNL     1      -5.347   1.623  25.893  0.00  0.00    +0.082 C 
BRANCH  16  20
ATOM      6  N   UNL     1      -3.095   0.538  25.969  0.00  0.00    -0.342 N 
ATOM      7  N   UNL     1      -4.677  -0.588  24.890  0.00  0.00    -0.232 NA
ATOM     20  C   UNL     1      -4.399   0.504  25.565  0.00  0.00    +0.109 A 
ATOM     22  C   UNL     1      -2.489  -0.609  25.525  0.00  0.00    +0.066 A 
ATOM     23  C   UNL     1      -3.497  -1.296  24.855  0.00  0.00    +0.092 A 
ATOM     24  C   UNL     1      -3.206  -2.538  24.266  0.00  0.00    -0.023 A 
ATOM     26  C   UNL     1      -1.186  -1.091  25.649  0.00  0.00    +0.028 A 
ATOM     27  C   UNL     1      -1.904  -3.042  24.378  0.00  0.00    +0.005 A 
ATOM     28  C   UNL     1      -0.913  -2.329  25.057  0.00  0.00    +0.002 A 
ATOM     29  C   UNL     1      -4.230  -3.337  23.529  0.00  0.00    +0.046 C 
ATOM     33  H   UNL     1      -2.652   1.276  26.501  0.00  0.00    +0.167 HD
ENDBRANCH  16  20
ENDBRANCH  11  16
TORSDOF 10
ENDMDL
MODEL 5
REMARK VINA RESULT:      -1.6      1.749      4.572
REMARK  Name = 71693201
REMARK  14 active torsions:
REMARK  status: ('A' for Active; 'I' for Inactive)
REMARK    1  A    between atoms: O_2  and  C_25
REMARK    2  A    between atoms: O_2  and  C_30
REMARK    3  A    between atoms: O_3  and  C_31
REMARK    4  A    between atoms: N_5  and  C_15
REMARK    5  A    between atoms: C_8  and  C_12
REMARK    6  A    between atoms: C_9  and  C_15
REMARK    7  A    between atoms: C_11  and  C_16
REMARK    8  A    between atoms: C_12  and  C_17
REMARK    9  A    between atoms: C_12  and  C_18
REMARK   10  A    between atoms: C_13  and  C_19
REMARK   11  A    between atoms: C_16  and  C_20
REMARK   12  A    between atoms: C_21  and  C_25
REMARK   13  A    between atoms: C_24  and  C_29
REMARK   14  A    between atoms: C_30  and  C_31
REMARK                            x       y       z     vdW  Elec       q    Type
REMARK                         _______ _______ _______ _____ _____    ______ ____
ROOT
ATOM      8  C   UNL     1      -0.708   0.535  24.452  0.00  0.00    +0.000 C 
ATOM      9  C   UNL     1       0.396  -0.413  23.917  0.00  0.00    +0.032 C 
ATOM     10  C   UNL     1      -1.555  -0.177  25.518  0.00  0.00    +0.012 C 
ATOM     11  C   UNL     1      -2.227  -1.452  24.973  0.00  0.00    +0.022 C 
ATOM     13  C   UNL     1      -1.252  -2.314  24.195  0.00  0.00    -0.073 C 
ATOM     14  C   UNL     1      -0.079  -1.836  23.744  0.00  0.00    -0.022 C 
ATOM     19  C   UNL     1      -1.638  -3.752  23.989  0.00  0.00    +0.039 C 
ENDROOT
BRANCH   8  12
ATOM     12  C   UNL     1      -0.119   1.823  25.034  0.00  0.00    -0.013 C 
ATOM     17  C   UNL     1      -0.450   3.012  24.137  0.00  0.00    +0.007 C 
ATOM     18  C   UNL     1      -0.635   2.053  26.449  0.00  0.00    +0.007 C 
ENDBRANCH   8  12
BRANCH   9  15
ATOM     15  C   UNL     1       0.969   0.100  22.590  0.00  0.00    +0.112 C 
BRANCH  15   5
ATOM      1  O   UNL     1       2.970   2.152  22.977  0.00  0.00    -0.273 OA
ATOM      5  N   UNL     1       2.388  -0.062  22.554  0.00  0.00    -0.313 N 
ATOM     21  C   UNL     1       3.286   0.986  22.753  0.00  0.00    +0.239 C 
ATOM     32  H   UNL     1       2.757  -1.002  22.440  0.00  0.00    +0.149 HD
BRANCH  21  25
ATOM     25  C   UNL     1       4.727   0.531  22.662  0.00  0.00    +0.256 C 
BRANCH  25   2
ATOM      2  O   UNL     1       5.431   0.865  23.839  0.00  0.00    -0.359 OA
BRANCH   2  30
ATOM     30  C   UNL     1       5.474  -0.222  24.760  0.00  0.00    +0.280 C 
BRANCH  30  31
ATOM      4  O   UNL     1       6.046  -2.142  23.385  0.00  0.00    -0.248 OA
ATOM     31  C   UNL     1       5.223  -1.514  24.033  0.00  0.00    +0.331 C 
BRANCH  31   3
ATOM      3  O   UNL     1       3.932  -1.899  24.195  0.00  0.00    -0.479 OA
ATOM     34  H   UNL     1       3.507  -2.126  23.341  0.00  0.00    +0.295 HD
ENDBRANCH  31   3
ENDBRANCH  30  31
ENDBRANCH   2  30
ENDBRANCH  25   2
ENDBRANCH  21  25
ENDBRANCH  15   5
ENDBRANCH   9  15
BRANCH  11  16
ATOM     16  C   UNL     1      -3.454  -1.108  24.122  0.00  0.00    +0.082 C 
BRANCH  16  20
ATOM      6  N   UNL     1      -3.497   1.365  23.749  0.00  0.00    -0.342 N 
ATOM      7  N   UNL     1      -4.866   0.598  25.323  0.00  0.00    -0.232 NA
ATOM     20  C   UNL     1      -3.963   0.273  24.425  0.00  0.00    +0.109 A 
ATOM     22  C   UNL     1      -4.142   2.470  24.244  0.00  0.00    +0.066 A 
ATOM     23  C   UNL     1      -4.991   1.965  25.224  0.00  0.00    +0.092 A 
ATOM     24  C   UNL     1      -5.813   2.851  25.942  0.00  0.00    -0.023 A 
ATOM     26  C   UNL     1      -4.059   3.826  23.927  0.00  0.00    +0.028 A 
ATOM     27  C   UNL     1      -5.746   4.217  25.640  0.00  0.00    +0.005 A 
ATOM     28  C   UNL     1      -4.884   4.694  24.650  0.00  0.00    +0.002 A 
ATOM     29  C   UNL     1      -6.751   2.390  27.009  0.00  0.00    +0.046 C 
ATOM     33  H   UNL     1      -2.801   1.363  23.015  0.00  0.00    +0.167 HD
ENDBRANCH  16  20
ENDBRANCH  11  16
TORSDOF 10
ENDMDL
MODEL 6
REMARK VINA RESULT:      -1.5      3.023      7.000
REMARK  Name = 71693201
REMARK  14 active torsions:
REMARK  status: ('A' for Active; 'I' for Inactive)
REMARK    1  A    between atoms: O_2  and  C_25
REMARK    2  A    between atoms: O_2  and  C_30
REMARK    3  A    between atoms: O_3  and  C_31
REMARK    4  A    between atoms: N_5  and  C_15
REMARK    5  A    between atoms: C_8  and  C_12
REMARK    6  A    between atoms: C_9  and  C_15
REMARK    7  A    between atoms: C_11  and  C_16
REMARK    8  A    between atoms: C_12  and  C_17
REMARK    9  A    between atoms: C_12  and  C_18
REMARK   10  A    between atoms: C_13  and  C_19
REMARK   11  A    between atoms: C_16  and  C_20
REMARK   12  A    between atoms: C_21  and  C_25
REMARK   13  A    between atoms: C_24  and  C_29
REMARK   14  A    between atoms: C_30  and  C_31
REMARK                            x       y       z     vdW  Elec       q    Type
REMARK                         _______ _______ _______ _____ _____    ______ ____
ROOT
ATOM      8  C   UNL     1      -3.118  -1.301  24.368  0.00  0.00    +0.000 C 
ATOM      9  C   UNL     1      -3.688  -0.123  25.198  0.00  0.00    +0.032 C 
ATOM     10  C   UNL     1      -1.726  -1.695  24.884  0.00  0.00    +0.012 C 
ATOM     11  C   UNL     1      -0.727  -0.524  24.822  0.00  0.00    +0.022 C 
ATOM     13  C   UNL     1      -1.321   0.753  25.383  0.00  0.00    -0.073 C 
ATOM     14  C   UNL     1      -2.645   0.908  25.557  0.00  0.00    -0.022 C 
ATOM     19  C   UNL     1      -0.351   1.831  25.783  0.00  0.00    +0.039 C 
ENDROOT
BRANCH   8  12
ATOM     12  C   UNL     1      -4.045  -2.519  24.396  0.00  0.00    -0.013 C 
ATOM     17  C   UNL     1      -4.643  -2.764  23.014  0.00  0.00    +0.007 C 
ATOM     18  C   UNL     1      -3.293  -3.750  24.886  0.00  0.00    +0.007 C 
ENDBRANCH   8  12
BRANCH   9  15
ATOM     15  C   UNL     1      -4.850   0.559  24.465  0.00  0.00    +0.112 C 
BRANCH  15   5
ATOM      1  O   UNL     1      -6.455   1.863  26.486  0.00  0.00    -0.273 OA
ATOM      5  N   UNL     1      -4.890   1.955  24.765  0.00  0.00    -0.313 N 
ATOM     21  C   UNL     1      -5.696   2.503  25.762  0.00  0.00    +0.239 C 
ATOM     32  H   UNL     1      -4.251   2.568  24.267  0.00  0.00    +0.149 HD
BRANCH  21  25
ATOM     25  C   UNL     1      -5.539   4.005  25.864  0.00  0.00    +0.256 C 
BRANCH  25   2
ATOM      2  O   UNL     1      -4.431   4.444  25.106  0.00  0.00    -0.359 OA
BRANCH   2  30
ATOM     30  C   UNL     1      -3.226   4.425  25.867  0.00  0.00    +0.280 C 
BRANCH  30  31
ATOM      4  O   UNL     1      -1.069   5.250  25.113  0.00  0.00    -0.248 OA
ATOM     31  C   UNL     1      -2.042   4.530  24.947  0.00  0.00    +0.331 C 
BRANCH  31   3
ATOM      3  O   UNL     1      -2.199   3.701  23.884  0.00  0.00    -0.479 OA
ATOM     34  H   UNL     1      -1.575   3.912  23.159  0.00  0.00    +0.295 HD
ENDBRANCH  31   3
ENDBRANCH  30  31
ENDBRANCH   2  30
ENDBRANCH  25   2
ENDBRANCH  21  25
ENDBRANCH  15   5
ENDBRANCH   9  15
BRANCH  11  16
ATOM     16  C   UNL     1      -0.216  -0.310  23.393  0.00  0.00    +0.082 C 
BRANCH  16  20
ATOM      6  N   UNL     1       1.902   0.960  22.998  0.00  0.00    -0.342 N 
ATOM      7  N   UNL     1       2.144  -1.153  23.642  0.00  0.00    -0.232 NA
ATOM     20  C   UNL     1       1.281  -0.204  23.355  0.00  0.00    +0.109 A 
ATOM     22  C   UNL     1       3.256   0.748  23.058  0.00  0.00    +0.066 A 
ATOM     23  C   UNL     1       3.381  -0.577  23.462  0.00  0.00    +0.092 A 
ATOM     24  C   UNL     1       4.664  -1.126  23.624  0.00  0.00    -0.023 A 
ATOM     26  C   UNL     1       4.348   1.577  22.801  0.00  0.00    +0.028 A 
ATOM     27  C   UNL     1       5.776  -0.312  23.372  0.00  0.00    +0.005 A 
ATOM     28  C   UNL     1       5.618   1.016  22.967  0.00  0.00    +0.002 A 
ATOM     29  C   UNL     1       4.885  -2.539  24.054  0.00  0.00    +0.046 C 
ATOM     33  H   UNL     1       1.447   1.825  22.736  0.00  0.00    +0.167 HD
ENDBRANCH  16  20
ENDBRANCH  11  16
TORSDOF 10
ENDMDL
MODEL 7
REMARK VINA RESULT:      -1.1      2.874      6.907
REMARK  Name = 71693201
REMARK  14 active torsions:
REMARK  status: ('A' for Active; 'I' for Inactive)
REMARK    1  A    between atoms: O_2  and  C_25
REMARK    2  A    between atoms: O_2  and  C_30
REMARK    3  A    between atoms: O_3  and  C_31
REMARK    4  A    between atoms: N_5  and  C_15
REMARK    5  A    between atoms: C_8  and  C_12
REMARK    6  A    between atoms: C_9  and  C_15
REMARK    7  A    between atoms: C_11  and  C_16
REMARK    8  A    between atoms: C_12  and  C_17
REMARK    9  A    between atoms: C_12  and  C_18
REMARK   10  A    between atoms: C_13  and  C_19
REMARK   11  A    between atoms: C_16  and  C_20
REMARK   12  A    between atoms: C_21  and  C_25
REMARK   13  A    between atoms: C_24  and  C_29
REMARK   14  A    between atoms: C_30  and  C_31
REMARK                            x       y       z     vdW  Elec       q    Type
REMARK                         _______ _______ _______ _____ _____    ______ ____
ROOT
ATOM      8  C   UNL     1      -3.256  -1.453  24.362  0.00  0.00    +0.000 C 
ATOM      9  C   UNL     1      -3.803  -0.334  25.284  0.00  0.00    +0.032 C 
ATOM     10  C   UNL     1      -1.865  -1.903  24.832  0.00  0.00    +0.012 C 
ATOM     11  C   UNL     1      -0.851  -0.742  24.848  0.00  0.00    +0.022 C 
ATOM     13  C   UNL     1      -1.423   0.496  25.509  0.00  0.00    -0.073 C 
ATOM     14  C   UNL     1      -2.743   0.654  25.708  0.00  0.00    -0.022 C 
ATOM     19  C   UNL     1      -0.435   1.529  25.979  0.00  0.00    +0.039 C 
ENDROOT
BRANCH   8  12
ATOM     12  C   UNL     1      -4.199  -2.658  24.308  0.00  0.00    -0.013 C 
ATOM     17  C   UNL     1      -4.672  -2.900  22.878  0.00  0.00    +0.007 C 
ATOM     18  C   UNL     1      -3.512  -3.898  24.868  0.00  0.00    +0.007 C 
ENDBRANCH   8  12
BRANCH   9  15
ATOM     15  C   UNL     1      -4.962   0.415  24.615  0.00  0.00    +0.112 C 
BRANCH  15   5
ATOM      1  O   UNL     1      -6.287   2.134  26.527  0.00  0.00    -0.273 OA
ATOM      5  N   UNL     1      -4.804   1.828  24.760  0.00  0.00    -0.313 N 
ATOM     21  C   UNL     1      -5.485   2.584  25.713  0.00  0.00    +0.239 C 
ATOM     32  H   UNL     1      -4.112   2.291  24.177  0.00  0.00    +0.149 HD
BRANCH  21  25
ATOM     25  C   UNL     1      -5.125   4.053  25.644  0.00  0.00    +0.256 C 
BRANCH  25   2
ATOM      2  O   UNL     1      -3.949   4.244  24.886  0.00  0.00    -0.359 OA
BRANCH   2  30
ATOM     30  C   UNL     1      -2.807   4.436  25.717  0.00  0.00    +0.280 C 
BRANCH  30  31
ATOM      4  O   UNL     1      -0.690   5.372  24.979  0.00  0.00    -0.248 OA
ATOM     31  C   UNL     1      -1.570   4.531  24.869  0.00  0.00    +0.331 C 
BRANCH  31   3
ATOM      3  O   UNL     1      -1.558   3.538  23.944  0.00  0.00    -0.479 OA
ATOM     34  H   UNL     1      -1.966   3.820  23.099  0.00  0.00    +0.295 HD
ENDBRANCH  31   3
ENDBRANCH  30  31
ENDBRANCH   2  30
ENDBRANCH  25   2
ENDBRANCH  21  25
ENDBRANCH  15   5
ENDBRANCH   9  15
BRANCH  11  16
ATOM     16  C   UNL     1      -0.351  -0.427  23.434  0.00  0.00    +0.082 C 
BRANCH  16  20
ATOM      6  N   UNL     1       1.933  -1.369  23.821  0.00  0.00    -0.342 N 
ATOM      7  N   UNL     1       1.861   0.677  22.954  0.00  0.00    -0.232 NA
ATOM     20  C   UNL     1       1.147  -0.338  23.388  0.00  0.00    +0.109 A 
ATOM     22  C   UNL     1       3.242  -0.994  23.655  0.00  0.00    +0.066 A 
ATOM     23  C   UNL     1       3.171   0.284  23.113  0.00  0.00    +0.092 A 
ATOM     24  C   UNL     1       4.361   0.971  22.816  0.00  0.00    -0.023 A 
ATOM     26  C   UNL     1       4.446  -1.646  23.925  0.00  0.00    +0.028 A 
ATOM     27  C   UNL     1       5.582   0.336  23.078  0.00  0.00    +0.005 A 
ATOM     28  C   UNL     1       5.621  -0.950  23.624  0.00  0.00    +0.002 A 
ATOM     29  C   UNL     1       4.371   2.346  22.233  0.00  0.00    +0.046 C 
ATOM     33  H   UNL     1       1.610  -2.250  24.196  0.00  0.00    +0.167 HD
ENDBRANCH  16  20
ENDBRANCH  11  16
TORSDOF 10
ENDMDL
MODEL 8
REMARK VINA RESULT:      -1.0      2.988      3.864
REMARK  Name = 71693201
REMARK  14 active torsions:
REMARK  status: ('A' for Active; 'I' for Inactive)
REMARK    1  A    between atoms: O_2  and  C_25
REMARK    2  A    between atoms: O_2  and  C_30
REMARK    3  A    between atoms: O_3  and  C_31
REMARK    4  A    between atoms: N_5  and  C_15
REMARK    5  A    between atoms: C_8  and  C_12
REMARK    6  A    between atoms: C_9  and  C_15
REMARK    7  A    between atoms: C_11  and  C_16
REMARK    8  A    between atoms: C_12  and  C_17
REMARK    9  A    between atoms: C_12  and  C_18
REMARK   10  A    between atoms: C_13  and  C_19
REMARK   11  A    between atoms: C_16  and  C_20
REMARK   12  A    between atoms: C_21  and  C_25
REMARK   13  A    between atoms: C_24  and  C_29
REMARK   14  A    between atoms: C_30  and  C_31
REMARK                            x       y       z     vdW  Elec       q    Type
REMARK                         _______ _______ _______ _____ _____    ______ ____
ROOT
ATOM      8  C   UNL     1      -2.829   2.913  23.691  0.00  0.00    +0.000 C 
ATOM      9  C   UNL     1      -2.982   4.451  23.791  0.00  0.00    +0.032 C 
ATOM     10  C   UNL     1      -4.200   2.250  23.485  0.00  0.00    +0.012 C 
ATOM     11  C   UNL     1      -5.181   2.571  24.629  0.00  0.00    +0.022 C 
ATOM     13  C   UNL     1      -5.186   4.048  24.968  0.00  0.00    -0.073 C 
ATOM     14  C   UNL     1      -4.203   4.875  24.573  0.00  0.00    -0.022 C 
ATOM     19  C   UNL     1      -6.375   4.561  25.734  0.00  0.00    +0.039 C 
ENDROOT
BRANCH   8  12
ATOM     12  C   UNL     1      -1.882   2.507  22.559  0.00  0.00    -0.013 C 
ATOM     17  C   UNL     1      -1.007   1.333  22.990  0.00  0.00    +0.007 C 
ATOM     18  C   UNL     1      -2.672   2.160  21.302  0.00  0.00    +0.007 C 
ENDBRANCH   8  12
BRANCH   9  15
ATOM     15  C   UNL     1      -1.733   5.092  24.407  0.00  0.00    +0.112 C 
BRANCH  15   5
ATOM      1  O   UNL     1      -2.055   3.563  26.841  0.00  0.00    -0.273 OA
ATOM      5  N   UNL     1      -0.850   4.092  24.921  0.00  0.00    -0.313 N 
ATOM     21  C   UNL     1      -1.083   3.399  26.108  0.00  0.00    +0.239 C 
ATOM     32  H   UNL     1      -0.046   3.833  24.357  0.00  0.00    +0.149 HD
BRANCH  21  25
ATOM     25  C   UNL     1       0.012   2.398  26.411  0.00  0.00    +0.256 C 
BRANCH  25   2
ATOM      2  O   UNL     1       0.121   2.184  27.802  0.00  0.00    -0.359 OA
BRANCH   2  30
ATOM     30  C   UNL     1       1.436   2.457  28.280  0.00  0.00    +0.280 C 
BRANCH  30  31
ATOM      4  O   UNL     1       0.820   2.965  30.574  0.00  0.00    -0.248 OA
ATOM     31  C   UNL     1       1.474   2.312  29.776  0.00  0.00    +0.331 C 
BRANCH  31   3
ATOM      3  O   UNL     1       2.350   1.338  30.130  0.00  0.00    -0.479 OA
ATOM     34  H   UNL     1       3.259   1.687  30.245  0.00  0.00    +0.295 HD
ENDBRANCH  31   3
ENDBRANCH  30  31
ENDBRANCH   2  30
ENDBRANCH  25   2
ENDBRANCH  21  25
ENDBRANCH  15   5
ENDBRANCH   9  15
BRANCH  11  16
ATOM     16  C   UNL     1      -4.877   1.724  25.870  0.00  0.00    +0.082 C 
BRANCH  16  20
ATOM      6  N   UNL     1      -2.702   0.489  25.898  0.00  0.00    -0.342 N 
ATOM      7  N   UNL     1      -4.387  -0.537  24.875  0.00  0.00    -0.232 NA
ATOM     20  C   UNL     1      -4.017   0.540  25.529  0.00  0.00    +0.109 A 
ATOM     22  C   UNL     1      -2.189  -0.701  25.450  0.00  0.00    +0.066 A 
ATOM     23  C   UNL     1      -3.259  -1.324  24.816  0.00  0.00    +0.092 A 
ATOM     24  C   UNL     1      -3.070  -2.589  24.233  0.00  0.00    -0.023 A 
ATOM     26  C   UNL     1      -0.918  -1.270  25.544  0.00  0.00    +0.028 A 
ATOM     27  C   UNL     1      -1.802  -3.179  24.315  0.00  0.00    +0.005 A 
ATOM     28  C   UNL     1      -0.747  -2.529  24.959  0.00  0.00    +0.002 A 
ATOM     29  C   UNL     1      -4.167  -3.323  23.534  0.00  0.00    +0.046 C 
ATOM     33  H   UNL     1      -2.196   1.200  26.409  0.00  0.00    +0.167 HD
ENDBRANCH  16  20
ENDBRANCH  11  16
TORSDOF 10
ENDMDL
MODEL 9
REMARK VINA RESULT:      -0.8      2.153      5.223
REMARK  Name = 71693201
REMARK  14 active torsions:
REMARK  status: ('A' for Active; 'I' for Inactive)
REMARK    1  A    between atoms: O_2  and  C_25
REMARK    2  A    between atoms: O_2  and  C_30
REMARK    3  A    between atoms: O_3  and  C_31
REMARK    4  A    between atoms: N_5  and  C_15
REMARK    5  A    between atoms: C_8  and  C_12
REMARK    6  A    between atoms: C_9  and  C_15
REMARK    7  A    between atoms: C_11  and  C_16
REMARK    8  A    between atoms: C_12  and  C_17
REMARK    9  A    between atoms: C_12  and  C_18
REMARK   10  A    between atoms: C_13  and  C_19
REMARK   11  A    between atoms: C_16  and  C_20
REMARK   12  A    between atoms: C_21  and  C_25
REMARK   13  A    between atoms: C_24  and  C_29
REMARK   14  A    between atoms: C_30  and  C_31
REMARK                            x       y       z     vdW  Elec       q    Type
REMARK                         _______ _______ _______ _____ _____    ______ ____
ROOT
ATOM      8  C   UNL     1      -3.672   3.115  25.551  0.00  0.00    +0.000 C 
ATOM      9  C   UNL     1      -3.732   3.437  24.036  0.00  0.00    +0.032 C 
ATOM     10  C   UNL     1      -2.680   4.049  26.259  0.00  0.00    +0.012 C 
ATOM     11  C   UNL     1      -1.257   3.938  25.678  0.00  0.00    +0.022 C 
ATOM     13  C   UNL     1      -1.263   3.977  24.163  0.00  0.00    -0.073 C 
ATOM     14  C   UNL     1      -2.381   3.765  23.447  0.00  0.00    -0.022 C 
ATOM     19  C   UNL     1       0.040   4.313  23.491  0.00  0.00    +0.039 C 
ENDROOT
BRANCH   8  12
ATOM     12  C   UNL     1      -5.049   3.224  26.211  0.00  0.00    -0.013 C 
ATOM     17  C   UNL     1      -5.853   4.360  25.583  0.00  0.00    +0.007 C 
ATOM     18  C   UNL     1      -5.801   1.903  26.097  0.00  0.00    +0.007 C 
ENDBRANCH   8  12
BRANCH   9  15
ATOM     15  C   UNL     1      -4.366   2.282  23.250  0.00  0.00    +0.112 C 
BRANCH  15   5
ATOM      1  O   UNL     1      -5.130  -0.344  24.189  0.00  0.00    -0.273 OA
ATOM      5  N   UNL     1      -3.543   1.115  23.312  0.00  0.00    -0.313 N 
ATOM     21  C   UNL     1      -3.994  -0.118  23.780  0.00  0.00    +0.239 C 
ATOM     32  H   UNL     1      -2.601   1.176  22.936  0.00  0.00    +0.149 HD
BRANCH  21  25
ATOM     25  C   UNL     1      -2.915  -1.179  23.733  0.00  0.00    +0.256 C 
BRANCH  25   2
ATOM      2  O   UNL     1      -3.118  -2.144  24.744  0.00  0.00    -0.359 OA
BRANCH   2  30
ATOM     30  C   UNL     1      -1.889  -2.707  25.196  0.00  0.00    +0.280 C 
BRANCH  30  31
ATOM      4  O   UNL     1      -1.452  -0.748  26.565  0.00  0.00    -0.248 OA
ATOM     31  C   UNL     1      -1.045  -1.639  25.835  0.00  0.00    +0.331 C 
BRANCH  31   3
ATOM      3  O   UNL     1       0.256  -1.800  25.488  0.00  0.00    -0.479 OA
ATOM     34  H   UNL     1       0.615  -2.658  25.798  0.00  0.00    +0.295 HD
ENDBRANCH  31   3
ENDBRANCH  30  31
ENDBRANCH   2  30
ENDBRANCH  25   2
ENDBRANCH  21  25
ENDBRANCH  15   5
ENDBRANCH   9  15
BRANCH  11  16
ATOM     16  C   UNL     1      -0.550   2.679  26.191  0.00  0.00    +0.082 C 
BRANCH  16  20
ATOM      6  N   UNL     1      -0.644   1.067  24.281  0.00  0.00    -0.342 N 
ATOM      7  N   UNL     1       1.352   1.944  24.712  0.00  0.00    -0.232 NA
ATOM     20  C   UNL     1       0.087   1.911  25.068  0.00  0.00    +0.109 A 
ATOM     22  C   UNL     1       0.205   0.518  23.354  0.00  0.00    +0.066 A 
ATOM     23  C   UNL     1       1.444   1.080  23.644  0.00  0.00    +0.092 A 
ATOM     24  C   UNL     1       2.558   0.723  22.866  0.00  0.00    -0.023 A 
ATOM     26  C   UNL     1       0.001  -0.395  22.319  0.00  0.00    +0.028 A 
ATOM     27  C   UNL     1       2.377  -0.192  21.820  0.00  0.00    +0.005 A 
ATOM     28  C   UNL     1       1.120  -0.740  21.554  0.00  0.00    +0.002 A 
ATOM     29  C   UNL     1       3.922   1.280  23.111  0.00  0.00    +0.046 C 
ATOM     33  H   UNL     1      -1.635   0.880  24.363  0.00  0.00    +0.167 HD
ENDBRANCH  16  20
ENDBRANCH  11  16
TORSDOF 10
ENDMDL
