MODEL 1
REMARK VINA RESULT:      -5.2      0.000      0.000
REMARK  Name = 45784207
REMARK  4 active torsions:
REMARK  status: ('A' for Active; 'I' for Inactive)
REMARK    1  A    between atoms: N_4  and  C_11
REMARK    2  A    between atoms: N_6  and  C_16
REMARK    3  A    between atoms: C_7  and  C_12
REMARK    4  A    between atoms: C_11  and  C_13
REMARK                            x       y       z     vdW  Elec       q    Type
REMARK                         _______ _______ _______ _____ _____    ______ ____
ROOT
ATOM      4  N   UNL     1      -5.762 -10.528  17.018  0.00  0.00    -0.297 NA
ATOM      7  C   UNL     1      -4.991 -10.781  14.817  0.00  0.00    +0.090 C 
ATOM      8  C   UNL     1      -3.876 -10.174  15.687  0.00  0.00    +0.029 C 
ATOM      9  C   UNL     1      -6.270 -10.602  15.647  0.00  0.00    +0.097 C 
ATOM     10  C   UNL     1      -4.583  -9.665  16.936  0.00  0.00    +0.085 C 
ENDROOT
BRANCH   7  12
ATOM      1  O   UNL     1      -3.985 -10.278  12.655  0.00  0.00    -0.439 OA
ATOM      5  N   UNL     1      -6.141  -9.614  12.869  0.00  0.00    -0.213 NA
ATOM     12  C   UNL     1      -5.103 -10.195  13.428  0.00  0.00    +0.201 A 
ATOM     14  C   UNL     1      -4.361  -9.686  11.484  0.00  0.00    +0.155 A 
ATOM     15  C   UNL     1      -5.682  -9.281  11.618  0.00  0.00    +0.110 A 
ATOM     18  C   UNL     1      -3.590  -9.504  10.342  0.00  0.00    +0.048 A 
ATOM     19  C   UNL     1      -6.307  -8.639  10.539  0.00  0.00    +0.031 A 
ATOM     23  C   UNL     1      -4.229  -8.862   9.276  0.00  0.00    +0.004 A 
ATOM     24  C   UNL     1      -5.560  -8.437   9.370  0.00  0.00    +0.002 A 
ENDBRANCH   7  12
BRANCH   4  11
ATOM     11  C   UNL     1      -6.755 -10.020  17.952  0.00  0.00    +0.121 C 
BRANCH  11  13
ATOM     13  C   UNL     1      -8.081  -9.773  17.283  0.00  0.00    -0.003 A 
ATOM     16  C   UNL     1      -9.284 -10.041  17.935  0.00  0.00    +0.131 A 
ATOM     17  C   UNL     1      -8.089  -9.266  15.984  0.00  0.00    +0.007 A 
ATOM     20  C   UNL     1     -10.497  -9.803  17.288  0.00  0.00    +0.033 A 
ATOM     21  C   UNL     1      -9.302  -9.027  15.337  0.00  0.00    +0.000 A 
ATOM     22  C   UNL     1     -10.505  -9.295  15.988  0.00  0.00    +0.002 A 
BRANCH  16   6
ATOM      2  O   UNL     1     -10.402 -10.775  19.814  0.00  0.00    -0.126 OA
ATOM      3  O   UNL     1      -8.208 -10.781  19.836  0.00  0.00    -0.126 OA
ATOM      6  N   UNL     1      -9.298 -10.558  19.260  0.00  0.00    +0.057 N 
ENDBRANCH  16   6
ENDBRANCH  11  13
ENDBRANCH   4  11
TORSDOF 4
ENDMDL
MODEL 2
REMARK VINA RESULT:      -5.1     14.466     16.282
REMARK  Name = 45784207
REMARK  4 active torsions:
REMARK  status: ('A' for Active; 'I' for Inactive)
REMARK    1  A    between atoms: N_4  and  C_11
REMARK    2  A    between atoms: N_6  and  C_16
REMARK    3  A    between atoms: C_7  and  C_12
REMARK    4  A    between atoms: C_11  and  C_13
REMARK                            x       y       z     vdW  Elec       q    Type
REMARK                         _______ _______ _______ _____ _____    ______ ____
ROOT
ATOM      4  N   UNL     1      -2.412   0.006  24.557  0.00  0.00    -0.297 NA
ATOM      7  C   UNL     1      -0.477  -0.568  23.362  0.00  0.00    +0.090 C 
ATOM      8  C   UNL     1      -0.897  -1.746  24.258  0.00  0.00    +0.029 C 
ATOM      9  C   UNL     1      -1.259   0.634  23.911  0.00  0.00    +0.097 C 
ATOM     10  C   UNL     1      -1.862  -1.146  25.272  0.00  0.00    +0.085 C 
ENDROOT
BRANCH   7  12
ATOM      1  O   UNL     1       1.805  -1.320  23.773  0.00  0.00    -0.439 OA
ATOM      5  N   UNL     1       1.645   0.738  22.836  0.00  0.00    -0.213 NA
ATOM     12  C   UNL     1       1.013  -0.320  23.295  0.00  0.00    +0.201 A 
ATOM     14  C   UNL     1       3.070  -0.840  23.594  0.00  0.00    +0.155 A 
ATOM     15  C   UNL     1       2.968   0.420  23.021  0.00  0.00    +0.110 A 
ATOM     18  C   UNL     1       4.267  -1.469  23.914  0.00  0.00    +0.048 A 
ATOM     19  C   UNL     1       4.143   1.131  22.734  0.00  0.00    +0.031 A 
ATOM     23  C   UNL     1       5.429  -0.746  23.622  0.00  0.00    +0.004 A 
ATOM     24  C   UNL     1       5.371   0.528  23.044  0.00  0.00    +0.002 A 
ENDBRANCH   7  12
BRANCH   4  11
ATOM     11  C   UNL     1      -3.121   0.920  25.440  0.00  0.00    +0.121 C 
BRANCH  11  13
ATOM     13  C   UNL     1      -2.577   2.320  25.352  0.00  0.00    -0.003 A 
ATOM     16  C   UNL     1      -3.420   3.415  25.163  0.00  0.00    +0.131 A 
ATOM     17  C   UNL     1      -1.200   2.511  25.463  0.00  0.00    +0.007 A 
ATOM     20  C   UNL     1      -2.885   4.702  25.085  0.00  0.00    +0.033 A 
ATOM     21  C   UNL     1      -0.665   3.797  25.385  0.00  0.00    +0.000 A 
ATOM     22  C   UNL     1      -1.508   4.892  25.196  0.00  0.00    +0.002 A 
BRANCH  16   6
ATOM      2  O   UNL     1      -5.583   3.948  25.758  0.00  0.00    -0.126 OA
ATOM      3  O   UNL     1      -5.270   2.394  24.241  0.00  0.00    -0.126 OA
ATOM      6  N   UNL     1      -4.827   3.244  25.048  0.00  0.00    +0.057 N 
ENDBRANCH  16   6
ENDBRANCH  11  13
ENDBRANCH   4  11
TORSDOF 4
ENDMDL
MODEL 3
REMARK VINA RESULT:      -4.5     14.903     16.395
REMARK  Name = 45784207
REMARK  4 active torsions:
REMARK  status: ('A' for Active; 'I' for Inactive)
REMARK    1  A    between atoms: N_4  and  C_11
REMARK    2  A    between atoms: N_6  and  C_16
REMARK    3  A    between atoms: C_7  and  C_12
REMARK    4  A    between atoms: C_11  and  C_13
REMARK                            x       y       z     vdW  Elec       q    Type
REMARK                         _______ _______ _______ _____ _____    ______ ____
ROOT
ATOM      4  N   UNL     1      -1.921   1.125  23.306  0.00  0.00    -0.297 NA
ATOM      7  C   UNL     1       0.006  -0.205  23.172  0.00  0.00    +0.090 C 
ATOM      8  C   UNL     1      -0.682  -0.430  24.529  0.00  0.00    +0.029 C 
ATOM      9  C   UNL     1      -0.624   1.084  22.628  0.00  0.00    +0.097 C 
ATOM     10  C   UNL     1      -1.635   0.747  24.690  0.00  0.00    +0.085 C 
ENDROOT
BRANCH   7  12
ATOM      1  O   UNL     1       2.140  -1.266  23.683  0.00  0.00    -0.439 OA
ATOM      5  N   UNL     1       2.305   0.852  22.894  0.00  0.00    -0.213 NA
ATOM     12  C   UNL     1       1.515  -0.144  23.227  0.00  0.00    +0.201 A 
ATOM     14  C   UNL     1       3.464  -0.939  23.629  0.00  0.00    +0.155 A 
ATOM     15  C   UNL     1       3.562   0.358  23.146  0.00  0.00    +0.110 A 
ATOM     18  C   UNL     1       4.547  -1.735  23.984  0.00  0.00    +0.048 A 
ATOM     19  C   UNL     1       4.833   0.931  22.996  0.00  0.00    +0.031 A 
ATOM     23  C   UNL     1       5.807  -1.147  23.828  0.00  0.00    +0.004 A 
ATOM     24  C   UNL     1       5.950   0.158  23.345  0.00  0.00    +0.002 A 
ENDBRANCH   7  12
BRANCH   4  11
ATOM     11  C   UNL     1      -2.559   2.430  23.209  0.00  0.00    +0.121 C 
BRANCH  11  13
ATOM     13  C   UNL     1      -3.619   2.616  24.261  0.00  0.00    -0.003 A 
ATOM     16  C   UNL     1      -3.406   3.435  25.369  0.00  0.00    +0.131 A 
ATOM     17  C   UNL     1      -4.834   1.948  24.110  0.00  0.00    +0.007 A 
ATOM     20  C   UNL     1      -4.408   3.587  26.328  0.00  0.00    +0.033 A 
ATOM     21  C   UNL     1      -5.836   2.100  25.069  0.00  0.00    +0.000 A 
ATOM     22  C   UNL     1      -5.623   2.919  26.177  0.00  0.00    +0.002 A 
BRANCH  16   6
ATOM      2  O   UNL     1      -1.217   3.529  26.089  0.00  0.00    -0.126 OA
ATOM      3  O   UNL     1      -2.083   5.311  25.143  0.00  0.00    -0.126 OA
ATOM      6  N   UNL     1      -2.175   4.126  25.542  0.00  0.00    +0.057 N 
ENDBRANCH  16   6
ENDBRANCH  11  13
ENDBRANCH   4  11
TORSDOF 4
ENDMDL
MODEL 4
REMARK VINA RESULT:      -3.8     14.164     15.836
REMARK  Name = 45784207
REMARK  4 active torsions:
REMARK  status: ('A' for Active; 'I' for Inactive)
REMARK    1  A    between atoms: N_4  and  C_11
REMARK    2  A    between atoms: N_6  and  C_16
REMARK    3  A    between atoms: C_7  and  C_12
REMARK    4  A    between atoms: C_11  and  C_13
REMARK                            x       y       z     vdW  Elec       q    Type
REMARK                         _______ _______ _______ _____ _____    ______ ____
ROOT
ATOM      4  N   UNL     1      -1.333   0.902  24.349  0.00  0.00    -0.297 NA
ATOM      7  C   UNL     1       0.610   0.595  23.072  0.00  0.00    +0.090 C 
ATOM      8  C   UNL     1      -0.219  -0.701  23.068  0.00  0.00    +0.029 C 
ATOM      9  C   UNL     1       0.030   1.422  24.227  0.00  0.00    +0.097 C 
ATOM     10  C   UNL     1      -1.195  -0.550  24.227  0.00  0.00    +0.085 C 
ENDROOT
BRANCH   7  12
ATOM      1  O   UNL     1       2.513  -0.869  23.494  0.00  0.00    -0.439 OA
ATOM      5  N   UNL     1       3.061   1.279  23.022  0.00  0.00    -0.213 NA
ATOM     12  C   UNL     1       2.103   0.393  23.184  0.00  0.00    +0.201 A 
ATOM     14  C   UNL     1       3.873  -0.764  23.530  0.00  0.00    +0.155 A 
ATOM     15  C   UNL     1       4.206   0.551  23.241  0.00  0.00    +0.110 A 
ATOM     18  C   UNL     1       4.792  -1.772  23.802  0.00  0.00    +0.048 A 
ATOM     19  C   UNL     1       5.559   0.919  23.216  0.00  0.00    +0.031 A 
ATOM     23  C   UNL     1       6.137  -1.388  23.773  0.00  0.00    +0.004 A 
ATOM     24  C   UNL     1       6.516  -0.071  23.486  0.00  0.00    +0.002 A 
ENDBRANCH   7  12
BRANCH   4  11
ATOM     11  C   UNL     1      -1.969   1.295  25.598  0.00  0.00    +0.121 C 
BRANCH  11  13
ATOM     13  C   UNL     1      -3.365   1.813  25.378  0.00  0.00    -0.003 A 
ATOM     16  C   UNL     1      -4.433   0.947  25.148  0.00  0.00    +0.131 A 
ATOM     17  C   UNL     1      -3.579   3.191  25.408  0.00  0.00    +0.007 A 
ATOM     20  C   UNL     1      -5.715   1.458  24.947  0.00  0.00    +0.033 A 
ATOM     21  C   UNL     1      -4.861   3.702  25.208  0.00  0.00    +0.000 A 
ATOM     22  C   UNL     1      -5.929   2.836  24.977  0.00  0.00    +0.002 A 
BRANCH  16   6
ATOM      2  O   UNL     1      -3.869  -1.048  26.159  0.00  0.00    -0.126 OA
ATOM      3  O   UNL     1      -4.439  -1.076  24.039  0.00  0.00    -0.126 OA
ATOM      6  N   UNL     1      -4.238  -0.462  25.113  0.00  0.00    +0.057 N 
ENDBRANCH  16   6
ENDBRANCH  11  13
ENDBRANCH   4  11
TORSDOF 4
ENDMDL
MODEL 5
REMARK VINA RESULT:      -2.7      2.878      3.544
REMARK  Name = 45784207
REMARK  4 active torsions:
REMARK  status: ('A' for Active; 'I' for Inactive)
REMARK    1  A    between atoms: N_4  and  C_11
REMARK    2  A    between atoms: N_6  and  C_16
REMARK    3  A    between atoms: C_7  and  C_12
REMARK    4  A    between atoms: C_11  and  C_13
REMARK                            x       y       z     vdW  Elec       q    Type
REMARK                         _______ _______ _______ _____ _____    ______ ____
ROOT
ATOM      4  N   UNL     1      -5.488 -10.377  16.169  0.00  0.00    -0.297 NA
ATOM      7  C   UNL     1      -3.482 -10.778  15.022  0.00  0.00    +0.090 C 
ATOM      8  C   UNL     1      -3.176 -10.431  16.489  0.00  0.00    +0.029 C 
ATOM      9  C   UNL     1      -4.936 -10.332  14.814  0.00  0.00    +0.097 C 
ATOM     10  C   UNL     1      -4.452  -9.789  17.017  0.00  0.00    +0.085 C 
ENDROOT
BRANCH   7  12
ATOM      1  O   UNL     1      -1.635  -9.273  14.507  0.00  0.00    -0.439 OA
ATOM      5  N   UNL     1      -2.456 -10.403  12.722  0.00  0.00    -0.213 NA
ATOM     12  C   UNL     1      -2.531 -10.174  14.015  0.00  0.00    +0.201 A 
ATOM     14  C   UNL     1      -0.921  -8.898  13.406  0.00  0.00    +0.155 A 
ATOM     15  C   UNL     1      -1.426  -9.591  12.315  0.00  0.00    +0.110 A 
ATOM     18  C   UNL     1       0.130  -7.989  13.349  0.00  0.00    +0.048 A 
ATOM     19  C   UNL     1      -0.854  -9.378  11.052  0.00  0.00    +0.031 A 
ATOM     23  C   UNL     1       0.688  -7.789  12.081  0.00  0.00    +0.004 A 
ATOM     24  C   UNL     1       0.209  -8.468  10.955  0.00  0.00    +0.002 A 
ENDBRANCH   7  12
BRANCH   4  11
ATOM     11  C   UNL     1      -6.757  -9.672  16.275  0.00  0.00    +0.121 C 
BRANCH  11  13
ATOM     13  C   UNL     1      -7.638  -9.917  15.080  0.00  0.00    -0.003 A 
ATOM     16  C   UNL     1      -8.984  -9.554  15.084  0.00  0.00    +0.131 A 
ATOM     17  C   UNL     1      -7.081 -10.522  13.953  0.00  0.00    +0.007 A 
ATOM     20  C   UNL     1      -9.775  -9.796  13.960  0.00  0.00    +0.033 A 
ATOM     21  C   UNL     1      -7.872 -10.763  12.829  0.00  0.00    +0.000 A 
ATOM     22  C   UNL     1      -9.219 -10.400  12.833  0.00  0.00    +0.002 A 
BRANCH  16   6
ATOM      2  O   UNL     1      -9.996  -9.661  17.153  0.00  0.00    -0.126 OA
ATOM      3  O   UNL     1      -9.650  -7.686  16.261  0.00  0.00    -0.126 OA
ATOM      6  N   UNL     1      -9.572  -8.937  16.222  0.00  0.00    +0.057 N 
ENDBRANCH  16   6
ENDBRANCH  11  13
ENDBRANCH   4  11
TORSDOF 4
ENDMDL
MODEL 6
REMARK VINA RESULT:      -2.4     14.901     16.487
REMARK  Name = 45784207
REMARK  4 active torsions:
REMARK  status: ('A' for Active; 'I' for Inactive)
REMARK    1  A    between atoms: N_4  and  C_11
REMARK    2  A    between atoms: N_6  and  C_16
REMARK    3  A    between atoms: C_7  and  C_12
REMARK    4  A    between atoms: C_11  and  C_13
REMARK                            x       y       z     vdW  Elec       q    Type
REMARK                         _______ _______ _______ _____ _____    ______ ____
ROOT
ATOM      4  N   UNL     1      -2.545   4.345  25.846  0.00  0.00    -0.297 NA
ATOM      7  C   UNL     1      -0.598   3.073  25.546  0.00  0.00    +0.090 C 
ATOM      8  C   UNL     1      -0.292   4.556  25.273  0.00  0.00    +0.029 C 
ATOM      9  C   UNL     1      -2.130   2.981  25.513  0.00  0.00    +0.097 C 
ATOM     10  C   UNL     1      -1.653   5.210  25.074  0.00  0.00    +0.085 C 
ENDROOT
BRANCH   7  12
ATOM      1  O   UNL     1       1.389   2.332  24.343  0.00  0.00    -0.439 OA
ATOM      5  N   UNL     1      -0.455   1.063  23.990  0.00  0.00    -0.213 NA
ATOM     12  C   UNL     1       0.071   2.102  24.600  0.00  0.00    +0.201 A 
ATOM     14  C   UNL     1       1.727   1.329  23.481  0.00  0.00    +0.155 A 
ATOM     15  C   UNL     1       0.596   0.554  23.267  0.00  0.00    +0.110 A 
ATOM     18  C   UNL     1       2.969   1.094  22.902  0.00  0.00    +0.048 A 
ATOM     19  C   UNL     1       0.685  -0.551  22.409  0.00  0.00    +0.031 A 
ATOM     23  C   UNL     1       3.039  -0.012  22.049  0.00  0.00    +0.004 A 
ATOM     24  C   UNL     1       1.922  -0.820  21.805  0.00  0.00    +0.002 A 
ENDBRANCH   7  12
BRANCH   4  11
ATOM     11  C   UNL     1      -3.949   4.588  25.544  0.00  0.00    +0.121 C 
BRANCH  11  13
ATOM     13  C   UNL     1      -4.729   3.306  25.435  0.00  0.00    -0.003 A 
ATOM     16  C   UNL     1      -4.679   2.520  24.284  0.00  0.00    +0.131 A 
ATOM     17  C   UNL     1      -5.516   2.908  26.516  0.00  0.00    +0.007 A 
ATOM     20  C   UNL     1      -5.414   1.337  24.212  0.00  0.00    +0.033 A 
ATOM     21  C   UNL     1      -6.252   1.725  26.445  0.00  0.00    +0.000 A 
ATOM     22  C   UNL     1      -6.201   0.940  25.293  0.00  0.00    +0.002 A 
BRANCH  16   6
ATOM      2  O   UNL     1      -3.047   2.092  22.711  0.00  0.00    -0.126 OA
ATOM      3  O   UNL     1      -4.038   4.050  22.680  0.00  0.00    -0.126 OA
ATOM      6  N   UNL     1      -3.883   2.907  23.170  0.00  0.00    +0.057 N 
ENDBRANCH  16   6
ENDBRANCH  11  13
ENDBRANCH   4  11
TORSDOF 4
ENDMDL
MODEL 7
REMARK VINA RESULT:      -1.7      4.932      6.754
REMARK  Name = 45784207
REMARK  4 active torsions:
REMARK  status: ('A' for Active; 'I' for Inactive)
REMARK    1  A    between atoms: N_4  and  C_11
REMARK    2  A    between atoms: N_6  and  C_16
REMARK    3  A    between atoms: C_7  and  C_12
REMARK    4  A    between atoms: C_11  and  C_13
REMARK                            x       y       z     vdW  Elec       q    Type
REMARK                         _______ _______ _______ _____ _____    ______ ____
ROOT
ATOM      4  N   UNL     1      -5.146  -9.613  11.436  0.00  0.00    -0.297 NA
ATOM      7  C   UNL     1      -2.846 -10.021  11.217  0.00  0.00    +0.090 C 
ATOM      8  C   UNL     1      -3.354 -10.631  12.535  0.00  0.00    +0.029 C 
ATOM      9  C   UNL     1      -3.960  -9.058  10.782  0.00  0.00    +0.097 C 
ATOM     10  C   UNL     1      -4.701  -9.966  12.785  0.00  0.00    +0.085 C 
ENDROOT
BRANCH   7  12
ATOM      1  O   UNL     1      -1.393  -8.324  12.191  0.00  0.00    -0.439 OA
ATOM      5  N   UNL     1      -0.397  -9.639  10.636  0.00  0.00    -0.213 NA
ATOM     12  C   UNL     1      -1.493  -9.354  11.306  0.00  0.00    +0.201 A 
ATOM     14  C   UNL     1      -0.095  -7.919  12.066  0.00  0.00    +0.155 A 
ATOM     15  C   UNL     1       0.511  -8.725  11.113  0.00  0.00    +0.110 A 
ATOM     18  C   UNL     1       0.539  -6.889  12.751  0.00  0.00    +0.048 A 
ATOM     19  C   UNL     1       1.861  -8.507  10.800  0.00  0.00    +0.031 A 
ATOM     23  C   UNL     1       1.885  -6.686  12.427  0.00  0.00    +0.004 A 
ATOM     24  C   UNL     1       2.535  -7.476  11.472  0.00  0.00    +0.002 A 
ENDBRANCH   7  12
BRANCH   4  11
ATOM     11  C   UNL     1      -6.263  -8.680  11.448  0.00  0.00    +0.121 C 
BRANCH  11  13
ATOM     13  C   UNL     1      -7.584  -9.384  11.297  0.00  0.00    -0.003 A 
ATOM     16  C   UNL     1      -8.305  -9.328  10.105  0.00  0.00    +0.131 A 
ATOM     17  C   UNL     1      -8.085 -10.104  12.382  0.00  0.00    +0.007 A 
ATOM     20  C   UNL     1      -9.527  -9.991   9.996  0.00  0.00    +0.033 A 
ATOM     21  C   UNL     1      -9.308 -10.767  12.273  0.00  0.00    +0.000 A 
ATOM     22  C   UNL     1     -10.029 -10.710  11.081  0.00  0.00    +0.002 A 
BRANCH  16   6
ATOM      2  O   UNL     1      -8.130  -7.394   8.861  0.00  0.00    -0.126 OA
ATOM      3  O   UNL     1      -7.075  -9.186   8.159  0.00  0.00    -0.126 OA
ATOM      6  N   UNL     1      -7.812  -8.600   8.986  0.00  0.00    +0.057 N 
ENDBRANCH  16   6
ENDBRANCH  11  13
ENDBRANCH   4  11
TORSDOF 4
ENDMDL
MODEL 8
REMARK VINA RESULT:      -1.5     15.448     17.634
REMARK  Name = 45784207
REMARK  4 active torsions:
REMARK  status: ('A' for Active; 'I' for Inactive)
REMARK    1  A    between atoms: N_4  and  C_11
REMARK    2  A    between atoms: N_6  and  C_16
REMARK    3  A    between atoms: C_7  and  C_12
REMARK    4  A    between atoms: C_11  and  C_13
REMARK                            x       y       z     vdW  Elec       q    Type
REMARK                         _______ _______ _______ _____ _____    ______ ____
ROOT
ATOM      4  N   UNL     1      -1.829   1.939  23.133  0.00  0.00    -0.297 NA
ATOM      7  C   UNL     1      -0.179   2.637  24.646  0.00  0.00    +0.090 C 
ATOM      8  C   UNL     1       0.343   1.442  23.830  0.00  0.00    +0.029 C 
ATOM      9  C   UNL     1      -1.696   2.629  24.417  0.00  0.00    +0.097 C 
ATOM     10  C   UNL     1      -0.898   0.813  23.212  0.00  0.00    +0.085 C 
ENDROOT
BRANCH   7  12
ATOM      1  O   UNL     1       1.522   2.761  26.387  0.00  0.00    -0.439 OA
ATOM      5  N   UNL     1      -0.592   2.480  27.153  0.00  0.00    -0.213 NA
ATOM     12  C   UNL     1       0.196   2.618  26.110  0.00  0.00    +0.201 A 
ATOM     14  C   UNL     1       1.572   2.708  27.751  0.00  0.00    +0.155 A 
ATOM     15  C   UNL     1       0.276   2.536  28.216  0.00  0.00    +0.110 A 
ATOM     18  C   UNL     1       2.697   2.806  28.560  0.00  0.00    +0.048 A 
ATOM     19  C   UNL     1       0.058   2.451  29.599  0.00  0.00    +0.031 A 
ATOM     23  C   UNL     1       2.462   2.719  29.937  0.00  0.00    +0.004 A 
ATOM     24  C   UNL     1       1.170   2.545  30.448  0.00  0.00    +0.002 A 
ENDBRANCH   7  12
BRANCH   4  11
ATOM     11  C   UNL     1      -3.195   1.511  22.870  0.00  0.00    +0.121 C 
BRANCH  11  13
ATOM     13  C   UNL     1      -4.113   1.827  24.019  0.00  0.00    -0.003 A 
ATOM     16  C   UNL     1      -4.503   0.844  24.929  0.00  0.00    +0.131 A 
ATOM     17  C   UNL     1      -4.577   3.135  24.165  0.00  0.00    +0.007 A 
ATOM     20  C   UNL     1      -5.356   1.168  25.984  0.00  0.00    +0.033 A 
ATOM     21  C   UNL     1      -5.430   3.459  25.220  0.00  0.00    +0.000 A 
ATOM     22  C   UNL     1      -5.820   2.476  26.129  0.00  0.00    +0.002 A 
BRANCH  16   6
ATOM      2  O   UNL     1      -3.074  -0.873  25.500  0.00  0.00    -0.126 OA
ATOM      3  O   UNL     1      -4.617  -1.259  23.988  0.00  0.00    -0.126 OA
ATOM      6  N   UNL     1      -4.042  -0.495  24.799  0.00  0.00    +0.057 N 
ENDBRANCH  16   6
ENDBRANCH  11  13
ENDBRANCH   4  11
TORSDOF 4
ENDMDL
MODEL 9
REMARK VINA RESULT:      -1.4     14.205     16.159
REMARK  Name = 45784207
REMARK  4 active torsions:
REMARK  status: ('A' for Active; 'I' for Inactive)
REMARK    1  A    between atoms: N_4  and  C_11
REMARK    2  A    between atoms: N_6  and  C_16
REMARK    3  A    between atoms: C_7  and  C_12
REMARK    4  A    between atoms: C_11  and  C_13
REMARK                            x       y       z     vdW  Elec       q    Type
REMARK                         _______ _______ _______ _____ _____    ______ ____
ROOT
ATOM      4  N   UNL     1      -0.873   3.621  25.174  0.00  0.00    -0.297 NA
ATOM      7  C   UNL     1      -0.368   1.332  25.236  0.00  0.00    +0.090 C 
ATOM      8  C   UNL     1       0.442   2.008  24.116  0.00  0.00    +0.029 C 
ATOM      9  C   UNL     1      -1.463   2.347  25.589  0.00  0.00    +0.097 C 
ATOM     10  C   UNL     1      -0.250   3.344  23.880  0.00  0.00    +0.085 C 
ENDROOT
BRANCH   7  12
ATOM      1  O   UNL     1      -2.254  -0.205  25.093  0.00  0.00    -0.439 OA
ATOM      5  N   UNL     1      -0.276  -1.075  24.411  0.00  0.00    -0.213 NA
ATOM     12  C   UNL     1      -0.919  -0.032  24.887  0.00  0.00    +0.201 A 
ATOM     14  C   UNL     1      -2.473  -1.495  24.703  0.00  0.00    +0.155 A 
ATOM     15  C   UNL     1      -1.260  -2.024  24.287  0.00  0.00    +0.110 A 
ATOM     18  C   UNL     1      -3.679  -2.186  24.709  0.00  0.00    +0.048 A 
ATOM     19  C   UNL     1      -1.220  -3.351  23.834  0.00  0.00    +0.031 A 
ATOM     23  C   UNL     1      -3.621  -3.508  24.254  0.00  0.00    +0.004 A 
ATOM     24  C   UNL     1      -2.418  -4.081  23.825  0.00  0.00    +0.002 A 
ENDBRANCH   7  12
BRANCH   4  11
ATOM     11  C   UNL     1      -1.857   4.691  25.097  0.00  0.00    +0.121 C 
BRANCH  11  13
ATOM     13  C   UNL     1      -3.250   4.193  25.374  0.00  0.00    -0.003 A 
ATOM     16  C   UNL     1      -4.003   3.554  24.389  0.00  0.00    +0.131 A 
ATOM     17  C   UNL     1      -3.786   4.383  26.648  0.00  0.00    +0.007 A 
ATOM     20  C   UNL     1      -5.291   3.105  24.678  0.00  0.00    +0.033 A 
ATOM     21  C   UNL     1      -5.075   3.934  26.936  0.00  0.00    +0.000 A 
ATOM     22  C   UNL     1      -5.828   3.295  25.951  0.00  0.00    +0.002 A 
BRANCH  16   6
ATOM      2  O   UNL     1      -3.633   4.245  22.220  0.00  0.00    -0.126 OA
ATOM      3  O   UNL     1      -2.870   2.281  22.835  0.00  0.00    -0.126 OA
ATOM      6  N   UNL     1      -3.476   3.350  23.084  0.00  0.00    +0.057 N 
ENDBRANCH  16   6
ENDBRANCH  11  13
ENDBRANCH   4  11
TORSDOF 4
ENDMDL
MODEL 10
REMARK VINA RESULT:      -1.3      3.774      5.797
REMARK  Name = 45784207
REMARK  4 active torsions:
REMARK  status: ('A' for Active; 'I' for Inactive)
REMARK    1  A    between atoms: N_4  and  C_11
REMARK    2  A    between atoms: N_6  and  C_16
REMARK    3  A    between atoms: C_7  and  C_12
REMARK    4  A    between atoms: C_11  and  C_13
REMARK                            x       y       z     vdW  Elec       q    Type
REMARK                         _______ _______ _______ _____ _____    ______ ____
ROOT
ATOM      4  N   UNL     1      -6.205 -10.394  13.151  0.00  0.00    -0.297 NA
ATOM      7  C   UNL     1      -3.903 -10.749  12.876  0.00  0.00    +0.090 C 
ATOM      8  C   UNL     1      -4.233 -10.646  14.375  0.00  0.00    +0.029 C 
ATOM      9  C   UNL     1      -5.142 -10.184  12.167  0.00  0.00    +0.097 C 
ATOM     10  C   UNL     1      -5.615 -10.008  14.433  0.00  0.00    +0.085 C 
ENDROOT
BRANCH   7  12
ATOM      1  O   UNL     1      -1.984  -9.353  13.430  0.00  0.00    -0.439 OA
ATOM      5  N   UNL     1      -2.043 -10.064  11.279  0.00  0.00    -0.213 NA
ATOM     12  C   UNL     1      -2.622 -10.064  12.459  0.00  0.00    +0.201 A 
ATOM     14  C   UNL     1      -0.885  -8.854  12.791  0.00  0.00    +0.155 A 
ATOM     15  C   UNL     1      -0.925  -9.291  11.475  0.00  0.00    +0.110 A 
ATOM     18  C   UNL     1       0.113  -8.050  13.329  0.00  0.00    +0.048 A 
ATOM     19  C   UNL     1       0.104  -8.908  10.602  0.00  0.00    +0.031 A 
ATOM     23  C   UNL     1       1.132  -7.678  12.444  0.00  0.00    +0.004 A 
ATOM     24  C   UNL     1       1.130  -8.097  11.109  0.00  0.00    +0.002 A 
ENDBRANCH   7  12
BRANCH   4  11
ATOM     11  C   UNL     1      -7.407  -9.633  12.843  0.00  0.00    +0.121 C 
BRANCH  11  13
ATOM     13  C   UNL     1      -7.412  -9.144  11.419  0.00  0.00    -0.003 A 
ATOM     16  C   UNL     1      -8.544  -9.267  10.614  0.00  0.00    +0.131 A 
ATOM     17  C   UNL     1      -6.253  -8.560  10.909  0.00  0.00    +0.007 A 
ATOM     20  C   UNL     1      -8.517  -8.806   9.297  0.00  0.00    +0.033 A 
ATOM     21  C   UNL     1      -6.226  -8.098   9.592  0.00  0.00    +0.000 A 
ATOM     22  C   UNL     1      -7.358  -8.221   8.787  0.00  0.00    +0.002 A 
BRANCH  16   6
ATOM      2  O   UNL     1     -10.277 -10.780  10.457  0.00  0.00    -0.126 OA
ATOM      3  O   UNL     1     -10.212  -9.444  12.196  0.00  0.00    -0.126 OA
ATOM      6  N   UNL     1      -9.736  -9.859  11.114  0.00  0.00    +0.057 N 
ENDBRANCH  16   6
ENDBRANCH  11  13
ENDBRANCH   4  11
TORSDOF 4
ENDMDL
