MODEL 1
REMARK VINA RESULT:       3.3      0.000      0.000
REMARK  Name = 38344319
REMARK  7 active torsions:
REMARK  status: ('A' for Active; 'I' for Inactive)
REMARK    1  A    between atoms: O_2  and  C_28
REMARK    2  A    between atoms: N_4  and  C_14
REMARK    3  A    between atoms: C_9  and  C_15
REMARK    4  A    between atoms: C_14  and  C_16
REMARK    5  A    between atoms: C_20  and  C_23
REMARK    6  A    between atoms: C_24  and  C_28
REMARK    7  A    between atoms: C_27  and  C_31
REMARK                            x       y       z     vdW  Elec       q    Type
REMARK                         _______ _______ _______ _____ _____    ______ ____
ROOT
ATOM      4  N   UNL     1       2.007   1.202  23.567  0.00  0.00    -0.281 NA
ATOM      5  N   UNL     1       5.633   0.319  23.193  0.00  0.00    -0.347 N 
ATOM      6  N   UNL     1       5.006  -1.701  23.918  0.00  0.00    -0.240 NA
ATOM      9  C   UNL     1       1.536  -0.209  23.352  0.00  0.00    +0.152 C 
ATOM     10  C   UNL     1       2.508  -1.269  23.985  0.00  0.00    +0.086 C 
ATOM     11  C   UNL     1       3.348   1.450  22.963  0.00  0.00    +0.140 C 
ATOM     12  C   UNL     1       4.274   0.346  23.291  0.00  0.00    +0.053 A 
ATOM     13  C   UNL     1       3.915  -0.901  23.728  0.00  0.00    +0.065 A 
ATOM     17  C   UNL     1       6.027  -0.936  23.583  0.00  0.00    +0.197 A 
ATOM     32  H   UNL     1       6.237   1.072  22.889  0.00  0.00    +0.167 HD
ENDROOT
BRANCH   9  15
ATOM      1  O   UNL     1       0.005  -1.534  24.739  0.00  0.00    -0.336 OA
ATOM      7  N   UNL     1      -0.985   0.153  23.648  0.00  0.00    -0.190 NA
ATOM      8  N   UNL     1      -1.350  -1.586  25.089  0.00  0.00    -0.056 NA
ATOM     15  C   UNL     1       0.135  -0.482  23.888  0.00  0.00    +0.245 A 
ATOM     20  C   UNL     1      -1.867  -0.560  24.405  0.00  0.00    +0.202 A 
BRANCH  20  23
ATOM     23  C   UNL     1      -3.260  -0.220  24.461  0.00  0.00    +0.023 A 
ATOM     25  C   UNL     1      -3.649   1.070  24.821  0.00  0.00    +0.015 A 
ATOM     26  C   UNL     1      -4.223  -1.180  24.152  0.00  0.00    +0.012 A 
ATOM     27  C   UNL     1      -5.003   1.401  24.874  0.00  0.00    -0.050 A 
ATOM     29  C   UNL     1      -5.578  -0.848  24.205  0.00  0.00    +0.001 A 
ATOM     30  C   UNL     1      -5.968   0.441  24.566  0.00  0.00    +0.003 A 
ATOM     31  C   UNL     1      -5.420   2.779  25.261  0.00  0.00    +0.044 C 
ENDBRANCH  20  23
ENDBRANCH   9  15
BRANCH   4  14
ATOM     14  C   UNL     1       1.070   2.194  23.020  0.00  0.00    +0.120 C 
BRANCH  14  16
ATOM     16  C   UNL     1       0.106   2.692  24.064  0.00  0.00    -0.033 A 
ATOM     18  C   UNL     1      -0.945   3.531  23.696  0.00  0.00    +0.006 A 
ATOM     19  C   UNL     1       0.262   2.312  25.396  0.00  0.00    +0.006 A 
ATOM     21  C   UNL     1      -1.840   3.993  24.661  0.00  0.00    +0.015 A 
ATOM     22  C   UNL     1      -0.632   2.773  26.362  0.00  0.00    +0.015 A 
ATOM     24  C   UNL     1      -1.683   3.613  25.994  0.00  0.00    +0.059 A 
BRANCH  24  28
ATOM      3  O   UNL     1      -2.623   3.754  28.190  0.00  0.00    -0.245 OA
ATOM     28  C   UNL     1      -2.616   4.093  27.003  0.00  0.00    +0.337 C 
BRANCH  28   2
ATOM      2  O   UNL     1      -3.516   4.982  26.498  0.00  0.00    -0.477 OA
ATOM     33  H   UNL     1      -4.398   4.885  26.917  0.00  0.00    +0.295 HD
ENDBRANCH  28   2
ENDBRANCH  24  28
ENDBRANCH  14  16
ENDBRANCH   4  14
TORSDOF 6
ENDMDL
MODEL 2
REMARK VINA RESULT:       5.5      2.448      4.925
REMARK  Name = 38344319
REMARK  7 active torsions:
REMARK  status: ('A' for Active; 'I' for Inactive)
REMARK    1  A    between atoms: O_2  and  C_28
REMARK    2  A    between atoms: N_4  and  C_14
REMARK    3  A    between atoms: C_9  and  C_15
REMARK    4  A    between atoms: C_14  and  C_16
REMARK    5  A    between atoms: C_20  and  C_23
REMARK    6  A    between atoms: C_24  and  C_28
REMARK    7  A    between atoms: C_27  and  C_31
REMARK                            x       y       z     vdW  Elec       q    Type
REMARK                         _______ _______ _______ _____ _____    ______ ____
ROOT
ATOM      4  N   UNL     1       0.201   0.042  24.384  0.00  0.00    -0.281 NA
ATOM      5  N   UNL     1       3.526  -0.862  22.902  0.00  0.00    -0.347 N 
ATOM      6  N   UNL     1       3.633   1.298  22.337  0.00  0.00    -0.240 NA
ATOM      9  C   UNL     1       0.588   1.473  24.635  0.00  0.00    +0.152 C 
ATOM     10  C   UNL     1       1.511   2.052  23.505  0.00  0.00    +0.086 C 
ATOM     11  C   UNL     1       1.387  -0.860  24.308  0.00  0.00    +0.140 C 
ATOM     12  C   UNL     1       2.439  -0.261  23.461  0.00  0.00    +0.053 A 
ATOM     13  C   UNL     1       2.530   1.059  23.107  0.00  0.00    +0.065 A 
ATOM     17  C   UNL     1       4.215   0.119  22.234  0.00  0.00    +0.197 A 
ATOM     32  H   UNL     1       3.782  -1.839  22.968  0.00  0.00    +0.167 HD
ENDROOT
BRANCH   9  15
ATOM      1  O   UNL     1      -0.341   3.743  24.665  0.00  0.00    -0.336 OA
ATOM      7  N   UNL     1      -1.854   2.137  25.050  0.00  0.00    -0.190 NA
ATOM      8  N   UNL     1      -1.566   4.397  24.853  0.00  0.00    -0.056 NA
ATOM     15  C   UNL     1      -0.600   2.416  24.797  0.00  0.00    +0.245 A 
ATOM     20  C   UNL     1      -2.407   3.383  25.075  0.00  0.00    +0.202 A 
BRANCH  20  23
ATOM     23  C   UNL     1      -3.806   3.581  25.323  0.00  0.00    +0.023 A 
ATOM     25  C   UNL     1      -4.596   2.516  25.755  0.00  0.00    +0.015 A 
ATOM     26  C   UNL     1      -4.375   4.840  25.133  0.00  0.00    +0.012 A 
ATOM     27  C   UNL     1      -5.956   2.709  25.997  0.00  0.00    -0.050 A 
ATOM     29  C   UNL     1      -5.736   5.033  25.374  0.00  0.00    +0.001 A 
ATOM     30  C   UNL     1      -6.526   3.968  25.806  0.00  0.00    +0.003 A 
ATOM     31  C   UNL     1      -6.801   1.571  26.458  0.00  0.00    +0.044 C 
ENDBRANCH  20  23
ENDBRANCH   9  15
BRANCH   4  14
ATOM     14  C   UNL     1      -0.705  -0.482  25.416  0.00  0.00    +0.120 C 
BRANCH  14  16
ATOM     16  C   UNL     1      -1.892  -1.186  24.816  0.00  0.00    -0.033 A 
ATOM     18  C   UNL     1      -3.051  -0.469  24.522  0.00  0.00    +0.006 A 
ATOM     19  C   UNL     1      -1.832  -2.555  24.554  0.00  0.00    +0.006 A 
ATOM     21  C   UNL     1      -4.152  -1.120  23.965  0.00  0.00    +0.015 A 
ATOM     22  C   UNL     1      -2.933  -3.206  23.998  0.00  0.00    +0.015 A 
ATOM     24  C   UNL     1      -4.093  -2.489  23.704  0.00  0.00    +0.059 A 
BRANCH  24  28
ATOM      3  O   UNL     1      -6.383  -3.172  23.590  0.00  0.00    -0.245 OA
ATOM     28  C   UNL     1      -5.240  -3.170  23.122  0.00  0.00    +0.337 C 
BRANCH  28   2
ATOM      2  O   UNL     1      -4.927  -3.829  21.973  0.00  0.00    -0.477 OA
ATOM     33  H   UNL     1      -4.038  -4.242  22.021  0.00  0.00    +0.295 HD
ENDBRANCH  28   2
ENDBRANCH  24  28
ENDBRANCH  14  16
ENDBRANCH   4  14
TORSDOF 6
ENDMDL
MODEL 3
REMARK VINA RESULT:       5.5      2.439      7.071
REMARK  Name = 38344319
REMARK  7 active torsions:
REMARK  status: ('A' for Active; 'I' for Inactive)
REMARK    1  A    between atoms: O_2  and  C_28
REMARK    2  A    between atoms: N_4  and  C_14
REMARK    3  A    between atoms: C_9  and  C_15
REMARK    4  A    between atoms: C_14  and  C_16
REMARK    5  A    between atoms: C_20  and  C_23
REMARK    6  A    between atoms: C_24  and  C_28
REMARK    7  A    between atoms: C_27  and  C_31
REMARK                            x       y       z     vdW  Elec       q    Type
REMARK                         _______ _______ _______ _____ _____    ______ ____
ROOT
ATOM      4  N   UNL     1      -2.382   2.896  24.281  0.00  0.00    -0.281 NA
ATOM      5  N   UNL     1      -6.007   2.716  25.228  0.00  0.00    -0.347 N 
ATOM      6  N   UNL     1      -5.826   0.549  24.706  0.00  0.00    -0.240 NA
ATOM      9  C   UNL     1      -2.117   1.456  24.621  0.00  0.00    +0.152 C 
ATOM     10  C   UNL     1      -3.329   0.522  24.265  0.00  0.00    +0.086 C 
ATOM     11  C   UNL     1      -3.562   3.442  25.012  0.00  0.00    +0.140 C 
ATOM     12  C   UNL     1      -4.691   2.491  24.956  0.00  0.00    +0.053 A 
ATOM     13  C   UNL     1      -4.605   1.159  24.647  0.00  0.00    +0.065 A 
ATOM     17  C   UNL     1      -6.651   1.515  25.063  0.00  0.00    +0.197 A 
ATOM     32  H   UNL     1      -6.431   3.593  25.503  0.00  0.00    +0.167 HD
ENDROOT
BRANCH   9  15
ATOM      1  O   UNL     1      -1.081   0.021  22.921  0.00  0.00    -0.336 OA
ATOM      7  N   UNL     1       0.390   1.092  24.227  0.00  0.00    -0.190 NA
ATOM      8  N   UNL     1       0.190  -0.368  22.478  0.00  0.00    -0.056 NA
ATOM     15  C   UNL     1      -0.873   0.881  23.953  0.00  0.00    +0.245 A 
ATOM     20  C   UNL     1       1.003   0.304  23.297  0.00  0.00    +0.202 A 
BRANCH  20  23
ATOM     23  C   UNL     1       2.432   0.214  23.211  0.00  0.00    +0.023 A 
ATOM     25  C   UNL     1       3.083  -0.951  23.616  0.00  0.00    +0.015 A 
ATOM     26  C   UNL     1       3.169   1.291  22.718  0.00  0.00    +0.012 A 
ATOM     27  C   UNL     1       4.472  -1.039  23.531  0.00  0.00    -0.050 A 
ATOM     29  C   UNL     1       4.559   1.202  22.633  0.00  0.00    +0.001 A 
ATOM     30  C   UNL     1       5.211   0.037  23.039  0.00  0.00    +0.003 A 
ATOM     31  C   UNL     1       5.169  -2.283  23.965  0.00  0.00    +0.044 C 
ENDBRANCH  20  23
ENDBRANCH   9  15
BRANCH   4  14
ATOM     14  C   UNL     1      -1.228   3.759  24.567  0.00  0.00    +0.120 C 
BRANCH  14  16
ATOM     16  C   UNL     1      -0.561   3.394  25.866  0.00  0.00    -0.033 A 
ATOM     18  C   UNL     1      -1.334   3.153  27.001  0.00  0.00    +0.006 A 
ATOM     19  C   UNL     1       0.828   3.295  25.933  0.00  0.00    +0.006 A 
ATOM     21  C   UNL     1      -0.717   2.814  28.206  0.00  0.00    +0.015 A 
ATOM     22  C   UNL     1       1.445   2.956  27.137  0.00  0.00    +0.015 A 
ATOM     24  C   UNL     1       0.672   2.715  28.273  0.00  0.00    +0.059 A 
BRANCH  24  28
ATOM      3  O   UNL     1       0.805   2.457  30.648  0.00  0.00    -0.245 OA
ATOM     28  C   UNL     1       1.317   2.360  29.529  0.00  0.00    +0.337 C 
BRANCH  28   2
ATOM      2  O   UNL     1       2.584   1.894  29.350  0.00  0.00    -0.477 OA
ATOM     33  H   UNL     1       3.235   2.398  29.883  0.00  0.00    +0.295 HD
ENDBRANCH  28   2
ENDBRANCH  24  28
ENDBRANCH  14  16
ENDBRANCH   4  14
TORSDOF 6
ENDMDL
MODEL 4
REMARK VINA RESULT:       5.8      2.669      7.778
REMARK  Name = 38344319
REMARK  7 active torsions:
REMARK  status: ('A' for Active; 'I' for Inactive)
REMARK    1  A    between atoms: O_2  and  C_28
REMARK    2  A    between atoms: N_4  and  C_14
REMARK    3  A    between atoms: C_9  and  C_15
REMARK    4  A    between atoms: C_14  and  C_16
REMARK    5  A    between atoms: C_20  and  C_23
REMARK    6  A    between atoms: C_24  and  C_28
REMARK    7  A    between atoms: C_27  and  C_31
REMARK                            x       y       z     vdW  Elec       q    Type
REMARK                         _______ _______ _______ _____ _____    ______ ____
ROOT
ATOM      4  N   UNL     1      -4.506   1.460  24.947  0.00  0.00    -0.281 NA
ATOM      5  N   UNL     1      -7.040   4.086  25.813  0.00  0.00    -0.347 N 
ATOM      6  N   UNL     1      -5.272   5.443  25.992  0.00  0.00    -0.240 NA
ATOM      9  C   UNL     1      -3.519   2.450  24.395  0.00  0.00    +0.152 C 
ATOM     10  C   UNL     1      -3.511   3.801  25.197  0.00  0.00    +0.086 C 
ATOM     11  C   UNL     1      -5.905   1.976  24.912  0.00  0.00    +0.140 C 
ATOM     12  C   UNL     1      -5.956   3.366  25.410  0.00  0.00    +0.053 A 
ATOM     13  C   UNL     1      -4.890   4.219  25.521  0.00  0.00    +0.065 A 
ATOM     17  C   UNL     1      -6.577   5.331  26.156  0.00  0.00    +0.197 A 
ATOM     32  H   UNL     1      -8.001   3.770  25.851  0.00  0.00    +0.167 HD
ENDROOT
BRANCH   9  15
ATOM      1  O   UNL     1      -1.416   1.876  25.523  0.00  0.00    -0.336 OA
ATOM      7  N   UNL     1      -1.388   1.524  23.311  0.00  0.00    -0.190 NA
ATOM      8  N   UNL     1      -0.142   1.377  25.224  0.00  0.00    -0.056 NA
ATOM     15  C   UNL     1      -2.086   1.931  24.342  0.00  0.00    +0.245 A 
ATOM     20  C   UNL     1      -0.203   1.195  23.902  0.00  0.00    +0.202 A 
BRANCH  20  23
ATOM     23  C   UNL     1       0.901   0.683  23.142  0.00  0.00    +0.023 A 
ATOM     25  C   UNL     1       2.208   1.003  23.509  0.00  0.00    +0.015 A 
ATOM     26  C   UNL     1       0.666  -0.135  22.037  0.00  0.00    +0.012 A 
ATOM     27  C   UNL     1       3.281   0.504  22.771  0.00  0.00    -0.050 A 
ATOM     29  C   UNL     1       1.740  -0.634  21.299  0.00  0.00    +0.001 A 
ATOM     30  C   UNL     1       3.048  -0.314  21.666  0.00  0.00    +0.003 A 
ATOM     31  C   UNL     1       4.679   0.846  23.162  0.00  0.00    +0.044 C 
ENDBRANCH  20  23
ENDBRANCH   9  15
BRANCH   4  14
ATOM     14  C   UNL     1      -4.475   0.179  24.228  0.00  0.00    +0.120 C 
BRANCH  14  16
ATOM     16  C   UNL     1      -3.268  -0.643  24.596  0.00  0.00    -0.033 A 
ATOM     18  C   UNL     1      -2.630  -1.416  23.626  0.00  0.00    +0.006 A 
ATOM     19  C   UNL     1      -2.789  -0.631  25.906  0.00  0.00    +0.006 A 
ATOM     21  C   UNL     1      -1.511  -2.177  23.966  0.00  0.00    +0.015 A 
ATOM     22  C   UNL     1      -1.672  -1.393  26.246  0.00  0.00    +0.015 A 
ATOM     24  C   UNL     1      -1.033  -2.165  25.276  0.00  0.00    +0.059 A 
BRANCH  24  28
ATOM      3  O   UNL     1       0.139  -4.179  25.823  0.00  0.00    -0.245 OA
ATOM     28  C   UNL     1       0.134  -2.958  25.632  0.00  0.00    +0.337 C 
BRANCH  28   2
ATOM      2  O   UNL     1       1.263  -2.205  25.740  0.00  0.00    -0.477 OA
ATOM     33  H   UNL     1       1.076  -1.322  26.127  0.00  0.00    +0.295 HD
ENDBRANCH  28   2
ENDBRANCH  24  28
ENDBRANCH  14  16
ENDBRANCH   4  14
TORSDOF 6
ENDMDL
MODEL 5
REMARK VINA RESULT:       6.4      0.973      1.891
REMARK  Name = 38344319
REMARK  7 active torsions:
REMARK  status: ('A' for Active; 'I' for Inactive)
REMARK    1  A    between atoms: O_2  and  C_28
REMARK    2  A    between atoms: N_4  and  C_14
REMARK    3  A    between atoms: C_9  and  C_15
REMARK    4  A    between atoms: C_14  and  C_16
REMARK    5  A    between atoms: C_20  and  C_23
REMARK    6  A    between atoms: C_24  and  C_28
REMARK    7  A    between atoms: C_27  and  C_31
REMARK                            x       y       z     vdW  Elec       q    Type
REMARK                         _______ _______ _______ _____ _____    ______ ____
ROOT
ATOM      4  N   UNL     1       2.338   0.945  23.436  0.00  0.00    -0.281 NA
ATOM      5  N   UNL     1       6.057   0.522  23.197  0.00  0.00    -0.347 N 
ATOM      6  N   UNL     1       5.692  -1.450  24.185  0.00  0.00    -0.240 NA
ATOM      9  C   UNL     1       2.066  -0.533  23.412  0.00  0.00    +0.152 C 
ATOM     10  C   UNL     1       3.158  -1.357  24.185  0.00  0.00    +0.086 C 
ATOM     11  C   UNL     1       3.646   1.290  22.808  0.00  0.00    +0.140 C 
ATOM     12  C   UNL     1       4.705   0.377  23.285  0.00  0.00    +0.053 A 
ATOM     13  C   UNL     1       4.508  -0.839  23.886  0.00  0.00    +0.065 A 
ATOM     17  C   UNL     1       6.608  -0.604  23.754  0.00  0.00    +0.197 A 
ATOM     32  H   UNL     1       6.561   1.303  22.796  0.00  0.00    +0.167 HD
ENDROOT
BRANCH   9  15
ATOM      1  O   UNL     1       0.706  -1.731  25.067  0.00  0.00    -0.336 OA
ATOM      7  N   UNL     1      -0.493  -0.590  23.558  0.00  0.00    -0.190 NA
ATOM      8  N   UNL     1      -0.639  -1.946  25.394  0.00  0.00    -0.056 NA
ATOM     15  C   UNL     1       0.703  -0.922  23.975  0.00  0.00    +0.245 A 
ATOM     20  C   UNL     1      -1.283  -1.242  24.458  0.00  0.00    +0.202 A 
BRANCH  20  23
ATOM     23  C   UNL     1      -2.714  -1.167  24.399  0.00  0.00    +0.023 A 
ATOM     25  C   UNL     1      -3.447  -2.234  23.881  0.00  0.00    +0.015 A 
ATOM     26  C   UNL     1      -3.372  -0.027  24.861  0.00  0.00    +0.012 A 
ATOM     27  C   UNL     1      -4.839  -2.161  23.823  0.00  0.00    -0.050 A 
ATOM     29  C   UNL     1      -4.764   0.046  24.804  0.00  0.00    +0.001 A 
ATOM     30  C   UNL     1      -5.498  -1.021  24.285  0.00  0.00    +0.003 A 
ATOM     31  C   UNL     1      -5.624  -3.301  23.268  0.00  0.00    +0.044 C 
ENDBRANCH  20  23
ENDBRANCH   9  15
BRANCH   4  14
ATOM     14  C   UNL     1       1.288   1.717  22.757  0.00  0.00    +0.120 C 
BRANCH  14  16
ATOM     16  C   UNL     1       0.231   2.195  23.717  0.00  0.00    -0.033 A 
ATOM     18  C   UNL     1       0.511   2.264  25.081  0.00  0.00    +0.006 A 
ATOM     19  C   UNL     1      -1.025   2.569  23.242  0.00  0.00    +0.006 A 
ATOM     21  C   UNL     1      -0.467   2.707  25.972  0.00  0.00    +0.015 A 
ATOM     22  C   UNL     1      -2.004   3.011  24.132  0.00  0.00    +0.015 A 
ATOM     24  C   UNL     1      -1.724   3.080  25.497  0.00  0.00    +0.059 A 
BRANCH  24  28
ATOM      3  O   UNL     1      -2.531   4.023  27.542  0.00  0.00    -0.245 OA
ATOM     28  C   UNL     1      -2.745   3.543  26.425  0.00  0.00    +0.337 C 
BRANCH  28   2
ATOM      2  O   UNL     1      -4.005   3.392  25.930  0.00  0.00    -0.477 OA
ATOM     33  H   UNL     1      -4.346   2.483  26.073  0.00  0.00    +0.295 HD
ENDBRANCH  28   2
ENDBRANCH  24  28
ENDBRANCH  14  16
ENDBRANCH   4  14
TORSDOF 6
ENDMDL
MODEL 6
REMARK VINA RESULT:       6.6      2.756      7.747
REMARK  Name = 38344319
REMARK  7 active torsions:
REMARK  status: ('A' for Active; 'I' for Inactive)
REMARK    1  A    between atoms: O_2  and  C_28
REMARK    2  A    between atoms: N_4  and  C_14
REMARK    3  A    between atoms: C_9  and  C_15
REMARK    4  A    between atoms: C_14  and  C_16
REMARK    5  A    between atoms: C_20  and  C_23
REMARK    6  A    between atoms: C_24  and  C_28
REMARK    7  A    between atoms: C_27  and  C_31
REMARK                            x       y       z     vdW  Elec       q    Type
REMARK                         _______ _______ _______ _____ _____    ______ ____
ROOT
ATOM      4  N   UNL     1      -1.770   1.772  25.543  0.00  0.00    -0.281 NA
ATOM      5  N   UNL     1      -4.479   4.364  25.501  0.00  0.00    -0.347 N 
ATOM      6  N   UNL     1      -3.651   4.904  23.496  0.00  0.00    -0.240 NA
ATOM      9  C   UNL     1      -1.713   1.660  24.045  0.00  0.00    +0.152 C 
ATOM     10  C   UNL     1      -1.939   3.041  23.331  0.00  0.00    +0.086 C 
ATOM     11  C   UNL     1      -3.087   2.281  26.023  0.00  0.00    +0.140 C 
ATOM     12  C   UNL     1      -3.516   3.444  25.219  0.00  0.00    +0.053 A 
ATOM     13  C   UNL     1      -3.030   3.791  23.985  0.00  0.00    +0.065 A 
ATOM     17  C   UNL     1      -4.524   5.225  24.433  0.00  0.00    +0.197 A 
ATOM     32  H   UNL     1      -5.056   4.408  26.332  0.00  0.00    +0.167 HD
ENDROOT
BRANCH   9  15
ATOM      1  O   UNL     1      -0.508   0.259  22.430  0.00  0.00    -0.336 OA
ATOM      7  N   UNL     1       0.812   1.225  23.959  0.00  0.00    -0.190 NA
ATOM      8  N   UNL     1       0.797  -0.155  22.136  0.00  0.00    -0.056 NA
ATOM     15  C   UNL     1      -0.410   1.069  23.517  0.00  0.00    +0.245 A 
ATOM     20  C   UNL     1       1.517   0.455  23.082  0.00  0.00    +0.202 A 
BRANCH  20  23
ATOM     23  C   UNL     1       2.942   0.319  23.175  0.00  0.00    +0.023 A 
ATOM     25  C   UNL     1       3.502  -0.893  23.578  0.00  0.00    +0.015 A 
ATOM     26  C   UNL     1       3.767   1.399  22.859  0.00  0.00    +0.012 A 
ATOM     27  C   UNL     1       4.887  -1.026  23.667  0.00  0.00    -0.050 A 
ATOM     29  C   UNL     1       5.153   1.265  22.949  0.00  0.00    +0.001 A 
ATOM     30  C   UNL     1       5.713   0.053  23.353  0.00  0.00    +0.003 A 
ATOM     31  C   UNL     1       5.487  -2.321  24.099  0.00  0.00    +0.044 C 
ENDBRANCH  20  23
ENDBRANCH   9  15
BRANCH   4  14
ATOM     14  C   UNL     1      -1.507   0.489  26.210  0.00  0.00    +0.120 C 
BRANCH  14  16
ATOM     16  C   UNL     1      -2.171  -0.660  25.499  0.00  0.00    -0.033 A 
ATOM     18  C   UNL     1      -3.547  -0.638  25.276  0.00  0.00    +0.006 A 
ATOM     19  C   UNL     1      -1.411  -1.745  25.064  0.00  0.00    +0.006 A 
ATOM     21  C   UNL     1      -4.165  -1.702  24.617  0.00  0.00    +0.015 A 
ATOM     22  C   UNL     1      -2.027  -2.809  24.406  0.00  0.00    +0.015 A 
ATOM     24  C   UNL     1      -3.404  -2.787  24.182  0.00  0.00    +0.059 A 
BRANCH  24  28
ATOM      3  O   UNL     1      -3.498  -4.959  23.182  0.00  0.00    -0.245 OA
ATOM     28  C   UNL     1      -4.046  -3.897  23.494  0.00  0.00    +0.337 C 
BRANCH  28   2
ATOM      2  O   UNL     1      -5.355  -3.649  23.215  0.00  0.00    -0.477 OA
ATOM     33  H   UNL     1      -5.640  -2.773  23.553  0.00  0.00    +0.295 HD
ENDBRANCH  28   2
ENDBRANCH  24  28
ENDBRANCH  14  16
ENDBRANCH   4  14
TORSDOF 6
ENDMDL
