MODEL 1
REMARK VINA RESULT:       2.4      0.000      0.000
REMARK  Name = 51137943
REMARK  3 active torsions:
REMARK  status: ('A' for Active; 'I' for Inactive)
REMARK    1  A    between atoms: C_11  and  C_15
REMARK    2  A    between atoms: C_17  and  C_19
REMARK    3  A    between atoms: C_18  and  C_22
REMARK                            x       y       z     vdW  Elec       q    Type
REMARK                         _______ _______ _______ _____ _____    ______ ____
ROOT
ATOM      6  N   UNL     1      -1.700   0.930  25.080  0.00  0.00    -0.299 N 
ATOM      8  N   UNL     1      -3.013   2.752  24.503  0.00  0.00    -0.210 NA
ATOM      9  N   UNL     1      -1.758   2.712  26.560  0.00  0.00    -0.223 NA
ATOM     11  C   UNL     1      -1.063  -0.981  23.820  0.00  0.00    +0.095 C 
ATOM     12  C   UNL     1      -0.790  -1.230  25.306  0.00  0.00    +0.033 C 
ATOM     13  C   UNL     1      -2.053   0.199  23.861  0.00  0.00    +0.121 C 
ATOM     14  C   UNL     1      -0.787   0.167  25.926  0.00  0.00    +0.109 C 
ATOM     16  C   UNL     1      -2.177   2.185  25.394  0.00  0.00    +0.218 A 
ATOM     18  C   UNL     1      -3.460   3.978  24.842  0.00  0.00    +0.149 A 
ATOM     20  C   UNL     1      -2.244   3.940  26.837  0.00  0.00    +0.116 A 
ATOM     21  C   UNL     1      -3.107   4.628  26.008  0.00  0.00    +0.052 A 
ENDROOT
BRANCH  11  15
ATOM      5  O   UNL     1       1.377  -0.708  23.767  0.00  0.00    -0.420 OA
ATOM      7  N   UNL     1       0.408  -0.613  21.753  0.00  0.00    -0.112 NA
ATOM     10  N   UNL     1       1.769  -0.446  21.580  0.00  0.00    -0.107 NA
ATOM     15  C   UNL     1       0.225  -0.762  23.044  0.00  0.00    +0.222 A 
ATOM     17  C   UNL     1       2.295  -0.508  22.782  0.00  0.00    +0.251 A 
BRANCH  17  19
ATOM      4  F   UNL     1       3.733   1.887  22.564  0.00  0.00    -0.205 F 
ATOM     19  C   UNL     1       3.660  -0.401  23.208  0.00  0.00    +0.074 A 
ATOM     23  C   UNL     1       4.341   0.810  23.082  0.00  0.00    +0.136 A 
ATOM     24  C   UNL     1       4.307  -1.512  23.749  0.00  0.00    +0.016 A 
ATOM     25  C   UNL     1       5.668   0.909  23.497  0.00  0.00    +0.039 A 
ATOM     26  C   UNL     1       5.634  -1.412  24.163  0.00  0.00    +0.001 A 
ATOM     27  C   UNL     1       6.316  -0.201  24.038  0.00  0.00    +0.003 A 
ENDBRANCH  17  19
ENDBRANCH  11  15
BRANCH  18  22
ATOM      1  F   UNL     1      -4.660   3.869  22.793  0.00  0.00    -0.164 F 
ATOM      2  F   UNL     1      -5.604   4.954  24.424  0.00  0.00    -0.164 F 
ATOM      3  F   UNL     1      -3.909   5.822  23.385  0.00  0.00    -0.164 F 
ATOM     22  C   UNL     1      -4.388   4.643  23.883  0.00  0.00    +0.434 C 
ENDBRANCH  18  22
TORSDOF 3
ENDMDL
MODEL 2
REMARK VINA RESULT:       3.8      2.256      8.521
REMARK  Name = 51137943
REMARK  3 active torsions:
REMARK  status: ('A' for Active; 'I' for Inactive)
REMARK    1  A    between atoms: C_11  and  C_15
REMARK    2  A    between atoms: C_17  and  C_19
REMARK    3  A    between atoms: C_18  and  C_22
REMARK                            x       y       z     vdW  Elec       q    Type
REMARK                         _______ _______ _______ _____ _____    ______ ____
ROOT
ATOM      6  N   UNL     1       1.065  -0.571  23.300  0.00  0.00    -0.299 N 
ATOM      8  N   UNL     1       3.339  -0.290  23.653  0.00  0.00    -0.210 NA
ATOM      9  N   UNL     1       2.362   0.015  21.471  0.00  0.00    -0.223 NA
ATOM     11  C   UNL     1      -0.717  -0.868  24.843  0.00  0.00    +0.095 C 
ATOM     12  C   UNL     1      -1.185  -1.252  23.436  0.00  0.00    +0.033 C 
ATOM     13  C   UNL     1       0.817  -0.912  24.702  0.00  0.00    +0.121 C 
ATOM     14  C   UNL     1      -0.162  -0.597  22.509  0.00  0.00    +0.109 C 
ATOM     16  C   UNL     1       2.308  -0.269  22.786  0.00  0.00    +0.218 A 
ATOM     18  C   UNL     1       4.540   0.010  23.117  0.00  0.00    +0.149 A 
ATOM     20  C   UNL     1       3.593   0.305  21.001  0.00  0.00    +0.116 A 
ATOM     21  C   UNL     1       4.730   0.318  21.785  0.00  0.00    +0.052 A 
ENDROOT
BRANCH  11  15
ATOM      5  O   UNL     1      -2.649   0.633  25.053  0.00  0.00    -0.420 OA
ATOM      7  N   UNL     1      -0.752   1.471  25.891  0.00  0.00    -0.112 NA
ATOM     10  N   UNL     1      -1.750   2.410  26.072  0.00  0.00    -0.107 NA
ATOM     15  C   UNL     1      -1.322   0.451  25.292  0.00  0.00    +0.222 A 
ATOM     17  C   UNL     1      -2.840   1.879  25.569  0.00  0.00    +0.251 A 
BRANCH  17  19
ATOM      4  F   UNL     1      -3.431   4.559  26.134  0.00  0.00    -0.205 F 
ATOM     19  C   UNL     1      -4.174   2.397  25.479  0.00  0.00    +0.074 A 
ATOM     23  C   UNL     1      -4.427   3.738  25.771  0.00  0.00    +0.136 A 
ATOM     24  C   UNL     1      -5.221   1.556  25.103  0.00  0.00    +0.016 A 
ATOM     25  C   UNL     1      -5.725   4.237  25.683  0.00  0.00    +0.039 A 
ATOM     26  C   UNL     1      -6.520   2.056  25.016  0.00  0.00    +0.001 A 
ATOM     27  C   UNL     1      -6.773   3.396  25.306  0.00  0.00    +0.003 A 
ENDBRANCH  17  19
ENDBRANCH  11  15
BRANCH  18  22
ATOM      1  F   UNL     1       5.771   1.117  24.823  0.00  0.00    -0.164 F 
ATOM      2  F   UNL     1       5.710  -1.055  24.911  0.00  0.00    -0.164 F 
ATOM      3  F   UNL     1       6.914  -0.067  23.402  0.00  0.00    -0.164 F 
ATOM     22  C   UNL     1       5.709  -0.001  24.042  0.00  0.00    +0.434 C 
ENDBRANCH  18  22
TORSDOF 3
ENDMDL
MODEL 3
REMARK VINA RESULT:       3.8      1.982      7.636
REMARK  Name = 51137943
REMARK  3 active torsions:
REMARK  status: ('A' for Active; 'I' for Inactive)
REMARK    1  A    between atoms: C_11  and  C_15
REMARK    2  A    between atoms: C_17  and  C_19
REMARK    3  A    between atoms: C_18  and  C_22
REMARK                            x       y       z     vdW  Elec       q    Type
REMARK                         _______ _______ _______ _____ _____    ______ ____
ROOT
ATOM      6  N   UNL     1       0.773  -1.031  23.305  0.00  0.00    -0.299 N 
ATOM      8  N   UNL     1       2.971  -0.461  23.769  0.00  0.00    -0.210 NA
ATOM      9  N   UNL     1       2.057  -0.225  21.552  0.00  0.00    -0.223 NA
ATOM     11  C   UNL     1      -1.018  -1.606  24.756  0.00  0.00    +0.095 C 
ATOM     12  C   UNL     1      -1.370  -2.008  23.321  0.00  0.00    +0.033 C 
ATOM     13  C   UNL     1       0.512  -1.442  24.685  0.00  0.00    +0.121 C 
ATOM     14  C   UNL     1      -0.404  -1.196  22.457  0.00  0.00    +0.109 C 
ATOM     16  C   UNL     1       1.985  -0.552  22.856  0.00  0.00    +0.218 A 
ATOM     18  C   UNL     1       4.143   0.011  23.296  0.00  0.00    +0.149 A 
ATOM     20  C   UNL     1       3.257   0.240  21.146  0.00  0.00    +0.116 A 
ATOM     21  C   UNL     1       4.347   0.380  21.982  0.00  0.00    +0.052 A 
ENDROOT
BRANCH  11  15
ATOM      5  O   UNL     1      -1.284   0.829  24.924  0.00  0.00    -0.420 OA
ATOM      7  N   UNL     1      -2.958  -0.333  25.846  0.00  0.00    -0.112 NA
ATOM     10  N   UNL     1      -3.231   1.012  26.009  0.00  0.00    -0.107 NA
ATOM     15  C   UNL     1      -1.812  -0.392  25.208  0.00  0.00    +0.222 A 
ATOM     17  C   UNL     1      -2.228   1.653  25.456  0.00  0.00    +0.251 A 
BRANCH  17  19
ATOM      4  F   UNL     1      -4.101   3.573  26.268  0.00  0.00    -0.205 F 
ATOM     19  C   UNL     1      -1.977   3.060  25.329  0.00  0.00    +0.074 A 
ATOM     23  C   UNL     1      -2.937   3.983  25.744  0.00  0.00    +0.136 A 
ATOM     24  C   UNL     1      -0.771   3.503  24.786  0.00  0.00    +0.016 A 
ATOM     25  C   UNL     1      -2.689   5.349  25.617  0.00  0.00    +0.039 A 
ATOM     26  C   UNL     1      -0.524   4.869  24.659  0.00  0.00    +0.001 A 
ATOM     27  C   UNL     1      -1.483   5.793  25.074  0.00  0.00    +0.003 A 
ENDBRANCH  17  19
ENDBRANCH  11  15
BRANCH  18  22
ATOM      1  F   UNL     1       5.492  -1.034  24.951  0.00  0.00    -0.164 F 
ATOM      2  F   UNL     1       6.458   0.459  23.700  0.00  0.00    -0.164 F 
ATOM      3  F   UNL     1       5.055   1.077  25.234  0.00  0.00    -0.164 F 
ATOM     22  C   UNL     1       5.263   0.128  24.274  0.00  0.00    +0.434 C 
ENDBRANCH  18  22
TORSDOF 3
ENDMDL
MODEL 4
REMARK VINA RESULT:       4.9      2.011      2.304
REMARK  Name = 51137943
REMARK  3 active torsions:
REMARK  status: ('A' for Active; 'I' for Inactive)
REMARK    1  A    between atoms: C_11  and  C_15
REMARK    2  A    between atoms: C_17  and  C_19
REMARK    3  A    between atoms: C_18  and  C_22
REMARK                            x       y       z     vdW  Elec       q    Type
REMARK                         _______ _______ _______ _____ _____    ______ ____
ROOT
ATOM      6  N   UNL     1      -3.847   0.180  24.575  0.00  0.00    -0.299 N 
ATOM      8  N   UNL     1      -4.056   2.434  24.078  0.00  0.00    -0.210 NA
ATOM      9  N   UNL     1      -4.963   1.510  26.110  0.00  0.00    -0.223 NA
ATOM     11  C   UNL     1      -2.571  -1.527  23.523  0.00  0.00    +0.095 C 
ATOM     12  C   UNL     1      -3.617  -2.160  24.446  0.00  0.00    +0.033 C 
ATOM     13  C   UNL     1      -3.122  -0.100  23.334  0.00  0.00    +0.121 C 
ATOM     14  C   UNL     1      -4.029  -1.024  25.382  0.00  0.00    +0.109 C 
ATOM     16  C   UNL     1      -4.308   1.428  24.936  0.00  0.00    +0.218 A 
ATOM     18  C   UNL     1      -4.521   3.641  24.462  0.00  0.00    +0.149 A 
ATOM     20  C   UNL     1      -5.401   2.745  26.433  0.00  0.00    +0.116 A 
ATOM     21  C   UNL     1      -5.207   3.858  25.640  0.00  0.00    +0.052 A 
ENDROOT
BRANCH  11  15
ATOM      5  O   UNL     1      -0.179  -0.981  23.448  0.00  0.00    -0.420 OA
ATOM      7  N   UNL     1      -0.755  -2.303  25.157  0.00  0.00    -0.112 NA
ATOM     10  N   UNL     1       0.607  -2.076  25.233  0.00  0.00    -0.107 NA
ATOM     15  C   UNL     1      -1.171  -1.644  24.100  0.00  0.00    +0.222 A 
ATOM     17  C   UNL     1       0.899  -1.299  24.215  0.00  0.00    +0.251 A 
BRANCH  17  19
ATOM      4  F   UNL     1       1.110   1.309  23.212  0.00  0.00    -0.205 F 
ATOM     19  C   UNL     1       2.154  -0.746  23.796  0.00  0.00    +0.074 A 
ATOM     23  C   UNL     1       2.216   0.557  23.301  0.00  0.00    +0.136 A 
ATOM     24  C   UNL     1       3.314  -1.515  23.882  0.00  0.00    +0.016 A 
ATOM     25  C   UNL     1       3.438   1.090  22.894  0.00  0.00    +0.039 A 
ATOM     26  C   UNL     1       4.536  -0.981  23.475  0.00  0.00    +0.001 A 
ATOM     27  C   UNL     1       4.599   0.321  22.980  0.00  0.00    +0.003 A 
ENDBRANCH  17  19
ENDBRANCH  11  15
BRANCH  18  22
ATOM      1  F   UNL     1      -4.325   4.423  22.226  0.00  0.00    -0.164 F 
ATOM      2  F   UNL     1      -5.154   5.811  23.680  0.00  0.00    -0.164 F 
ATOM      3  F   UNL     1      -3.033   5.355  23.706  0.00  0.00    -0.164 F 
ATOM     22  C   UNL     1      -4.263   4.784  23.541  0.00  0.00    +0.434 C 
ENDBRANCH  18  22
TORSDOF 3
ENDMDL
MODEL 5
REMARK VINA RESULT:       5.1      2.389      7.469
REMARK  Name = 51137943
REMARK  3 active torsions:
REMARK  status: ('A' for Active; 'I' for Inactive)
REMARK    1  A    between atoms: C_11  and  C_15
REMARK    2  A    between atoms: C_17  and  C_19
REMARK    3  A    between atoms: C_18  and  C_22
REMARK                            x       y       z     vdW  Elec       q    Type
REMARK                         _______ _______ _______ _____ _____    ______ ____
ROOT
ATOM      6  N   UNL     1      -0.288  -1.125  23.717  0.00  0.00    -0.299 N 
ATOM      8  N   UNL     1       1.807  -0.171  23.441  0.00  0.00    -0.210 NA
ATOM      9  N   UNL     1       0.623  -1.152  21.586  0.00  0.00    -0.223 NA
ATOM     11  C   UNL     1      -1.769  -1.099  25.574  0.00  0.00    +0.095 C 
ATOM     12  C   UNL     1      -2.199  -2.189  24.588  0.00  0.00    +0.033 C 
ATOM     13  C   UNL     1      -0.312  -0.830  25.151  0.00  0.00    +0.121 C 
ATOM     14  C   UNL     1      -1.502  -1.808  23.282  0.00  0.00    +0.109 C 
ATOM     16  C   UNL     1       0.758  -0.802  22.879  0.00  0.00    +0.218 A 
ATOM     18  C   UNL     1       2.812   0.130  22.593  0.00  0.00    +0.149 A 
ATOM     20  C   UNL     1       1.664  -0.823  20.794  0.00  0.00    +0.116 A 
ATOM     21  C   UNL     1       2.796  -0.175  21.247  0.00  0.00    +0.052 A 
ENDROOT
BRANCH  11  15
ATOM      5  O   UNL     1      -2.186   1.291  25.194  0.00  0.00    -0.420 OA
ATOM      7  N   UNL     1      -4.000   0.139  25.814  0.00  0.00    -0.112 NA
ATOM     10  N   UNL     1      -4.372   1.458  25.635  0.00  0.00    -0.107 NA
ATOM     15  C   UNL     1      -2.716   0.088  25.545  0.00  0.00    +0.222 A 
ATOM     17  C   UNL     1      -3.282   2.094  25.273  0.00  0.00    +0.251 A 
BRANCH  17  19
ATOM      4  F   UNL     1      -1.072   3.519  26.243  0.00  0.00    -0.205 F 
ATOM     19  C   UNL     1      -3.071   3.476  24.955  0.00  0.00    +0.074 A 
ATOM     23  C   UNL     1      -1.958   4.150  25.459  0.00  0.00    +0.136 A 
ATOM     24  C   UNL     1      -3.983   4.148  24.141  0.00  0.00    +0.016 A 
ATOM     25  C   UNL     1      -1.758   5.494  25.148  0.00  0.00    +0.039 A 
ATOM     26  C   UNL     1      -3.782   5.492  23.831  0.00  0.00    +0.001 A 
ATOM     27  C   UNL     1      -2.670   6.167  24.334  0.00  0.00    +0.003 A 
ENDBRANCH  17  19
ENDBRANCH  11  15
BRANCH  18  22
ATOM      1  F   UNL     1       3.916   2.186  23.045  0.00  0.00    -0.164 F 
ATOM      2  F   UNL     1       4.166   0.597  24.508  0.00  0.00    -0.164 F 
ATOM      3  F   UNL     1       5.179   0.475  22.595  0.00  0.00    -0.164 F 
ATOM     22  C   UNL     1       3.994   0.830  23.173  0.00  0.00    +0.434 C 
ENDBRANCH  18  22
TORSDOF 3
ENDMDL
MODEL 6
REMARK VINA RESULT:       5.5      2.098      2.509
REMARK  Name = 51137943
REMARK  3 active torsions:
REMARK  status: ('A' for Active; 'I' for Inactive)
REMARK    1  A    between atoms: C_11  and  C_15
REMARK    2  A    between atoms: C_17  and  C_19
REMARK    3  A    between atoms: C_18  and  C_22
REMARK                            x       y       z     vdW  Elec       q    Type
REMARK                         _______ _______ _______ _____ _____    ______ ____
ROOT
ATOM      6  N   UNL     1      -3.755   0.210  24.524  0.00  0.00    -0.299 N 
ATOM      8  N   UNL     1      -4.015   2.471  24.081  0.00  0.00    -0.210 NA
ATOM      9  N   UNL     1      -4.901   1.477  26.090  0.00  0.00    -0.223 NA
ATOM     11  C   UNL     1      -2.441  -1.441  23.432  0.00  0.00    +0.095 C 
ATOM     12  C   UNL     1      -3.472  -2.120  24.339  0.00  0.00    +0.033 C 
ATOM     13  C   UNL     1      -3.024  -0.024  23.277  0.00  0.00    +0.121 C 
ATOM     14  C   UNL     1      -3.910  -1.016  25.301  0.00  0.00    +0.109 C 
ATOM     16  C   UNL     1      -4.244   1.438  24.915  0.00  0.00    +0.218 A 
ATOM     18  C   UNL     1      -4.507   3.657  24.495  0.00  0.00    +0.149 A 
ATOM     20  C   UNL     1      -5.367   2.694  26.442  0.00  0.00    +0.116 A 
ATOM     21  C   UNL     1      -5.198   3.830  25.676  0.00  0.00    +0.052 A 
ENDROOT
BRANCH  11  15
ATOM      5  O   UNL     1      -0.057  -0.861  23.354  0.00  0.00    -0.420 OA
ATOM      7  N   UNL     1      -0.612  -2.197  25.060  0.00  0.00    -0.112 NA
ATOM     10  N   UNL     1       0.747  -1.952  25.135  0.00  0.00    -0.107 NA
ATOM     15  C   UNL     1      -1.039  -1.541  24.007  0.00  0.00    +0.222 A 
ATOM     17  C   UNL     1       1.027  -1.168  24.120  0.00  0.00    +0.251 A 
BRANCH  17  19
ATOM      4  F   UNL     1       3.469  -2.489  24.501  0.00  0.00    -0.205 F 
ATOM     19  C   UNL     1       2.273  -0.596  23.700  0.00  0.00    +0.074 A 
ATOM     23  C   UNL     1       3.468  -1.286  23.910  0.00  0.00    +0.136 A 
ATOM     24  C   UNL     1       2.290   0.655  23.084  0.00  0.00    +0.016 A 
ATOM     25  C   UNL     1       4.677  -0.725  23.501  0.00  0.00    +0.039 A 
ATOM     26  C   UNL     1       3.499   1.215  22.675  0.00  0.00    +0.001 A 
ATOM     27  C   UNL     1       4.694   0.526  22.884  0.00  0.00    +0.003 A 
ENDBRANCH  17  19
ENDBRANCH  11  15
BRANCH  18  22
ATOM      1  F   UNL     1      -4.305   4.493  22.278  0.00  0.00    -0.164 F 
ATOM      2  F   UNL     1      -5.203   5.820  23.748  0.00  0.00    -0.164 F 
ATOM      3  F   UNL     1      -3.069   5.437  23.797  0.00  0.00    -0.164 F 
ATOM     22  C   UNL     1      -4.276   4.828  23.601  0.00  0.00    +0.434 C 
ENDBRANCH  18  22
TORSDOF 3
ENDMDL
MODEL 7
REMARK VINA RESULT:       6.3      1.821      2.148
REMARK  Name = 51137943
REMARK  3 active torsions:
REMARK  status: ('A' for Active; 'I' for Inactive)
REMARK    1  A    between atoms: C_11  and  C_15
REMARK    2  A    between atoms: C_17  and  C_19
REMARK    3  A    between atoms: C_18  and  C_22
REMARK                            x       y       z     vdW  Elec       q    Type
REMARK                         _______ _______ _______ _____ _____    ______ ____
ROOT
ATOM      6  N   UNL     1      -2.755   1.609  24.384  0.00  0.00    -0.299 N 
ATOM      8  N   UNL     1      -2.345   3.883  24.569  0.00  0.00    -0.210 NA
ATOM      9  N   UNL     1      -3.695   2.718  26.189  0.00  0.00    -0.223 NA
ATOM     11  C   UNL     1      -1.813  -0.022  22.937  0.00  0.00    +0.095 C 
ATOM     12  C   UNL     1      -3.087  -0.578  23.579  0.00  0.00    +0.033 C 
ATOM     13  C   UNL     1      -1.972   1.495  23.152  0.00  0.00    +0.121 C 
ATOM     14  C   UNL     1      -3.323   0.326  24.788  0.00  0.00    +0.109 C 
ATOM     16  C   UNL     1      -2.939   2.787  25.077  0.00  0.00    +0.218 A 
ATOM     18  C   UNL     1      -2.546   5.017  25.271  0.00  0.00    +0.149 A 
ATOM     20  C   UNL     1      -3.856   3.888  26.842  0.00  0.00    +0.116 A 
ATOM     21  C   UNL     1      -3.300   5.081  26.425  0.00  0.00    +0.052 A 
ENDROOT
BRANCH  11  15
ATOM      5  O   UNL     1       0.631  -0.145  23.136  0.00  0.00    -0.420 OA
ATOM      7  N   UNL     1      -0.458  -1.671  24.355  0.00  0.00    -0.112 NA
ATOM     10  N   UNL     1       0.898  -1.851  24.558  0.00  0.00    -0.107 NA
ATOM     15  C   UNL     1      -0.566  -0.666  23.519  0.00  0.00    +0.222 A 
ATOM     17  C   UNL     1       1.495  -0.938  23.827  0.00  0.00    +0.251 A 
BRANCH  17  19
ATOM      4  F   UNL     1       2.397   1.565  22.947  0.00  0.00    -0.205 F 
ATOM     19  C   UNL     1       2.889  -0.654  23.647  0.00  0.00    +0.074 A 
ATOM     23  C   UNL     1       3.297   0.606  23.206  0.00  0.00    +0.136 A 
ATOM     24  C   UNL     1       3.838  -1.641  23.912  0.00  0.00    +0.016 A 
ATOM     25  C   UNL     1       4.653   0.877  23.032  0.00  0.00    +0.039 A 
ATOM     26  C   UNL     1       5.195  -1.368  23.738  0.00  0.00    +0.001 A 
ATOM     27  C   UNL     1       5.603  -0.110  23.297  0.00  0.00    +0.003 A 
ENDBRANCH  17  19
ENDBRANCH  11  15
BRANCH  18  22
ATOM      1  F   UNL     1      -0.572   6.096  24.503  0.00  0.00    -0.164 F 
ATOM      2  F   UNL     1      -2.441   6.689  23.563  0.00  0.00    -0.164 F 
ATOM      3  F   UNL     1      -1.999   7.325  25.589  0.00  0.00    -0.164 F 
ATOM     22  C   UNL     1      -1.906   6.256  24.743  0.00  0.00    +0.434 C 
ENDBRANCH  18  22
TORSDOF 3
ENDMDL
