MODEL 1
REMARK VINA RESULT:      -6.6      0.000      0.000
REMARK  Name = 75536952
REMARK  3 active torsions:
REMARK  status: ('A' for Active; 'I' for Inactive)
REMARK    1  A    between atoms: O_2  and  C_7
REMARK    2  A    between atoms: N_5  and  C_9
REMARK    3  A    between atoms: C_9  and  C_12
REMARK                            x       y       z     vdW  Elec       q    Type
REMARK                         _______ _______ _______ _____ _____    ______ ____
ROOT
ATOM      9  C   UNL     1      -3.231   1.086  23.262  0.00  0.00    +0.123 C 
ENDROOT
BRANCH   9  12
ATOM      3  O   UNL     1      -0.894  -0.303  24.468  0.00  0.00    -0.452 OA
ATOM      4  O   UNL     1      -0.886  -2.581  25.254  0.00  0.00    -0.453 OA
ATOM     12  C   UNL     1      -3.228  -0.336  23.755  0.00  0.00    +0.012 A 
ATOM     13  C   UNL     1      -2.100  -0.911  24.303  0.00  0.00    +0.171 A 
ATOM     14  C   UNL     1      -4.380  -1.122  23.667  0.00  0.00    +0.009 A 
ATOM     15  C   UNL     1      -2.095  -2.212  24.752  0.00  0.00    +0.167 A 
ATOM     16  C   UNL     1      -4.375  -2.452  24.125  0.00  0.00    +0.004 A 
ATOM     17  C   UNL     1      -3.219  -3.010  24.677  0.00  0.00    +0.049 A 
ATOM     18  C   UNL     1      -0.130  -1.367  25.071  0.00  0.00    +0.466 C 
ENDBRANCH   9  12
BRANCH   9   5
ATOM      1  O   UNL     1      -2.647   4.481  26.211  0.00  0.00    -0.376 OA
ATOM      5  N   UNL     1      -3.273   2.046  24.366  0.00  0.00    -0.293 NA
ATOM      6  C   UNL     1      -4.636   2.556  24.540  0.00  0.00    +0.118 C 
ATOM      7  C   UNL     1      -4.822   3.839  25.366  0.00  0.00    +0.154 C 
ATOM      8  C   UNL     1      -2.254   3.086  24.209  0.00  0.00    +0.113 C 
ATOM     10  C   UNL     1      -3.911   3.941  26.581  0.00  0.00    +0.192 C 
ATOM     11  C   UNL     1      -1.772   3.555  25.583  0.00  0.00    +0.175 C 
BRANCH   7   2
ATOM      2  O   UNL     1      -6.175   3.881  25.823  0.00  0.00    -0.388 OA
ATOM     19  H   UNL     1      -6.746   3.964  25.041  0.00  0.00    +0.210 HD
ENDBRANCH   7   2
ENDBRANCH   9   5
TORSDOF 3
ENDMDL
MODEL 2
REMARK VINA RESULT:      -6.1      1.496      5.578
REMARK  Name = 75536952
REMARK  3 active torsions:
REMARK  status: ('A' for Active; 'I' for Inactive)
REMARK    1  A    between atoms: O_2  and  C_7
REMARK    2  A    between atoms: N_5  and  C_9
REMARK    3  A    between atoms: C_9  and  C_12
REMARK                            x       y       z     vdW  Elec       q    Type
REMARK                         _______ _______ _______ _____ _____    ______ ____
ROOT
ATOM      9  C   UNL     1      -2.298   1.694  23.039  0.00  0.00    +0.123 C 
ENDROOT
BRANCH   9  12
ATOM      3  O   UNL     1      -4.920   1.869  24.431  0.00  0.00    -0.452 OA
ATOM      4  O   UNL     1      -5.439   3.386  26.231  0.00  0.00    -0.453 OA
ATOM     12  C   UNL     1      -2.620   2.640  24.165  0.00  0.00    +0.012 A 
ATOM     13  C   UNL     1      -3.864   2.661  24.760  0.00  0.00    +0.171 A 
ATOM     14  C   UNL     1      -1.657   3.534  24.640  0.00  0.00    +0.009 A 
ATOM     15  C   UNL     1      -4.160   3.528  25.788  0.00  0.00    +0.167 A 
ATOM     16  C   UNL     1      -1.960   4.420  25.690  0.00  0.00    +0.004 A 
ATOM     17  C   UNL     1      -3.228   4.420  26.277  0.00  0.00    +0.049 A 
ATOM     18  C   UNL     1      -5.914   2.334  25.367  0.00  0.00    +0.466 C 
ENDBRANCH   9  12
BRANCH   9   5
ATOM      1  O   UNL     1      -1.024  -2.050  25.258  0.00  0.00    -0.376 OA
ATOM      5  N   UNL     1      -2.029   0.340  23.525  0.00  0.00    -0.293 NA
ATOM      6  C   UNL     1      -3.277  -0.426  23.602  0.00  0.00    +0.118 C 
ATOM      7  C   UNL     1      -3.277  -1.713  24.442  0.00  0.00    +0.154 C 
ATOM      8  C   UNL     1      -1.255   0.362  24.767  0.00  0.00    +0.113 C 
ATOM     10  C   UNL     1      -1.998  -2.531  24.339  0.00  0.00    +0.192 C 
ATOM     11  C   UNL     1      -0.352  -0.870  24.840  0.00  0.00    +0.175 C 
BRANCH   7   2
ATOM      2  O   UNL     1      -4.362  -2.532  24.000  0.00  0.00    -0.388 OA
ATOM     19  H   UNL     1      -4.465  -3.253  24.643  0.00  0.00    +0.210 HD
ENDBRANCH   7   2
ENDBRANCH   9   5
TORSDOF 3
ENDMDL
MODEL 3
REMARK VINA RESULT:      -5.7      1.390      5.326
REMARK  Name = 75536952
REMARK  3 active torsions:
REMARK  status: ('A' for Active; 'I' for Inactive)
REMARK    1  A    between atoms: O_2  and  C_7
REMARK    2  A    between atoms: N_5  and  C_9
REMARK    3  A    between atoms: C_9  and  C_12
REMARK                            x       y       z     vdW  Elec       q    Type
REMARK                         _______ _______ _______ _____ _____    ______ ____
ROOT
ATOM      9  C   UNL     1      -3.005   1.337  23.039  0.00  0.00    +0.123 C 
ENDROOT
BRANCH   9  12
ATOM      3  O   UNL     1      -1.700   3.643  24.390  0.00  0.00    -0.452 OA
ATOM      4  O   UNL     1      -2.700   4.984  26.126  0.00  0.00    -0.453 OA
ATOM     12  C   UNL     1      -3.631   2.175  24.122  0.00  0.00    +0.012 A 
ATOM     13  C   UNL     1      -2.959   3.231  24.701  0.00  0.00    +0.171 A 
ATOM     14  C   UNL     1      -4.924   1.901  24.576  0.00  0.00    +0.009 A 
ATOM     15  C   UNL     1      -3.530   3.996  25.693  0.00  0.00    +0.167 A 
ATOM     16  C   UNL     1      -5.507   2.683  25.589  0.00  0.00    +0.004 A 
ATOM     17  C   UNL     1      -4.805   3.748  26.159  0.00  0.00    +0.049 A 
ATOM     18  C   UNL     1      -1.542   4.754  25.297  0.00  0.00    +0.466 C 
ENDBRANCH   9  12
BRANCH   9   5
ATOM      1  O   UNL     1      -0.703  -1.828  25.330  0.00  0.00    -0.376 OA
ATOM      5  N   UNL     1      -2.390   0.122  23.577  0.00  0.00    -0.293 NA
ATOM      6  C   UNL     1      -3.420  -0.885  23.852  0.00  0.00    +0.118 C 
ATOM      7  C   UNL     1      -3.046  -2.060  24.768  0.00  0.00    +0.154 C 
ATOM      8  C   UNL     1      -1.519   0.422  24.714  0.00  0.00    +0.113 C 
ATOM     10  C   UNL     1      -1.633  -2.589  24.567  0.00  0.00    +0.192 C 
ATOM     11  C   UNL     1      -0.359  -0.574  24.759  0.00  0.00    +0.175 C 
BRANCH   7   2
ATOM      2  O   UNL     1      -3.958  -3.130  24.513  0.00  0.00    -0.388 OA
ATOM     19  H   UNL     1      -4.854  -2.803  24.703  0.00  0.00    +0.210 HD
ENDBRANCH   7   2
ENDBRANCH   9   5
TORSDOF 3
ENDMDL
MODEL 4
REMARK VINA RESULT:      -5.6      1.235      2.172
REMARK  Name = 75536952
REMARK  3 active torsions:
REMARK  status: ('A' for Active; 'I' for Inactive)
REMARK    1  A    between atoms: O_2  and  C_7
REMARK    2  A    between atoms: N_5  and  C_9
REMARK    3  A    between atoms: C_9  and  C_12
REMARK                            x       y       z     vdW  Elec       q    Type
REMARK                         _______ _______ _______ _____ _____    ______ ____
ROOT
ATOM      9  C   UNL     1      -2.386   1.326  23.452  0.00  0.00    +0.123 C 
ENDROOT
BRANCH   9  12
ATOM      3  O   UNL     1      -4.140  -1.072  23.595  0.00  0.00    -0.452 OA
ATOM      4  O   UNL     1      -3.512  -3.199  24.539  0.00  0.00    -0.453 OA
ATOM     12  C   UNL     1      -1.992  -0.003  24.040  0.00  0.00    +0.012 A 
ATOM     13  C   UNL     1      -2.865  -1.070  24.070  0.00  0.00    +0.171 A 
ATOM     14  C   UNL     1      -0.716  -0.192  24.579  0.00  0.00    +0.009 A 
ATOM     15  C   UNL     1      -2.506  -2.285  24.609  0.00  0.00    +0.167 A 
ATOM     16  C   UNL     1      -0.350  -1.433  25.130  0.00  0.00    +0.004 A 
ATOM     17  C   UNL     1      -1.253  -2.498  25.147  0.00  0.00    +0.049 A 
ATOM     18  C   UNL     1      -4.544  -2.424  23.897  0.00  0.00    +0.466 C 
ENDBRANCH   9  12
BRANCH   9   5
ATOM      1  O   UNL     1      -2.804   4.947  26.149  0.00  0.00    -0.376 OA
ATOM      5  N   UNL     1      -2.701   2.309  24.489  0.00  0.00    -0.293 NA
ATOM      6  C   UNL     1      -4.153   2.413  24.662  0.00  0.00    +0.118 C 
ATOM      7  C   UNL     1      -4.701   3.642  25.403  0.00  0.00    +0.154 C 
ATOM      8  C   UNL     1      -2.030   3.586  24.237  0.00  0.00    +0.113 C 
ATOM     10  C   UNL     1      -3.854   4.092  26.586  0.00  0.00    +0.192 C 
ATOM     11  C   UNL     1      -1.700   4.272  25.563  0.00  0.00    +0.175 C 
BRANCH   7   2
ATOM      2  O   UNL     1      -6.006   3.323  25.891  0.00  0.00    -0.388 OA
ATOM     19  H   UNL     1      -6.506   4.153  25.954  0.00  0.00    +0.210 HD
ENDBRANCH   7   2
ENDBRANCH   9   5
TORSDOF 3
ENDMDL
MODEL 5
REMARK VINA RESULT:      -5.6      0.687      1.851
REMARK  Name = 75536952
REMARK  3 active torsions:
REMARK  status: ('A' for Active; 'I' for Inactive)
REMARK    1  A    between atoms: O_2  and  C_7
REMARK    2  A    between atoms: N_5  and  C_9
REMARK    3  A    between atoms: C_9  and  C_12
REMARK                            x       y       z     vdW  Elec       q    Type
REMARK                         _______ _______ _______ _____ _____    ______ ____
ROOT
ATOM      9  C   UNL     1      -3.248   1.004  23.053  0.00  0.00    +0.123 C 
ENDROOT
BRANCH   9  12
ATOM      3  O   UNL     1      -0.896  -0.223  24.398  0.00  0.00    -0.452 OA
ATOM      4  O   UNL     1      -0.829  -2.447  25.325  0.00  0.00    -0.453 OA
ATOM     12  C   UNL     1      -3.208  -0.385  23.634  0.00  0.00    +0.012 A 
ATOM     13  C   UNL     1      -2.076  -0.883  24.243  0.00  0.00    +0.171 A 
ATOM     14  C   UNL     1      -4.330  -1.216  23.568  0.00  0.00    +0.009 A 
ATOM     15  C   UNL     1      -2.038  -2.153  24.772  0.00  0.00    +0.167 A 
ATOM     16  C   UNL     1      -4.291  -2.514  24.109  0.00  0.00    +0.004 A 
ATOM     17  C   UNL     1      -3.131  -2.994  24.722  0.00  0.00    +0.049 A 
ATOM     18  C   UNL     1      -0.111  -1.219  25.084  0.00  0.00    +0.466 C 
ENDBRANCH   9  12
BRANCH   9   5
ATOM      1  O   UNL     1      -5.489   3.197  26.329  0.00  0.00    -0.376 OA
ATOM      5  N   UNL     1      -3.858   1.963  23.974  0.00  0.00    -0.293 NA
ATOM      6  C   UNL     1      -2.836   2.869  24.509  0.00  0.00    +0.118 C 
ATOM      7  C   UNL     1      -3.185   3.680  25.767  0.00  0.00    +0.154 C 
ATOM      8  C   UNL     1      -4.661   1.288  24.995  0.00  0.00    +0.113 C 
ATOM     10  C   UNL     1      -4.618   4.193  25.806  0.00  0.00    +0.192 C 
ATOM     11  C   UNL     1      -5.837   2.175  25.405  0.00  0.00    +0.175 C 
BRANCH   7   2
ATOM      2  O   UNL     1      -2.310   4.809  25.824  0.00  0.00    -0.388 OA
ATOM     19  H   UNL     1      -1.802   4.743  26.650  0.00  0.00    +0.210 HD
ENDBRANCH   7   2
ENDBRANCH   9   5
TORSDOF 3
ENDMDL
MODEL 6
REMARK VINA RESULT:      -5.6      1.315      6.014
REMARK  Name = 75536952
REMARK  3 active torsions:
REMARK  status: ('A' for Active; 'I' for Inactive)
REMARK    1  A    between atoms: O_2  and  C_7
REMARK    2  A    between atoms: N_5  and  C_9
REMARK    3  A    between atoms: C_9  and  C_12
REMARK                            x       y       z     vdW  Elec       q    Type
REMARK                         _______ _______ _______ _____ _____    ______ ____
ROOT
ATOM      9  C   UNL     1      -2.437   1.453  23.323  0.00  0.00    +0.123 C 
ENDROOT
BRANCH   9  12
ATOM      3  O   UNL     1      -4.982   2.134  24.703  0.00  0.00    -0.452 OA
ATOM      4  O   UNL     1      -5.297   3.998  26.199  0.00  0.00    -0.453 OA
ATOM     12  C   UNL     1      -2.632   2.617  24.259  0.00  0.00    +0.012 A 
ATOM     13  C   UNL     1      -3.847   2.867  24.861  0.00  0.00    +0.171 A 
ATOM     14  C   UNL     1      -1.575   3.485  24.543  0.00  0.00    +0.009 A 
ATOM     15  C   UNL     1      -4.026   3.931  25.715  0.00  0.00    +0.167 A 
ATOM     16  C   UNL     1      -1.758   4.573  25.415  0.00  0.00    +0.004 A 
ATOM     17  C   UNL     1      -3.000   4.804  26.013  0.00  0.00    +0.049 A 
ATOM     18  C   UNL     1      -5.897   2.856  25.553  0.00  0.00    +0.466 C 
ENDBRANCH   9  12
BRANCH   9   5
ATOM      1  O   UNL     1      -3.491  -2.754  24.648  0.00  0.00    -0.376 OA
ATOM      5  N   UNL     1      -2.618   0.170  24.003  0.00  0.00    -0.293 NA
ATOM      6  C   UNL     1      -1.319  -0.369  24.417  0.00  0.00    +0.118 C 
ATOM      7  C   UNL     1      -1.246  -1.859  24.788  0.00  0.00    +0.154 C 
ATOM      8  C   UNL     1      -3.426  -0.751  23.201  0.00  0.00    +0.113 C 
ATOM     10  C   UNL     1      -2.457  -2.376  25.551  0.00  0.00    +0.192 C 
ATOM     11  C   UNL     1      -4.237  -1.667  24.119  0.00  0.00    +0.175 C 
BRANCH   7   2
ATOM      2  O   UNL     1      -0.091  -2.057  25.605  0.00  0.00    -0.388 OA
ATOM     19  H   UNL     1       0.198  -1.184  25.921  0.00  0.00    +0.210 HD
ENDBRANCH   7   2
ENDBRANCH   9   5
TORSDOF 3
ENDMDL
MODEL 7
REMARK VINA RESULT:      -5.5      1.460      5.648
REMARK  Name = 75536952
REMARK  3 active torsions:
REMARK  status: ('A' for Active; 'I' for Inactive)
REMARK    1  A    between atoms: O_2  and  C_7
REMARK    2  A    between atoms: N_5  and  C_9
REMARK    3  A    between atoms: C_9  and  C_12
REMARK                            x       y       z     vdW  Elec       q    Type
REMARK                         _______ _______ _______ _____ _____    ______ ____
ROOT
ATOM      9  C   UNL     1      -3.477   0.999  23.413  0.00  0.00    +0.123 C 
ENDROOT
BRANCH   9  12
ATOM      3  O   UNL     1      -1.701   3.170  24.402  0.00  0.00    -0.452 OA
ATOM      4  O   UNL     1      -2.369   4.938  25.898  0.00  0.00    -0.453 OA
ATOM     12  C   UNL     1      -3.896   2.104  24.346  0.00  0.00    +0.012 A 
ATOM     13  C   UNL     1      -3.010   3.076  24.761  0.00  0.00    +0.171 A 
ATOM     14  C   UNL     1      -5.207   2.173  24.823  0.00  0.00    +0.009 A 
ATOM     15  C   UNL     1      -3.392   4.086  25.615  0.00  0.00    +0.167 A 
ATOM     16  C   UNL     1      -5.597   3.204  25.696  0.00  0.00    +0.004 A 
ATOM     17  C   UNL     1      -4.680   4.178  26.101  0.00  0.00    +0.049 A 
ATOM     18  C   UNL     1      -1.301   4.351  25.127  0.00  0.00    +0.466 C 
ENDBRANCH   9  12
BRANCH   9   5
ATOM      1  O   UNL     1      -1.453  -2.659  25.171  0.00  0.00    -0.376 OA
ATOM      5  N   UNL     1      -2.614   0.021  24.078  0.00  0.00    -0.293 NA
ATOM      6  C   UNL     1      -1.234   0.161  23.604  0.00  0.00    +0.118 C 
ATOM      7  C   UNL     1      -0.262  -0.999  23.872  0.00  0.00    +0.154 C 
ATOM      8  C   UNL     1      -3.157  -1.334  23.966  0.00  0.00    +0.113 C 
ATOM     10  C   UNL     1      -0.437  -1.663  25.231  0.00  0.00    +0.192 C 
ATOM     11  C   UNL     1      -2.779  -2.150  25.203  0.00  0.00    +0.175 C 
BRANCH   7   2
ATOM      2  O   UNL     1       1.071  -0.488  23.799  0.00  0.00    -0.388 OA
ATOM     19  H   UNL     1       1.676  -1.249  23.798  0.00  0.00    +0.210 HD
ENDBRANCH   7   2
ENDBRANCH   9   5
TORSDOF 3
ENDMDL
MODEL 8
REMARK VINA RESULT:      -5.4      0.892      2.008
REMARK  Name = 75536952
REMARK  3 active torsions:
REMARK  status: ('A' for Active; 'I' for Inactive)
REMARK    1  A    between atoms: O_2  and  C_7
REMARK    2  A    between atoms: N_5  and  C_9
REMARK    3  A    between atoms: C_9  and  C_12
REMARK                            x       y       z     vdW  Elec       q    Type
REMARK                         _______ _______ _______ _____ _____    ______ ____
ROOT
ATOM      9  C   UNL     1      -3.168   1.292  22.928  0.00  0.00    +0.123 C 
ENDROOT
BRANCH   9  12
ATOM      3  O   UNL     1      -0.755  -0.019  24.071  0.00  0.00    -0.452 OA
ATOM      4  O   UNL     1      -0.730  -2.159  25.179  0.00  0.00    -0.453 OA
ATOM     12  C   UNL     1      -3.154  -0.044  23.622  0.00  0.00    +0.012 A 
ATOM     13  C   UNL     1      -1.990  -0.587  24.126  0.00  0.00    +0.171 A 
ATOM     14  C   UNL     1      -4.333  -0.780  23.773  0.00  0.00    +0.009 A 
ATOM     15  C   UNL     1      -1.976  -1.809  24.758  0.00  0.00    +0.167 A 
ATOM     16  C   UNL     1      -4.318  -2.029  24.419  0.00  0.00    +0.004 A 
ATOM     17  C   UNL     1      -3.125  -2.556  24.921  0.00  0.00    +0.049 A 
ATOM     18  C   UNL     1       0.038  -1.021  24.739  0.00  0.00    +0.466 C 
ENDBRANCH   9  12
BRANCH   9   5
ATOM      1  O   UNL     1      -3.695   4.118  26.436  0.00  0.00    -0.376 OA
ATOM      5  N   UNL     1      -3.184   2.402  23.883  0.00  0.00    -0.293 NA
ATOM      6  C   UNL     1      -1.822   2.901  24.098  0.00  0.00    +0.118 C 
ATOM      7  C   UNL     1      -1.568   3.782  25.331  0.00  0.00    +0.154 C 
ATOM      8  C   UNL     1      -3.896   2.042  25.110  0.00  0.00    +0.113 C 
ATOM     10  C   UNL     1      -2.694   4.755  25.650  0.00  0.00    +0.192 C 
ATOM     11  C   UNL     1      -4.574   3.278  25.700  0.00  0.00    +0.175 C 
BRANCH   7   2
ATOM      2  O   UNL     1      -0.380   4.542  25.098  0.00  0.00    -0.388 OA
ATOM     19  H   UNL     1      -0.534   5.089  24.310  0.00  0.00    +0.210 HD
ENDBRANCH   7   2
ENDBRANCH   9   5
TORSDOF 3
ENDMDL
MODEL 9
REMARK VINA RESULT:      -5.0      1.336      2.797
REMARK  Name = 75536952
REMARK  3 active torsions:
REMARK  status: ('A' for Active; 'I' for Inactive)
REMARK    1  A    between atoms: O_2  and  C_7
REMARK    2  A    between atoms: N_5  and  C_9
REMARK    3  A    between atoms: C_9  and  C_12
REMARK                            x       y       z     vdW  Elec       q    Type
REMARK                         _______ _______ _______ _____ _____    ______ ____
ROOT
ATOM      9  C   UNL     1      -2.963   1.261  23.068  0.00  0.00    +0.123 C 
ENDROOT
BRANCH   9  12
ATOM      3  O   UNL     1      -4.181  -1.414  23.522  0.00  0.00    -0.452 OA
ATOM      4  O   UNL     1      -3.141  -3.230  24.719  0.00  0.00    -0.453 OA
ATOM     12  C   UNL     1      -2.311   0.127  23.814  0.00  0.00    +0.012 A 
ATOM     13  C   UNL     1      -2.944  -1.087  23.983  0.00  0.00    +0.171 A 
ATOM     14  C   UNL     1      -1.035   0.277  24.363  0.00  0.00    +0.009 A 
ATOM     15  C   UNL     1      -2.349  -2.124  24.667  0.00  0.00    +0.167 A 
ATOM     16  C   UNL     1      -0.428  -0.782  25.062  0.00  0.00    +0.004 A 
ATOM     17  C   UNL     1      -1.090  -2.003  25.218  0.00  0.00    +0.049 A 
ATOM     18  C   UNL     1      -4.300  -2.773  23.993  0.00  0.00    +0.466 C 
ENDBRANCH   9  12
BRANCH   9   5
ATOM      1  O   UNL     1      -5.717   3.087  26.173  0.00  0.00    -0.376 OA
ATOM      5  N   UNL     1      -3.750   2.117  23.957  0.00  0.00    -0.293 NA
ATOM      6  C   UNL     1      -2.877   3.085  24.628  0.00  0.00    +0.118 C 
ATOM      7  C   UNL     1      -3.424   3.802  25.872  0.00  0.00    +0.154 C 
ATOM      8  C   UNL     1      -4.583   1.325  24.863  0.00  0.00    +0.113 C 
ATOM     10  C   UNL     1      -4.896   4.182  25.781  0.00  0.00    +0.192 C 
ATOM     11  C   UNL     1      -5.873   2.083  25.181  0.00  0.00    +0.175 C 
BRANCH   7   2
ATOM      2  O   UNL     1      -2.670   5.001  26.062  0.00  0.00    -0.388 OA
ATOM     19  H   UNL     1      -2.814   5.564  25.282  0.00  0.00    +0.210 HD
ENDBRANCH   7   2
ENDBRANCH   9   5
TORSDOF 3
ENDMDL
MODEL 10
REMARK VINA RESULT:      -4.5      1.924      5.400
REMARK  Name = 75536952
REMARK  3 active torsions:
REMARK  status: ('A' for Active; 'I' for Inactive)
REMARK    1  A    between atoms: O_2  and  C_7
REMARK    2  A    between atoms: N_5  and  C_9
REMARK    3  A    between atoms: C_9  and  C_12
REMARK                            x       y       z     vdW  Elec       q    Type
REMARK                         _______ _______ _______ _____ _____    ______ ____
ROOT
ATOM      9  C   UNL     1      -4.128   1.179  24.422  0.00  0.00    +0.123 C 
ENDROOT
BRANCH   9  12
ATOM      3  O   UNL     1      -1.353   1.860  23.597  0.00  0.00    -0.452 OA
ATOM      4  O   UNL     1      -0.153   3.842  24.261  0.00  0.00    -0.453 OA
ATOM     12  C   UNL     1      -3.380   2.418  24.836  0.00  0.00    +0.012 A 
ATOM     13  C   UNL     1      -2.091   2.663  24.410  0.00  0.00    +0.171 A 
ATOM     14  C   UNL     1      -3.978   3.364  25.674  0.00  0.00    +0.009 A 
ATOM     15  C   UNL     1      -1.406   3.794  24.790  0.00  0.00    +0.167 A 
ATOM     16  C   UNL     1      -3.277   4.520  26.062  0.00  0.00    +0.004 A 
ATOM     17  C   UNL     1      -1.972   4.744  25.616  0.00  0.00    +0.049 A 
ATOM     18  C   UNL     1      -0.126   2.613  23.507  0.00  0.00    +0.466 C 
ENDBRANCH   9  12
BRANCH   9   5
ATOM      1  O   UNL     1      -1.263  -2.181  25.454  0.00  0.00    -0.376 OA
ATOM      5  N   UNL     1      -3.281  -0.013  24.478  0.00  0.00    -0.293 NA
ATOM      6  C   UNL     1      -4.076  -1.211  24.189  0.00  0.00    +0.118 C 
ATOM      7  C   UNL     1      -3.483  -2.575  24.575  0.00  0.00    +0.154 C 
ATOM      8  C   UNL     1      -2.528  -0.076  25.732  0.00  0.00    +0.113 C 
ATOM     10  C   UNL     1      -1.984  -2.697  24.341  0.00  0.00    +0.192 C 
ATOM     11  C   UNL     1      -1.182  -0.763  25.497  0.00  0.00    +0.175 C 
BRANCH   7   2
ATOM      2  O   UNL     1      -4.135  -3.580  23.795  0.00  0.00    -0.388 OA
ATOM     19  H   UNL     1      -3.820  -4.444  24.108  0.00  0.00    +0.210 HD
ENDBRANCH   7   2
ENDBRANCH   9   5
TORSDOF 3
ENDMDL
