MODEL 1
REMARK VINA RESULT:      -4.0      0.000      0.000
REMARK  Name = 75368650
REMARK  6 active torsions:
REMARK  status: ('A' for Active; 'I' for Inactive)
REMARK    1  A    between atoms: N_2  and  C_6
REMARK    2  A    between atoms: N_4  and  C_14
REMARK    3  A    between atoms: C_14  and  C_18
REMARK    4  A    between atoms: C_18  and  C_19
REMARK    5  A    between atoms: C_18  and  C_20
REMARK    6  A    between atoms: C_18  and  C_21
REMARK                            x       y       z     vdW  Elec       q    Type
REMARK                         _______ _______ _______ _____ _____    ______ ____
ROOT
ATOM      1  O   UNL     1      -2.349  -9.978  11.087  0.00  0.00    -0.252 OA
ATOM      2  N   UNL     1      -4.048 -10.478  12.645  0.00  0.00    -0.281 N 
ATOM      3  N   UNL     1      -4.638  -9.846  10.572  0.00  0.00    -0.278 N 
ATOM      4  N   UNL     1      -7.038  -8.817   9.528  0.00  0.00    -0.299 NA
ATOM      5  C   UNL     1      -5.887 -10.191  11.216  0.00  0.00    +0.109 C 
ATOM      7  C   UNL     1      -5.498 -10.395  12.678  0.00  0.00    +0.133 C 
ATOM      8  C   UNL     1      -6.929  -9.099  10.974  0.00  0.00    +0.108 C 
ATOM      9  C   UNL     1      -4.648  -9.410   9.191  0.00  0.00    +0.125 C 
ATOM     10  C   UNL     1      -3.528 -10.090  11.394  0.00  0.00    +0.305 C 
ATOM     13  C   UNL     1      -5.744  -8.362   8.982  0.00  0.00    +0.103 C 
ENDROOT
BRANCH   2   6
ATOM      6  C   UNL     1      -3.272 -10.779  13.823  0.00  0.00    +0.078 C 
ATOM     11  C   UNL     1      -4.075 -10.465  15.089  0.00  0.00    +0.022 C 
ATOM     12  C   UNL     1      -1.942 -10.024  13.806  0.00  0.00    +0.022 C 
ATOM     15  C   UNL     1      -3.258 -10.725  16.352  0.00  0.00    +0.002 C 
ATOM     16  C   UNL     1      -1.129 -10.286  15.070  0.00  0.00    +0.002 C 
ATOM     17  C   UNL     1      -1.931  -9.974  16.330  0.00  0.00    +0.000 C 
ENDBRANCH   2   6
BRANCH   4  14
ATOM     14  C   UNL     1      -8.076  -7.816   9.282  0.00  0.00    +0.090 C 
BRANCH  14  18
ATOM     18  C   UNL     1      -9.471  -8.417   8.967  0.00  0.00    -0.025 C 
ATOM     19  C   UNL     1     -10.273  -7.379   8.158  0.00  0.00    +0.012 C 
ATOM     20  C   UNL     1      -9.336  -9.698   8.125  0.00  0.00    +0.012 C 
ATOM     21  C   UNL     1     -10.245  -8.737  10.257  0.00  0.00    +0.012 C 
ENDBRANCH  14  18
ENDBRANCH   4  14
TORSDOF 3
ENDMDL
MODEL 2
REMARK VINA RESULT:      -3.0      2.615      3.542
REMARK  Name = 75368650
REMARK  6 active torsions:
REMARK  status: ('A' for Active; 'I' for Inactive)
REMARK    1  A    between atoms: N_2  and  C_6
REMARK    2  A    between atoms: N_4  and  C_14
REMARK    3  A    between atoms: C_14  and  C_18
REMARK    4  A    between atoms: C_18  and  C_19
REMARK    5  A    between atoms: C_18  and  C_20
REMARK    6  A    between atoms: C_18  and  C_21
REMARK                            x       y       z     vdW  Elec       q    Type
REMARK                         _______ _______ _______ _____ _____    ______ ____
ROOT
ATOM      1  O   UNL     1      -3.677 -10.746  15.368  0.00  0.00    -0.252 OA
ATOM      2  N   UNL     1      -6.034 -10.673  15.322  0.00  0.00    -0.281 N 
ATOM      3  N   UNL     1      -4.910 -10.475  13.387  0.00  0.00    -0.278 N 
ATOM      4  N   UNL     1      -5.650  -9.448  10.876  0.00  0.00    -0.299 NA
ATOM      5  C   UNL     1      -6.303 -10.516  12.995  0.00  0.00    +0.109 C 
ATOM      7  C   UNL     1      -7.056 -10.418  14.320  0.00  0.00    +0.133 C 
ATOM      8  C   UNL     1      -6.608  -9.397  11.999  0.00  0.00    +0.108 C 
ATOM      9  C   UNL     1      -3.889 -10.373  12.365  0.00  0.00    +0.125 C 
ATOM     10  C   UNL     1      -4.739 -10.648  14.768  0.00  0.00    +0.305 C 
ATOM     13  C   UNL     1      -4.265  -9.284  11.358  0.00  0.00    +0.103 C 
ENDROOT
BRANCH   2   6
ATOM      6  C   UNL     1      -6.349 -10.780  16.725  0.00  0.00    +0.078 C 
ATOM     11  C   UNL     1      -7.484  -9.821  17.095  0.00  0.00    +0.022 C 
ATOM     12  C   UNL     1      -5.106 -10.528  17.581  0.00  0.00    +0.022 C 
ATOM     15  C   UNL     1      -7.803  -9.874  18.587  0.00  0.00    +0.002 C 
ATOM     16  C   UNL     1      -5.429 -10.583  19.072  0.00  0.00    +0.002 C 
ATOM     17  C   UNL     1      -6.561  -9.627  19.438  0.00  0.00    +0.000 C 
ENDBRANCH   2   6
BRANCH   4  14
ATOM     14  C   UNL     1      -5.972  -8.419   9.886  0.00  0.00    +0.090 C 
BRANCH  14  18
ATOM     18  C   UNL     1      -7.304  -8.663   9.131  0.00  0.00    -0.025 C 
ATOM     19  C   UNL     1      -7.506  -7.515   8.124  0.00  0.00    +0.012 C 
ATOM     20  C   UNL     1      -7.259  -9.993   8.359  0.00  0.00    +0.012 C 
ATOM     21  C   UNL     1      -8.499  -8.680  10.100  0.00  0.00    +0.012 C 
ENDBRANCH  14  18
ENDBRANCH   4  14
TORSDOF 3
ENDMDL
MODEL 3
REMARK VINA RESULT:      -3.0      3.602      5.403
REMARK  Name = 75368650
REMARK  6 active torsions:
REMARK  status: ('A' for Active; 'I' for Inactive)
REMARK    1  A    between atoms: N_2  and  C_6
REMARK    2  A    between atoms: N_4  and  C_14
REMARK    3  A    between atoms: C_14  and  C_18
REMARK    4  A    between atoms: C_18  and  C_19
REMARK    5  A    between atoms: C_18  and  C_20
REMARK    6  A    between atoms: C_18  and  C_21
REMARK                            x       y       z     vdW  Elec       q    Type
REMARK                         _______ _______ _______ _____ _____    ______ ____
ROOT
ATOM      1  O   UNL     1      -4.610  -9.817  16.943  0.00  0.00    -0.252 OA
ATOM      2  N   UNL     1      -6.668  -9.933  15.797  0.00  0.00    -0.281 N 
ATOM      3  N   UNL     1      -4.789 -10.485  14.697  0.00  0.00    -0.278 N 
ATOM      4  N   UNL     1      -4.193 -10.654  11.954  0.00  0.00    -0.299 NA
ATOM      5  C   UNL     1      -5.856 -10.781  13.764  0.00  0.00    +0.109 C 
ATOM      7  C   UNL     1      -7.096 -10.191  14.432  0.00  0.00    +0.133 C 
ATOM      8  C   UNL     1      -5.532 -10.205  12.386  0.00  0.00    +0.108 C 
ATOM      9  C   UNL     1      -3.417 -10.748  14.313  0.00  0.00    +0.125 C 
ATOM     10  C   UNL     1      -5.271 -10.053  15.940  0.00  0.00    +0.305 C 
ATOM     13  C   UNL     1      -3.156 -10.208  12.905  0.00  0.00    +0.103 C 
ENDROOT
BRANCH   2   6
ATOM      6  C   UNL     1      -7.584  -9.465  16.809  0.00  0.00    +0.078 C 
ATOM     11  C   UNL     1      -8.144 -10.643  17.611  0.00  0.00    +0.022 C 
ATOM     12  C   UNL     1      -8.705  -8.633  16.184  0.00  0.00    +0.022 C 
ATOM     15  C   UNL     1      -9.157 -10.181  18.655  0.00  0.00    +0.002 C 
ATOM     16  C   UNL     1      -9.715  -8.173  17.231  0.00  0.00    +0.002 C 
ATOM     17  C   UNL     1     -10.271  -9.348  18.030  0.00  0.00    +0.000 C 
ENDBRANCH   2   6
BRANCH   4  14
ATOM     14  C   UNL     1      -3.899 -10.157  10.609  0.00  0.00    +0.090 C 
BRANCH  14  18
ATOM     18  C   UNL     1      -5.019  -9.269  10.006  0.00  0.00    -0.025 C 
ATOM     19  C   UNL     1      -5.010  -9.453   8.476  0.00  0.00    +0.012 C 
ATOM     20  C   UNL     1      -6.398  -9.687  10.544  0.00  0.00    +0.012 C 
ATOM     21  C   UNL     1      -4.781  -7.782  10.321  0.00  0.00    +0.012 C 
ENDBRANCH  14  18
ENDBRANCH   4  14
TORSDOF 3
ENDMDL
MODEL 4
REMARK VINA RESULT:      -2.1     16.340     17.647
REMARK  Name = 75368650
REMARK  6 active torsions:
REMARK  status: ('A' for Active; 'I' for Inactive)
REMARK    1  A    between atoms: N_2  and  C_6
REMARK    2  A    between atoms: N_4  and  C_14
REMARK    3  A    between atoms: C_14  and  C_18
REMARK    4  A    between atoms: C_18  and  C_19
REMARK    5  A    between atoms: C_18  and  C_20
REMARK    6  A    between atoms: C_18  and  C_21
REMARK                            x       y       z     vdW  Elec       q    Type
REMARK                         _______ _______ _______ _____ _____    ______ ____
ROOT
ATOM      1  O   UNL     1      -0.108  -1.830  23.417  0.00  0.00    -0.252 OA
ATOM      2  N   UNL     1       0.937   0.271  23.663  0.00  0.00    -0.281 N 
ATOM      3  N   UNL     1      -1.205   0.049  24.305  0.00  0.00    -0.278 N 
ATOM      4  N   UNL     1      -3.244   1.936  24.739  0.00  0.00    -0.299 NA
ATOM      5  C   UNL     1      -0.844   1.395  24.700  0.00  0.00    +0.109 C 
ATOM      7  C   UNL     1       0.525   1.608  24.057  0.00  0.00    +0.133 C 
ATOM      8  C   UNL     1      -1.921   2.385  24.261  0.00  0.00    +0.108 C 
ATOM      9  C   UNL     1      -2.536  -0.442  24.594  0.00  0.00    +0.125 C 
ATOM     10  C   UNL     1      -0.123  -0.654  23.756  0.00  0.00    +0.305 C 
ATOM     13  C   UNL     1      -3.578   0.606  24.193  0.00  0.00    +0.103 C 
ENDROOT
BRANCH   2   6
ATOM      6  C   UNL     1       2.240   0.006  23.104  0.00  0.00    +0.078 C 
ATOM     11  C   UNL     1       2.989  -1.024  23.954  0.00  0.00    +0.022 C 
ATOM     12  C   UNL     1       3.043   1.301  22.963  0.00  0.00    +0.022 C 
ATOM     15  C   UNL     1       4.393  -1.284  23.416  0.00  0.00    +0.002 C 
ATOM     16  C   UNL     1       4.446   1.037  22.425  0.00  0.00    +0.002 C 
ATOM     17  C   UNL     1       5.190   0.008  23.272  0.00  0.00    +0.000 C 
ENDBRANCH   2   6
BRANCH   4  14
ATOM     14  C   UNL     1      -4.274   2.909  24.375  0.00  0.00    +0.090 C 
BRANCH  14  18
ATOM     18  C   UNL     1      -5.003   3.542  25.589  0.00  0.00    -0.025 C 
ATOM     19  C   UNL     1      -5.911   2.470  26.220  0.00  0.00    +0.012 C 
ATOM     20  C   UNL     1      -3.991   4.014  26.648  0.00  0.00    +0.012 C 
ATOM     21  C   UNL     1      -5.877   4.732  25.157  0.00  0.00    +0.012 C 
ENDBRANCH  14  18
ENDBRANCH   4  14
TORSDOF 3
ENDMDL
MODEL 5
REMARK VINA RESULT:      -0.0     16.275     18.252
REMARK  Name = 75368650
REMARK  6 active torsions:
REMARK  status: ('A' for Active; 'I' for Inactive)
REMARK    1  A    between atoms: N_2  and  C_6
REMARK    2  A    between atoms: N_4  and  C_14
REMARK    3  A    between atoms: C_14  and  C_18
REMARK    4  A    between atoms: C_18  and  C_19
REMARK    5  A    between atoms: C_18  and  C_20
REMARK    6  A    between atoms: C_18  and  C_21
REMARK                            x       y       z     vdW  Elec       q    Type
REMARK                         _______ _______ _______ _____ _____    ______ ____
ROOT
ATOM      1  O   UNL     1      -3.215  -0.707  24.736  0.00  0.00    -0.252 OA
ATOM      2  N   UNL     1      -2.985   1.512  23.969  0.00  0.00    -0.281 N 
ATOM      3  N   UNL     1      -1.237   0.115  23.768  0.00  0.00    -0.278 N 
ATOM      4  N   UNL     1       1.513   0.580  23.409  0.00  0.00    -0.299 NA
ATOM      5  C   UNL     1      -0.812   1.328  23.101  0.00  0.00    +0.109 C 
ATOM      7  C   UNL     1      -1.908   2.334  23.443  0.00  0.00    +0.133 C 
ATOM      8  C   UNL     1       0.590   1.724  23.562  0.00  0.00    +0.108 C 
ATOM      9  C   UNL     1      -0.344  -1.023  23.809  0.00  0.00    +0.125 C 
ATOM     10  C   UNL     1      -2.563   0.191  24.220  0.00  0.00    +0.305 C 
ATOM     13  C   UNL     1       1.061  -0.571  24.215  0.00  0.00    +0.103 C 
ENDROOT
BRANCH   2   6
ATOM      6  C   UNL     1      -4.270   2.067  24.317  0.00  0.00    +0.078 C 
ATOM     11  C   UNL     1      -4.099   3.290  25.222  0.00  0.00    +0.022 C 
ATOM     12  C   UNL     1      -5.159   1.009  24.974  0.00  0.00    +0.022 C 
ATOM     15  C   UNL     1      -5.446   3.867  25.651  0.00  0.00    +0.002 C 
ATOM     16  C   UNL     1      -6.504   1.589  25.401  0.00  0.00    +0.002 C 
ATOM     17  C   UNL     1      -6.331   2.809  26.301  0.00  0.00    +0.000 C 
ENDBRANCH   2   6
BRANCH   4  14
ATOM     14  C   UNL     1       2.871   0.968  23.791  0.00  0.00    +0.090 C 
BRANCH  14  18
ATOM     18  C   UNL     1       3.982   0.124  23.113  0.00  0.00    -0.025 C 
ATOM     19  C   UNL     1       3.775   0.188  21.588  0.00  0.00    +0.012 C 
ATOM     20  C   UNL     1       5.375   0.688  23.445  0.00  0.00    +0.012 C 
ATOM     21  C   UNL     1       3.912  -1.348  23.556  0.00  0.00    +0.012 C 
ENDBRANCH  14  18
ENDBRANCH   4  14
TORSDOF 3
ENDMDL
