MODEL 1
REMARK VINA RESULT:      -3.3      0.000      0.000
REMARK  Name = 56774933
REMARK  11 active torsions:
REMARK  status: ('A' for Active; 'I' for Inactive)
REMARK    1  A    between atoms: O_2  and  C_10
REMARK    2  A    between atoms: O_3  and  C_16
REMARK    3  A    between atoms: O_3  and  C_22
REMARK    4  A    between atoms: N_6  and  C_12
REMARK    5  A    between atoms: N_7  and  C_21
REMARK    6  A    between atoms: N_8  and  C_25
REMARK    7  A    between atoms: C_9  and  C_10
REMARK    8  A    between atoms: C_10  and  C_14
REMARK    9  A    between atoms: C_12  and  C_16
REMARK   10  A    between atoms: C_22  and  C_23
REMARK   11  A    between atoms: C_25  and  C_26
REMARK                            x       y       z     vdW  Elec       q    Type
REMARK                         _______ _______ _______ _____ _____    ______ ____
ROOT
ATOM     10  C   UNL     1      -2.980   2.916  24.188  0.00  0.00    +0.167 C 
ENDROOT
BRANCH  10   9
ATOM      1  O   UNL     1      -5.067   4.411  25.608  0.00  0.00    -0.369 OA
ATOM      4  O   UNL     1      -7.092   1.587  24.625  0.00  0.00    -0.273 OA
ATOM      6  N   UNL     1      -4.838   1.647  25.200  0.00  0.00    -0.289 N 
ATOM      9  C   UNL     1      -3.664   2.480  25.487  0.00  0.00    +0.135 C 
ATOM     11  C   UNL     1      -4.073   3.686  26.323  0.00  0.00    +0.185 C 
ATOM     13  C   UNL     1      -6.105   2.202  25.033  0.00  0.00    +0.242 C 
ATOM     15  C   UNL     1      -6.249   3.652  25.478  0.00  0.00    +0.255 C 
BRANCH   6  12
ATOM     12  C   UNL     1      -4.609   0.237  24.912  0.00  0.00    +0.136 C 
BRANCH  12  16
ATOM     16  C   UNL     1      -3.506  -0.337  25.781  0.00  0.00    +0.178 C 
BRANCH  16   3
ATOM      3  O   UNL     1      -3.628  -1.753  25.827  0.00  0.00    -0.378 OA
BRANCH   3  22
ATOM     22  C   UNL     1      -3.316  -2.345  24.573  0.00  0.00    +0.156 C 
ATOM     23  C   UNL     1      -1.812  -2.442  24.434  0.00  0.00    +0.034 C 
ENDBRANCH   3  22
ENDBRANCH  16   3
ENDBRANCH  12  16
ENDBRANCH   6  12
ENDBRANCH  10   9
BRANCH  10  14
ATOM     14  C   UNL     1      -1.704   2.153  23.942  0.00  0.00    -0.017 A 
ATOM     17  C   UNL     1      -1.675   1.127  22.998  0.00  0.00    +0.008 A 
ATOM     18  C   UNL     1      -0.552   2.471  24.660  0.00  0.00    +0.008 A 
ATOM     19  C   UNL     1      -0.494   0.421  22.770  0.00  0.00    +0.024 A 
ATOM     20  C   UNL     1       0.630   1.766  24.433  0.00  0.00    +0.024 A 
ATOM     21  C   UNL     1       0.659   0.741  23.488  0.00  0.00    +0.035 A 
BRANCH  21   7
ATOM      5  O   UNL     1       3.474   1.723  23.150  0.00  0.00    -0.253 OA
ATOM      7  N   UNL     1       1.841   0.035  23.260  0.00  0.00    -0.269 N 
ATOM      8  N   UNL     1       4.061  -0.498  22.893  0.00  0.00    -0.299 N 
ATOM     24  C   UNL     1       3.148   0.539  23.107  0.00  0.00    +0.304 C 
ATOM     28  H   UNL     1       1.744  -0.976  23.198  0.00  0.00    +0.156 HD
ATOM     29  H   UNL     1       3.719  -1.454  22.881  0.00  0.00    +0.150 HD
BRANCH   8  25
ATOM     25  C   UNL     1       5.476  -0.277  22.703  0.00  0.00    +0.102 C 
ATOM     26  C   UNL     1       6.181  -0.030  24.020  0.00  0.00    +0.024 C 
ENDBRANCH   8  25
ENDBRANCH  21   7
ENDBRANCH  10  14
BRANCH  10   2
ATOM      2  O   UNL     1      -3.872   2.713  23.096  0.00  0.00    -0.385 OA
ATOM     27  H   UNL     1      -4.548   3.410  23.099  0.00  0.00    +0.210 HD
ENDBRANCH  10   2
TORSDOF 9
ENDMDL
MODEL 2
REMARK VINA RESULT:      -2.8      1.525      3.204
REMARK  Name = 56774933
REMARK  11 active torsions:
REMARK  status: ('A' for Active; 'I' for Inactive)
REMARK    1  A    between atoms: O_2  and  C_10
REMARK    2  A    between atoms: O_3  and  C_16
REMARK    3  A    between atoms: O_3  and  C_22
REMARK    4  A    between atoms: N_6  and  C_12
REMARK    5  A    between atoms: N_7  and  C_21
REMARK    6  A    between atoms: N_8  and  C_25
REMARK    7  A    between atoms: C_9  and  C_10
REMARK    8  A    between atoms: C_10  and  C_14
REMARK    9  A    between atoms: C_12  and  C_16
REMARK   10  A    between atoms: C_22  and  C_23
REMARK   11  A    between atoms: C_25  and  C_26
REMARK                            x       y       z     vdW  Elec       q    Type
REMARK                         _______ _______ _______ _____ _____    ______ ____
ROOT
ATOM     10  C   UNL     1      -4.276   0.349  24.686  0.00  0.00    +0.167 C 
ENDROOT
BRANCH  10   9
ATOM      1  O   UNL     1      -6.425   1.924  25.916  0.00  0.00    -0.369 OA
ATOM      4  O   UNL     1      -3.675   4.083  26.820  0.00  0.00    -0.273 OA
ATOM      6  N   UNL     1      -3.953   2.784  24.910  0.00  0.00    -0.289 N 
ATOM      9  C   UNL     1      -4.734   1.739  24.236  0.00  0.00    +0.135 C 
ATOM     11  C   UNL     1      -6.219   1.942  24.507  0.00  0.00    +0.185 C 
ATOM     13  C   UNL     1      -4.362   3.335  26.122  0.00  0.00    +0.242 C 
ATOM     15  C   UNL     1      -5.798   3.027  26.532  0.00  0.00    +0.255 C 
BRANCH   6  12
ATOM     12  C   UNL     1      -2.640   3.100  24.363  0.00  0.00    +0.136 C 
BRANCH  12  16
ATOM     16  C   UNL     1      -2.147   4.452  24.844  0.00  0.00    +0.178 C 
BRANCH  16   3
ATOM      3  O   UNL     1      -0.791   4.341  25.260  0.00  0.00    -0.378 OA
BRANCH   3  22
ATOM     22  C   UNL     1      -0.319   3.006  25.147  0.00  0.00    +0.156 C 
ATOM     23  C   UNL     1       0.116   2.520  26.513  0.00  0.00    +0.034 C 
ENDBRANCH   3  22
ENDBRANCH  16   3
ENDBRANCH  12  16
ENDBRANCH   6  12
ENDBRANCH  10   9
BRANCH  10  14
ATOM     14  C   UNL     1      -2.823   0.107  24.369  0.00  0.00    -0.017 A 
ATOM     17  C   UNL     1      -2.291   0.547  23.157  0.00  0.00    +0.008 A 
ATOM     18  C   UNL     1      -2.010  -0.559  25.286  0.00  0.00    +0.008 A 
ATOM     19  C   UNL     1      -0.946   0.324  22.863  0.00  0.00    +0.024 A 
ATOM     20  C   UNL     1      -0.665  -0.783  24.993  0.00  0.00    +0.024 A 
ATOM     21  C   UNL     1      -0.133  -0.342  23.781  0.00  0.00    +0.035 A 
BRANCH  21   7
ATOM      5  O   UNL     1       2.136   1.598  23.467  0.00  0.00    -0.253 OA
ATOM      7  N   UNL     1       1.213  -0.565  23.487  0.00  0.00    -0.269 N 
ATOM      8  N   UNL     1       3.462  -0.249  23.050  0.00  0.00    -0.299 N 
ATOM     24  C   UNL     1       2.249   0.380  23.348  0.00  0.00    +0.304 C 
ATOM     28  H   UNL     1       1.479  -1.539  23.358  0.00  0.00    +0.156 HD
ATOM     29  H   UNL     1       3.481  -1.262  22.978  0.00  0.00    +0.150 HD
BRANCH   8  25
ATOM     25  C   UNL     1       4.698   0.473  22.853  0.00  0.00    +0.102 C 
ATOM     26  C   UNL     1       5.716   0.132  23.922  0.00  0.00    +0.024 C 
ENDBRANCH   8  25
ENDBRANCH  21   7
ENDBRANCH  10  14
BRANCH  10   2
ATOM      2  O   UNL     1      -4.484   0.215  26.089  0.00  0.00    -0.385 OA
ATOM     27  H   UNL     1      -3.769   0.668  26.564  0.00  0.00    +0.210 HD
ENDBRANCH  10   2
TORSDOF 9
ENDMDL
MODEL 3
REMARK VINA RESULT:      -2.2      1.686      2.314
REMARK  Name = 56774933
REMARK  11 active torsions:
REMARK  status: ('A' for Active; 'I' for Inactive)
REMARK    1  A    between atoms: O_2  and  C_10
REMARK    2  A    between atoms: O_3  and  C_16
REMARK    3  A    between atoms: O_3  and  C_22
REMARK    4  A    between atoms: N_6  and  C_12
REMARK    5  A    between atoms: N_7  and  C_21
REMARK    6  A    between atoms: N_8  and  C_25
REMARK    7  A    between atoms: C_9  and  C_10
REMARK    8  A    between atoms: C_10  and  C_14
REMARK    9  A    between atoms: C_12  and  C_16
REMARK   10  A    between atoms: C_22  and  C_23
REMARK   11  A    between atoms: C_25  and  C_26
REMARK                            x       y       z     vdW  Elec       q    Type
REMARK                         _______ _______ _______ _____ _____    ______ ____
ROOT
ATOM     10  C   UNL     1      -3.364   3.136  26.398  0.00  0.00    +0.167 C 
ENDROOT
BRANCH  10   9
ATOM      1  O   UNL     1      -4.230   4.299  23.847  0.00  0.00    -0.369 OA
ATOM      4  O   UNL     1      -3.048   1.142  22.552  0.00  0.00    -0.273 OA
ATOM      6  N   UNL     1      -4.062   1.603  24.596  0.00  0.00    -0.289 N 
ATOM      9  C   UNL     1      -4.524   2.632  25.535  0.00  0.00    +0.135 C 
ATOM     11  C   UNL     1      -5.178   3.777  24.772  0.00  0.00    +0.185 C 
ATOM     13  C   UNL     1      -3.606   1.928  23.320  0.00  0.00    +0.242 C 
ATOM     15  C   UNL     1      -3.915   3.346  22.856  0.00  0.00    +0.255 C 
BRANCH   6  12
ATOM     12  C   UNL     1      -3.922   0.243  25.103  0.00  0.00    +0.136 C 
BRANCH  12  16
ATOM     16  C   UNL     1      -4.761  -0.738  24.307  0.00  0.00    +0.178 C 
BRANCH  16   3
ATOM      3  O   UNL     1      -3.933  -1.794  23.835  0.00  0.00    -0.378 OA
BRANCH   3  22
ATOM     22  C   UNL     1      -3.187  -2.383  24.891  0.00  0.00    +0.156 C 
ATOM     23  C   UNL     1      -1.724  -2.415  24.502  0.00  0.00    +0.034 C 
ENDBRANCH   3  22
ENDBRANCH  16   3
ENDBRANCH  12  16
ENDBRANCH   6  12
ENDBRANCH  10   9
BRANCH  10  14
ATOM     14  C   UNL     1      -2.030   2.895  25.740  0.00  0.00    -0.017 A 
ATOM     17  C   UNL     1      -1.384   3.934  25.071  0.00  0.00    +0.008 A 
ATOM     18  C   UNL     1      -1.441   1.632  25.798  0.00  0.00    +0.008 A 
ATOM     19  C   UNL     1      -0.149   3.711  24.462  0.00  0.00    +0.024 A 
ATOM     20  C   UNL     1      -0.206   1.408  25.190  0.00  0.00    +0.024 A 
ATOM     21  C   UNL     1       0.440   2.448  24.522  0.00  0.00    +0.035 A 
BRANCH  21   7
ATOM      5  O   UNL     1       1.631  -0.072  23.409  0.00  0.00    -0.253 OA
ATOM      7  N   UNL     1       1.676   2.225  23.913  0.00  0.00    -0.269 N 
ATOM      8  N   UNL     1       3.475   1.213  22.870  0.00  0.00    -0.299 N 
ATOM     24  C   UNL     1       2.197   1.019  23.403  0.00  0.00    +0.304 C 
ATOM     28  H   UNL     1       2.277   3.041  23.826  0.00  0.00    +0.156 HD
ATOM     29  H   UNL     1       3.875   2.147  22.890  0.00  0.00    +0.150 HD
BRANCH   8  25
ATOM     25  C   UNL     1       4.252   0.151  22.276  0.00  0.00    +0.102 C 
ATOM     26  C   UNL     1       5.398  -0.267  23.173  0.00  0.00    +0.024 C 
ENDBRANCH   8  25
ENDBRANCH  21   7
ENDBRANCH  10  14
BRANCH  10   2
ATOM      2  O   UNL     1      -3.528   4.529  26.641  0.00  0.00    -0.385 OA
ATOM     27  H   UNL     1      -2.661   4.929  26.816  0.00  0.00    +0.210 HD
ENDBRANCH  10   2
TORSDOF 9
ENDMDL
MODEL 4
REMARK VINA RESULT:       0.4      1.754      3.441
REMARK  Name = 56774933
REMARK  11 active torsions:
REMARK  status: ('A' for Active; 'I' for Inactive)
REMARK    1  A    between atoms: O_2  and  C_10
REMARK    2  A    between atoms: O_3  and  C_16
REMARK    3  A    between atoms: O_3  and  C_22
REMARK    4  A    between atoms: N_6  and  C_12
REMARK    5  A    between atoms: N_7  and  C_21
REMARK    6  A    between atoms: N_8  and  C_25
REMARK    7  A    between atoms: C_9  and  C_10
REMARK    8  A    between atoms: C_10  and  C_14
REMARK    9  A    between atoms: C_12  and  C_16
REMARK   10  A    between atoms: C_22  and  C_23
REMARK   11  A    between atoms: C_25  and  C_26
REMARK                            x       y       z     vdW  Elec       q    Type
REMARK                         _______ _______ _______ _____ _____    ______ ____
ROOT
ATOM     10  C   UNL     1      -2.347   0.469  24.952  0.00  0.00    +0.167 C 
ENDROOT
BRANCH  10   9
ATOM      1  O   UNL     1      -5.159  -0.366  25.013  0.00  0.00    -0.369 OA
ATOM      4  O   UNL     1      -5.715   3.192  25.281  0.00  0.00    -0.273 OA
ATOM      6  N   UNL     1      -4.050   2.050  24.123  0.00  0.00    -0.289 N 
ATOM      9  C   UNL     1      -3.390   0.763  23.870  0.00  0.00    +0.135 C 
ATOM     11  C   UNL     1      -4.429  -0.348  23.792  0.00  0.00    +0.185 C 
ATOM     13  C   UNL     1      -5.211   2.139  24.889  0.00  0.00    +0.242 C 
ATOM     15  C   UNL     1      -5.915   0.815  25.166  0.00  0.00    +0.255 C 
BRANCH   6  12
ATOM     12  C   UNL     1      -3.352   3.259  23.702  0.00  0.00    +0.136 C 
BRANCH  12  16
ATOM     16  C   UNL     1      -3.558   4.393  24.688  0.00  0.00    +0.178 C 
BRANCH  16   3
ATOM      3  O   UNL     1      -2.585   4.303  25.722  0.00  0.00    -0.378 OA
BRANCH   3  22
ATOM     22  C   UNL     1      -1.264   4.349  25.201  0.00  0.00    +0.156 C 
ATOM     23  C   UNL     1      -0.952   5.766  24.770  0.00  0.00    +0.034 C 
ENDBRANCH   3  22
ENDBRANCH  16   3
ENDBRANCH  12  16
ENDBRANCH   6  12
ENDBRANCH  10   9
BRANCH  10  14
ATOM     14  C   UNL     1      -0.942   0.531  24.409  0.00  0.00    -0.017 A 
ATOM     17  C   UNL     1      -0.424  -0.546  23.690  0.00  0.00    +0.008 A 
ATOM     18  C   UNL     1      -0.160   1.665  24.627  0.00  0.00    +0.008 A 
ATOM     19  C   UNL     1       0.875  -0.489  23.187  0.00  0.00    +0.024 A 
ATOM     20  C   UNL     1       1.140   1.722  24.124  0.00  0.00    +0.024 A 
ATOM     21  C   UNL     1       1.658   0.646  23.405  0.00  0.00    +0.035 A 
BRANCH  21   7
ATOM      5  O   UNL     1       3.983  -1.206  23.815  0.00  0.00    -0.253 OA
ATOM      7  N   UNL     1       2.958   0.703  22.902  0.00  0.00    -0.269 N 
ATOM      8  N   UNL     1       5.171   0.218  22.436  0.00  0.00    -0.299 N 
ATOM     24  C   UNL     1       4.023  -0.193  23.122  0.00  0.00    +0.304 C 
ATOM     28  H   UNL     1       3.161   1.495  22.297  0.00  0.00    +0.156 HD
ATOM     29  H   UNL     1       5.126   1.062  21.873  0.00  0.00    +0.150 HD
BRANCH   8  25
ATOM     25  C   UNL     1       6.418  -0.509  22.478  0.00  0.00    +0.102 C 
ATOM     26  C   UNL     1       7.260  -0.099  23.668  0.00  0.00    +0.024 C 
ENDBRANCH   8  25
ENDBRANCH  21   7
ENDBRANCH  10  14
BRANCH  10   2
ATOM      2  O   UNL     1      -2.488   1.411  26.011  0.00  0.00    -0.385 OA
ATOM     27  H   UNL     1      -1.791   2.082  25.939  0.00  0.00    +0.210 HD
ENDBRANCH  10   2
TORSDOF 9
ENDMDL
