MODEL 1
REMARK VINA RESULT:      -6.3      0.000      0.000
REMARK  Name = 71693765
REMARK  5 active torsions:
REMARK  status: ('A' for Active; 'I' for Inactive)
REMARK    1  A    between atoms: O_1  and  C_8
REMARK    2  A    between atoms: O_2  and  C_10
REMARK    3  A    between atoms: N_4  and  C_6
REMARK    4  A    between atoms: C_7  and  C_15
REMARK    5  A    between atoms: C_11  and  C_14
REMARK                            x       y       z     vdW  Elec       q    Type
REMARK                         _______ _______ _______ _____ _____    ______ ____
ROOT
ATOM      6  C   UNL     1      -1.636   1.390  24.648  0.00  0.00    +0.111 C 
ATOM      7  C   UNL     1      -2.598   2.313  23.867  0.00  0.00    +0.046 C 
ATOM      8  C   UNL     1      -0.252   1.926  24.279  0.00  0.00    +0.164 C 
ATOM      9  C   UNL     1      -1.809   3.621  23.602  0.00  0.00    +0.044 C 
ATOM     10  C   UNL     1      -0.454   3.436  24.283  0.00  0.00    +0.145 C 
ENDROOT
BRANCH   7  15
ATOM      5  N   UNL     1      -5.382   3.956  25.853  0.00  0.00    -0.263 NA
ATOM     15  C   UNL     1      -3.925   2.516  24.569  0.00  0.00    -0.024 A 
ATOM     16  C   UNL     1      -4.884   1.510  24.593  0.00  0.00    +0.007 A 
ATOM     17  C   UNL     1      -4.220   3.710  25.208  0.00  0.00    +0.114 A 
ATOM     18  C   UNL     1      -6.092   1.726  25.246  0.00  0.00    +0.020 A 
ATOM     19  C   UNL     1      -6.291   2.955  25.855  0.00  0.00    +0.111 A 
ENDBRANCH   7  15
BRANCH   6   4
ATOM      3  O   UNL     1      -2.805  -0.748  26.234  0.00  0.00    -0.276 OA
ATOM      4  N   UNL     1      -1.794   0.007  24.277  0.00  0.00    -0.309 N 
ATOM     14  C   UNL     1      -2.366  -0.942  25.107  0.00  0.00    +0.216 C 
ATOM     20  H   UNL     1      -1.497  -0.273  23.346  0.00  0.00    +0.149 HD
BRANCH  14  11
ATOM     11  C   UNL     1      -2.429  -2.311  24.518  0.00  0.00    +0.075 C 
ATOM     12  C   UNL     1      -3.682  -2.729  23.821  0.00  0.00    +0.013 C 
ATOM     13  C   UNL     1      -3.329  -3.319  25.152  0.00  0.00    +0.013 C 
ENDBRANCH  14  11
ENDBRANCH   6   4
BRANCH   8   1
ATOM      1  O   UNL     1       0.738   1.540  25.213  0.00  0.00    -0.387 OA
ATOM     21  H   UNL     1       0.853   0.577  25.135  0.00  0.00    +0.210 HD
ENDBRANCH   8   1
BRANCH  10   2
ATOM      2  O   UNL     1      -0.541   3.936  25.615  0.00  0.00    -0.389 OA
ATOM     22  H   UNL     1      -1.205   3.403  26.083  0.00  0.00    +0.210 HD
ENDBRANCH  10   2
TORSDOF 5
ENDMDL
MODEL 2
REMARK VINA RESULT:      -5.7      1.260      1.893
REMARK  Name = 71693765
REMARK  5 active torsions:
REMARK  status: ('A' for Active; 'I' for Inactive)
REMARK    1  A    between atoms: O_1  and  C_8
REMARK    2  A    between atoms: O_2  and  C_10
REMARK    3  A    between atoms: N_4  and  C_6
REMARK    4  A    between atoms: C_7  and  C_15
REMARK    5  A    between atoms: C_11  and  C_14
REMARK                            x       y       z     vdW  Elec       q    Type
REMARK                         _______ _______ _______ _____ _____    ______ ____
ROOT
ATOM      6  C   UNL     1      -1.595   0.298  24.621  0.00  0.00    +0.111 C 
ATOM      7  C   UNL     1      -2.028   1.568  23.856  0.00  0.00    +0.046 C 
ATOM      8  C   UNL     1      -0.174   0.046  24.115  0.00  0.00    +0.164 C 
ATOM      9  C   UNL     1      -0.715   2.286  23.448  0.00  0.00    +0.044 C 
ATOM     10  C   UNL     1       0.418   1.447  24.037  0.00  0.00    +0.145 C 
ENDROOT
BRANCH   7  15
ATOM      5  N   UNL     1      -5.276   2.972  25.226  0.00  0.00    -0.263 NA
ATOM     15  C   UNL     1      -2.993   2.432  24.642  0.00  0.00    -0.024 A 
ATOM     16  C   UNL     1      -2.532   3.446  25.474  0.00  0.00    +0.007 A 
ATOM     17  C   UNL     1      -4.362   2.237  24.554  0.00  0.00    +0.114 A 
ATOM     18  C   UNL     1      -3.441   4.223  26.183  0.00  0.00    +0.020 A 
ATOM     19  C   UNL     1      -4.790   3.948  26.025  0.00  0.00    +0.111 A 
ENDBRANCH   7  15
BRANCH   6   4
ATOM      3  O   UNL     1      -3.263  -1.144  26.517  0.00  0.00    -0.276 OA
ATOM      4  N   UNL     1      -2.467  -0.817  24.353  0.00  0.00    -0.309 N 
ATOM     14  C   UNL     1      -3.225  -1.441  25.329  0.00  0.00    +0.216 C 
ATOM     20  H   UNL     1      -2.548  -1.138  23.392  0.00  0.00    +0.149 HD
BRANCH  14  11
ATOM     11  C   UNL     1      -4.057  -2.573  24.827  0.00  0.00    +0.075 C 
ATOM     12  C   UNL     1      -3.501  -3.440  23.746  0.00  0.00    +0.013 C 
ATOM     13  C   UNL     1      -4.619  -2.488  23.447  0.00  0.00    +0.013 C 
ENDBRANCH  14  11
ENDBRANCH   6   4
BRANCH   8   1
ATOM      1  O   UNL     1       0.570  -0.775  24.995  0.00  0.00    -0.387 OA
ATOM     21  H   UNL     1      -0.064  -1.248  25.559  0.00  0.00    +0.210 HD
ENDBRANCH   8   1
BRANCH  10   2
ATOM      2  O   UNL     1       0.727   1.945  25.336  0.00  0.00    -0.389 OA
ATOM     22  H   UNL     1       0.791   2.912  25.270  0.00  0.00    +0.210 HD
ENDBRANCH  10   2
TORSDOF 5
ENDMDL
MODEL 3
REMARK VINA RESULT:      -5.3      2.188      4.083
REMARK  Name = 71693765
REMARK  5 active torsions:
REMARK  status: ('A' for Active; 'I' for Inactive)
REMARK    1  A    between atoms: O_1  and  C_8
REMARK    2  A    between atoms: O_2  and  C_10
REMARK    3  A    between atoms: N_4  and  C_6
REMARK    4  A    between atoms: C_7  and  C_15
REMARK    5  A    between atoms: C_11  and  C_14
REMARK                            x       y       z     vdW  Elec       q    Type
REMARK                         _______ _______ _______ _____ _____    ______ ____
ROOT
ATOM      6  C   UNL     1      -1.321   1.940  24.256  0.00  0.00    +0.111 C 
ATOM      7  C   UNL     1      -2.669   1.443  23.685  0.00  0.00    +0.046 C 
ATOM      8  C   UNL     1      -1.486   3.459  24.282  0.00  0.00    +0.164 C 
ATOM      9  C   UNL     1      -3.693   2.570  23.973  0.00  0.00    +0.044 C 
ATOM     10  C   UNL     1      -2.926   3.643  24.745  0.00  0.00    +0.145 C 
ENDROOT
BRANCH   7  15
ATOM      5  N   UNL     1      -3.122  -1.481  26.061  0.00  0.00    -0.263 NA
ATOM     15  C   UNL     1      -3.072   0.083  24.218  0.00  0.00    -0.024 A 
ATOM     16  C   UNL     1      -3.735  -0.835  23.410  0.00  0.00    +0.007 A 
ATOM     17  C   UNL     1      -2.791  -0.285  25.524  0.00  0.00    +0.114 A 
ATOM     18  C   UNL     1      -4.092  -2.075  23.927  0.00  0.00    +0.020 A 
ATOM     19  C   UNL     1      -3.766  -2.347  25.246  0.00  0.00    +0.111 A 
ENDBRANCH   7  15
BRANCH   6   4
ATOM      3  O   UNL     1       0.126  -0.581  24.359  0.00  0.00    -0.276 OA
ATOM      4  N   UNL     1      -0.206   1.533  23.439  0.00  0.00    -0.309 N 
ATOM     14  C   UNL     1       0.420   0.305  23.565  0.00  0.00    +0.216 C 
ATOM     20  H   UNL     1       0.112   2.172  22.715  0.00  0.00    +0.149 HD
BRANCH  14  11
ATOM     11  C   UNL     1       1.552   0.096  22.615  0.00  0.00    +0.075 C 
ATOM     12  C   UNL     1       2.785  -0.581  23.116  0.00  0.00    +0.013 C 
ATOM     13  C   UNL     1       2.803   0.886  22.812  0.00  0.00    +0.013 C 
ENDBRANCH  14  11
ENDBRANCH   6   4
BRANCH   8   1
ATOM      1  O   UNL     1      -0.579   4.081  25.173  0.00  0.00    -0.387 OA
ATOM     21  H   UNL     1      -1.082   4.349  25.961  0.00  0.00    +0.210 HD
ENDBRANCH   8   1
BRANCH  10   2
ATOM      2  O   UNL     1      -3.052   3.379  26.140  0.00  0.00    -0.389 OA
ATOM     22  H   UNL     1      -2.900   4.216  26.610  0.00  0.00    +0.210 HD
ENDBRANCH  10   2
TORSDOF 5
ENDMDL
MODEL 4
REMARK VINA RESULT:      -5.1      2.154      4.489
REMARK  Name = 71693765
REMARK  5 active torsions:
REMARK  status: ('A' for Active; 'I' for Inactive)
REMARK    1  A    between atoms: O_1  and  C_8
REMARK    2  A    between atoms: O_2  and  C_10
REMARK    3  A    between atoms: N_4  and  C_6
REMARK    4  A    between atoms: C_7  and  C_15
REMARK    5  A    between atoms: C_11  and  C_14
REMARK                            x       y       z     vdW  Elec       q    Type
REMARK                         _______ _______ _______ _____ _____    ______ ____
ROOT
ATOM      6  C   UNL     1      -2.091   1.850  24.478  0.00  0.00    +0.111 C 
ATOM      7  C   UNL     1      -0.754   1.488  25.163  0.00  0.00    +0.046 C 
ATOM      8  C   UNL     1      -2.640   2.981  25.348  0.00  0.00    +0.164 C 
ATOM      9  C   UNL     1      -0.333   2.747  25.965  0.00  0.00    +0.044 C 
ATOM     10  C   UNL     1      -1.398   3.803  25.671  0.00  0.00    +0.145 C 
ENDROOT
BRANCH   7  15
ATOM      5  N   UNL     1       2.463   1.282  23.161  0.00  0.00    -0.263 NA
ATOM     15  C   UNL     1       0.294   0.990  24.189  0.00  0.00    -0.024 A 
ATOM     16  C   UNL     1       0.089  -0.167  23.445  0.00  0.00    +0.007 A 
ATOM     17  C   UNL     1       1.488   1.671  24.013  0.00  0.00    +0.114 A 
ATOM     18  C   UNL     1       1.068  -0.599  22.559  0.00  0.00    +0.020 A 
ATOM     19  C   UNL     1       2.227   0.154  22.454  0.00  0.00    +0.111 A 
ENDBRANCH   7  15
BRANCH   6   4
ATOM      3  O   UNL     1      -2.083  -0.511  26.177  0.00  0.00    -0.276 OA
ATOM      4  N   UNL     1      -2.991   0.727  24.425  0.00  0.00    -0.309 N 
ATOM     14  C   UNL     1      -2.906  -0.358  25.281  0.00  0.00    +0.216 C 
ATOM     20  H   UNL     1      -3.744   0.751  23.742  0.00  0.00    +0.149 HD
BRANCH  14  11
ATOM     11  C   UNL     1      -3.941  -1.406  25.047  0.00  0.00    +0.075 C 
ATOM     12  C   UNL     1      -3.493  -2.771  24.643  0.00  0.00    +0.013 C 
ATOM     13  C   UNL     1      -4.174  -1.878  23.650  0.00  0.00    +0.013 C 
ENDBRANCH  14  11
ENDBRANCH   6   4
BRANCH   8   1
ATOM      1  O   UNL     1      -3.605   3.760  24.667  0.00  0.00    -0.387 OA
ATOM     21  H   UNL     1      -3.808   3.307  23.830  0.00  0.00    +0.210 HD
ENDBRANCH   8   1
BRANCH  10   2
ATOM      2  O   UNL     1      -0.983   4.567  24.542  0.00  0.00    -0.389 OA
ATOM     22  H   UNL     1      -0.359   5.241  24.860  0.00  0.00    +0.210 HD
ENDBRANCH  10   2
TORSDOF 5
ENDMDL
MODEL 5
REMARK VINA RESULT:      -5.1      2.302      4.210
REMARK  Name = 71693765
REMARK  5 active torsions:
REMARK  status: ('A' for Active; 'I' for Inactive)
REMARK    1  A    between atoms: O_1  and  C_8
REMARK    2  A    between atoms: O_2  and  C_10
REMARK    3  A    between atoms: N_4  and  C_6
REMARK    4  A    between atoms: C_7  and  C_15
REMARK    5  A    between atoms: C_11  and  C_14
REMARK                            x       y       z     vdW  Elec       q    Type
REMARK                         _______ _______ _______ _____ _____    ______ ____
ROOT
ATOM      6  C   UNL     1      -4.474   1.879  24.575  0.00  0.00    +0.111 C 
ATOM      7  C   UNL     1      -3.510   2.341  25.690  0.00  0.00    +0.046 C 
ATOM      8  C   UNL     1      -5.828   1.811  25.281  0.00  0.00    +0.164 C 
ATOM      9  C   UNL     1      -4.392   3.061  26.742  0.00  0.00    +0.044 C 
ATOM     10  C   UNL     1      -5.812   3.044  26.177  0.00  0.00    +0.145 C 
ENDROOT
BRANCH   7  15
ATOM      5  N   UNL     1      -0.301   3.291  23.901  0.00  0.00    -0.263 NA
ATOM     15  C   UNL     1      -2.357   3.174  25.168  0.00  0.00    -0.024 A 
ATOM     16  C   UNL     1      -2.270   4.533  25.448  0.00  0.00    +0.007 A 
ATOM     17  C   UNL     1      -1.356   2.606  24.396  0.00  0.00    +0.114 A 
ATOM     18  C   UNL     1      -1.200   5.272  24.956  0.00  0.00    +0.020 A 
ATOM     19  C   UNL     1      -0.251   4.610  24.194  0.00  0.00    +0.111 A 
ENDBRANCH   7  15
BRANCH   6   4
ATOM      3  O   UNL     1      -3.950  -0.591  26.018  0.00  0.00    -0.276 OA
ATOM      4  N   UNL     1      -4.091   0.604  24.024  0.00  0.00    -0.309 N 
ATOM     14  C   UNL     1      -3.861  -0.521  24.798  0.00  0.00    +0.216 C 
ATOM     20  H   UNL     1      -4.016   0.525  23.013  0.00  0.00    +0.149 HD
BRANCH  14  11
ATOM     11  C   UNL     1      -3.475  -1.733  24.018  0.00  0.00    +0.075 C 
ATOM     12  C   UNL     1      -3.526  -3.062  24.696  0.00  0.00    +0.013 C 
ATOM     13  C   UNL     1      -2.206  -2.433  24.371  0.00  0.00    +0.013 C 
ENDBRANCH  14  11
ENDBRANCH   6   4
BRANCH   8   1
ATOM      1  O   UNL     1      -6.910   1.855  24.371  0.00  0.00    -0.387 OA
ATOM     21  H   UNL     1      -7.041   0.954  24.030  0.00  0.00    +0.210 HD
ENDBRANCH   8   1
BRANCH  10   2
ATOM      2  O   UNL     1      -6.014   4.232  25.416  0.00  0.00    -0.389 OA
ATOM     22  H   UNL     1      -5.139   4.563  25.154  0.00  0.00    +0.210 HD
ENDBRANCH  10   2
TORSDOF 5
ENDMDL
MODEL 6
REMARK VINA RESULT:      -5.0      2.440      4.547
REMARK  Name = 71693765
REMARK  5 active torsions:
REMARK  status: ('A' for Active; 'I' for Inactive)
REMARK    1  A    between atoms: O_1  and  C_8
REMARK    2  A    between atoms: O_2  and  C_10
REMARK    3  A    between atoms: N_4  and  C_6
REMARK    4  A    between atoms: C_7  and  C_15
REMARK    5  A    between atoms: C_11  and  C_14
REMARK                            x       y       z     vdW  Elec       q    Type
REMARK                         _______ _______ _______ _____ _____    ______ ____
ROOT
ATOM      6  C   UNL     1      -1.376  -0.593  24.338  0.00  0.00    +0.111 C 
ATOM      7  C   UNL     1      -2.183   0.063  25.482  0.00  0.00    +0.046 C 
ATOM      8  C   UNL     1      -1.507  -2.088  24.624  0.00  0.00    +0.164 C 
ATOM      9  C   UNL     1      -3.178  -1.020  25.973  0.00  0.00    +0.044 C 
ATOM     10  C   UNL     1      -2.958  -2.231  25.067  0.00  0.00    +0.145 C 
ENDROOT
BRANCH   7  15
ATOM      5  N   UNL     1      -2.636   3.754  24.726  0.00  0.00    -0.263 NA
ATOM     15  C   UNL     1      -2.833   1.369  25.075  0.00  0.00    -0.024 A 
ATOM     16  C   UNL     1      -4.168   1.415  24.687  0.00  0.00    +0.007 A 
ATOM     17  C   UNL     1      -2.117   2.555  25.077  0.00  0.00    +0.114 A 
ATOM     18  C   UNL     1      -4.737   2.628  24.319  0.00  0.00    +0.020 A 
ATOM     19  C   UNL     1      -3.937   3.758  24.356  0.00  0.00    +0.111 A 
ENDBRANCH   7  15
BRANCH   6   4
ATOM      3  O   UNL     1       0.422  -0.430  22.059  0.00  0.00    -0.276 OA
ATOM      4  N   UNL     1      -0.001  -0.164  24.333  0.00  0.00    -0.309 N 
ATOM     14  C   UNL     1       0.778  -0.121  23.190  0.00  0.00    +0.216 C 
ATOM     20  H   UNL     1       0.403   0.152  25.212  0.00  0.00    +0.149 HD
BRANCH  14  11
ATOM     11  C   UNL     1       2.174   0.356  23.417  0.00  0.00    +0.075 C 
ATOM     12  C   UNL     1       3.092   0.455  22.244  0.00  0.00    +0.013 C 
ATOM     13  C   UNL     1       3.294  -0.620  23.268  0.00  0.00    +0.013 C 
ENDBRANCH  14  11
ENDBRANCH   6   4
BRANCH   8   1
ATOM      1  O   UNL     1      -1.242  -2.877  23.480  0.00  0.00    -0.387 OA
ATOM     21  H   UNL     1      -1.423  -3.803  23.715  0.00  0.00    +0.210 HD
ENDBRANCH   8   1
BRANCH  10   2
ATOM      2  O   UNL     1      -3.843  -2.136  23.955  0.00  0.00    -0.389 OA
ATOM     22  H   UNL     1      -4.084  -3.041  23.696  0.00  0.00    +0.210 HD
ENDBRANCH  10   2
TORSDOF 5
ENDMDL
MODEL 7
REMARK VINA RESULT:      -5.0      1.575      4.624
REMARK  Name = 71693765
REMARK  5 active torsions:
REMARK  status: ('A' for Active; 'I' for Inactive)
REMARK    1  A    between atoms: O_1  and  C_8
REMARK    2  A    between atoms: O_2  and  C_10
REMARK    3  A    between atoms: N_4  and  C_6
REMARK    4  A    between atoms: C_7  and  C_15
REMARK    5  A    between atoms: C_11  and  C_14
REMARK                            x       y       z     vdW  Elec       q    Type
REMARK                         _______ _______ _______ _____ _____    ______ ____
ROOT
ATOM      6  C   UNL     1      -1.900   2.090  24.913  0.00  0.00    +0.111 C 
ATOM      7  C   UNL     1      -1.555   0.977  25.927  0.00  0.00    +0.046 C 
ATOM      8  C   UNL     1      -0.886   3.188  25.232  0.00  0.00    +0.164 C 
ATOM      9  C   UNL     1      -0.077   1.215  26.331  0.00  0.00    +0.044 C 
ATOM     10  C   UNL     1       0.395   2.408  25.500  0.00  0.00    +0.145 C 
ENDROOT
BRANCH   7  15
ATOM      5  N   UNL     1      -1.129  -2.307  24.073  0.00  0.00    -0.263 NA
ATOM     15  C   UNL     1      -1.841  -0.414  25.399  0.00  0.00    -0.024 A 
ATOM     16  C   UNL     1      -3.020  -1.076  25.725  0.00  0.00    +0.007 A 
ATOM     17  C   UNL     1      -0.936  -1.067  24.578  0.00  0.00    +0.114 A 
ATOM     18  C   UNL     1      -3.255  -2.352  25.225  0.00  0.00    +0.020 A 
ATOM     19  C   UNL     1      -2.287  -2.918  24.411  0.00  0.00    +0.111 A 
ENDBRANCH   7  15
BRANCH   6   4
ATOM      3  O   UNL     1      -4.284   1.023  23.634  0.00  0.00    -0.276 OA
ATOM      4  N   UNL     1      -3.257   2.552  25.059  0.00  0.00    -0.309 N 
ATOM     14  C   UNL     1      -4.331   1.975  24.404  0.00  0.00    +0.216 C 
ATOM     20  H   UNL     1      -3.432   3.320  25.702  0.00  0.00    +0.149 HD
BRANCH  14  11
ATOM     11  C   UNL     1      -5.646   2.614  24.704  0.00  0.00    +0.075 C 
ATOM     12  C   UNL     1      -5.671   3.799  25.611  0.00  0.00    +0.013 C 
ATOM     13  C   UNL     1      -6.205   2.481  26.082  0.00  0.00    +0.013 C 
ENDBRANCH  14  11
ENDBRANCH   6   4
BRANCH   8   1
ATOM      1  O   UNL     1      -0.718   4.091  24.156  0.00  0.00    -0.387 OA
ATOM     21  H   UNL     1      -0.036   4.733  24.417  0.00  0.00    +0.210 HD
ENDBRANCH   8   1
BRANCH  10   2
ATOM      2  O   UNL     1       0.963   1.923  24.287  0.00  0.00    -0.389 OA
ATOM     22  H   UNL     1       1.422   1.091  24.492  0.00  0.00    +0.210 HD
ENDBRANCH  10   2
TORSDOF 5
ENDMDL
MODEL 8
REMARK VINA RESULT:      -4.8      1.947      4.803
REMARK  Name = 71693765
REMARK  5 active torsions:
REMARK  status: ('A' for Active; 'I' for Inactive)
REMARK    1  A    between atoms: O_1  and  C_8
REMARK    2  A    between atoms: O_2  and  C_10
REMARK    3  A    between atoms: N_4  and  C_6
REMARK    4  A    between atoms: C_7  and  C_15
REMARK    5  A    between atoms: C_11  and  C_14
REMARK                            x       y       z     vdW  Elec       q    Type
REMARK                         _______ _______ _______ _____ _____    ______ ____
ROOT
ATOM      6  C   UNL     1      -1.745   1.509  24.332  0.00  0.00    +0.111 C 
ATOM      7  C   UNL     1      -1.599   0.226  25.180  0.00  0.00    +0.046 C 
ATOM      8  C   UNL     1      -0.355   2.142  24.403  0.00  0.00    +0.164 C 
ATOM      9  C   UNL     1      -0.086  -0.111  25.182  0.00  0.00    +0.044 C 
ATOM     10  C   UNL     1       0.577   0.941  24.294  0.00  0.00    +0.145 C 
ENDROOT
BRANCH   7  15
ATOM      5  N   UNL     1      -2.785  -3.268  24.294  0.00  0.00    -0.263 NA
ATOM     15  C   UNL     1      -2.489  -0.903  24.704  0.00  0.00    -0.024 A 
ATOM     16  C   UNL     1      -3.781  -0.655  24.251  0.00  0.00    +0.007 A 
ATOM     17  C   UNL     1      -2.043  -2.215  24.706  0.00  0.00    +0.114 A 
ATOM     18  C   UNL     1      -4.574  -1.712  23.820  0.00  0.00    +0.020 A 
ATOM     19  C   UNL     1      -4.035  -2.988  23.861  0.00  0.00    +0.111 A 
ENDBRANCH   7  15
BRANCH   6   4
ATOM      3  O   UNL     1      -3.789   2.935  22.833  0.00  0.00    -0.276 OA
ATOM      4  N   UNL     1      -2.763   2.387  24.851  0.00  0.00    -0.309 N 
ATOM     14  C   UNL     1      -3.697   3.024  24.052  0.00  0.00    +0.216 C 
ATOM     20  H   UNL     1      -2.812   2.516  25.858  0.00  0.00    +0.149 HD
BRANCH  14  11
ATOM     11  C   UNL     1      -4.657   3.885  24.802  0.00  0.00    +0.075 C 
ATOM     12  C   UNL     1      -4.525   3.974  26.286  0.00  0.00    +0.013 C 
ATOM     13  C   UNL     1      -5.672   3.227  25.677  0.00  0.00    +0.013 C 
ENDBRANCH  14  11
ENDBRANCH   6   4
BRANCH   8   1
ATOM      1  O   UNL     1      -0.130   3.060  23.351  0.00  0.00    -0.387 OA
ATOM     21  H   UNL     1       0.265   3.859  23.740  0.00  0.00    +0.210 HD
ENDBRANCH   8   1
BRANCH  10   2
ATOM      2  O   UNL     1       0.622   0.448  22.958  0.00  0.00    -0.389 OA
ATOM     22  H   UNL     1       0.696  -0.519  23.007  0.00  0.00    +0.210 HD
ENDBRANCH  10   2
TORSDOF 5
ENDMDL
MODEL 9
REMARK VINA RESULT:      -4.7      1.945      4.731
REMARK  Name = 71693765
REMARK  5 active torsions:
REMARK  status: ('A' for Active; 'I' for Inactive)
REMARK    1  A    between atoms: O_1  and  C_8
REMARK    2  A    between atoms: O_2  and  C_10
REMARK    3  A    between atoms: N_4  and  C_6
REMARK    4  A    between atoms: C_7  and  C_15
REMARK    5  A    between atoms: C_11  and  C_14
REMARK                            x       y       z     vdW  Elec       q    Type
REMARK                         _______ _______ _______ _____ _____    ______ ____
ROOT
ATOM      6  C   UNL     1      -1.700   1.448  24.313  0.00  0.00    +0.111 C 
ATOM      7  C   UNL     1      -1.605   0.157  25.157  0.00  0.00    +0.046 C 
ATOM      8  C   UNL     1      -0.279   2.009  24.362  0.00  0.00    +0.164 C 
ATOM      9  C   UNL     1      -0.111  -0.257  25.133  0.00  0.00    +0.044 C 
ATOM     10  C   UNL     1       0.589   0.763  24.236  0.00  0.00    +0.145 C 
ENDROOT
BRANCH   7  15
ATOM      5  N   UNL     1      -4.709  -1.521  23.760  0.00  0.00    -0.263 NA
ATOM     15  C   UNL     1      -2.560  -0.925  24.694  0.00  0.00    -0.024 A 
ATOM     16  C   UNL     1      -2.208  -2.268  24.762  0.00  0.00    +0.007 A 
ATOM     17  C   UNL     1      -3.810  -0.607  24.189  0.00  0.00    +0.114 A 
ATOM     18  C   UNL     1      -3.104  -3.239  24.330  0.00  0.00    +0.020 A 
ATOM     19  C   UNL     1      -4.331  -2.817  23.842  0.00  0.00    +0.111 A 
ENDBRANCH   7  15
BRANCH   6   4
ATOM      3  O   UNL     1      -3.742   2.923  22.861  0.00  0.00    -0.276 OA
ATOM      4  N   UNL     1      -2.663   2.374  24.851  0.00  0.00    -0.309 N 
ATOM     14  C   UNL     1      -3.601   3.032  24.073  0.00  0.00    +0.216 C 
ATOM     20  H   UNL     1      -2.669   2.525  25.856  0.00  0.00    +0.149 HD
BRANCH  14  11
ATOM     11  C   UNL     1      -4.499   3.945  24.839  0.00  0.00    +0.075 C 
ATOM     12  C   UNL     1      -4.393   3.963  26.328  0.00  0.00    +0.013 C 
ATOM     13  C   UNL     1      -5.587   3.345  25.667  0.00  0.00    +0.013 C 
ENDBRANCH  14  11
ENDBRANCH   6   4
BRANCH   8   1
ATOM      1  O   UNL     1      -0.025   2.917  23.308  0.00  0.00    -0.387 OA
ATOM     21  H   UNL     1      -0.883   3.256  23.001  0.00  0.00    +0.210 HD
ENDBRANCH   8   1
BRANCH  10   2
ATOM      2  O   UNL     1       0.587   0.271  22.899  0.00  0.00    -0.389 OA
ATOM     22  H   UNL     1       0.611   1.041  22.306  0.00  0.00    +0.210 HD
ENDBRANCH  10   2
TORSDOF 5
ENDMDL
MODEL 10
REMARK VINA RESULT:      -4.4     15.973     18.759
REMARK  Name = 71693765
REMARK  5 active torsions:
REMARK  status: ('A' for Active; 'I' for Inactive)
REMARK    1  A    between atoms: O_1  and  C_8
REMARK    2  A    between atoms: O_2  and  C_10
REMARK    3  A    between atoms: N_4  and  C_6
REMARK    4  A    between atoms: C_7  and  C_15
REMARK    5  A    between atoms: C_11  and  C_14
REMARK                            x       y       z     vdW  Elec       q    Type
REMARK                         _______ _______ _______ _____ _____    ______ ____
ROOT
ATOM      6  C   UNL     1      14.162   8.253  20.655  0.00  0.00    +0.111 C 
ATOM      7  C   UNL     1      13.992   7.247  19.494  0.00  0.00    +0.046 C 
ATOM      8  C   UNL     1      15.253   7.618  21.517  0.00  0.00    +0.164 C 
ATOM      9  C   UNL     1      15.324   6.457  19.419  0.00  0.00    +0.044 C 
ATOM     10  C   UNL     1      16.231   7.067  20.487  0.00  0.00    +0.145 C 
ENDROOT
BRANCH   7  15
ATOM      5  N   UNL     1      11.818   8.683  16.735  0.00  0.00    -0.263 NA
ATOM     15  C   UNL     1      13.584   7.907  18.193  0.00  0.00    -0.024 A 
ATOM     16  C   UNL     1      14.539   8.338  17.278  0.00  0.00    +0.007 A 
ATOM     17  C   UNL     1      12.249   8.102  17.877  0.00  0.00    +0.114 A 
ATOM     18  C   UNL     1      14.135   8.940  16.092  0.00  0.00    +0.020 A 
ATOM     19  C   UNL     1      12.775   9.088  15.870  0.00  0.00    +0.111 A 
ENDBRANCH   7  15
BRANCH   6   4
ATOM      3  O   UNL     1      12.120   6.266  21.235  0.00  0.00    -0.276 OA
ATOM      4  N   UNL     1      12.937   8.441  21.389  0.00  0.00    -0.309 N 
ATOM     14  C   UNL     1      12.022   7.427  21.614  0.00  0.00    +0.216 C 
ATOM     20  H   UNL     1      12.756   9.360  21.786  0.00  0.00    +0.149 HD
BRANCH  14  11
ATOM     11  C   UNL     1      10.825   7.847  22.399  0.00  0.00    +0.075 C 
ATOM     12  C   UNL     1      10.110   9.094  21.996  0.00  0.00    +0.013 C 
ATOM     13  C   UNL     1      10.924   9.067  23.254  0.00  0.00    +0.013 C 
ENDBRANCH  14  11
ENDBRANCH   6   4
BRANCH   8   1
ATOM      1  O   UNL     1      15.882   8.561  22.365  0.00  0.00    -0.387 OA
ATOM     21  H   UNL     1      15.365   9.383  22.321  0.00  0.00    +0.210 HD
ENDBRANCH   8   1
BRANCH  10   2
ATOM      2  O   UNL     1      16.994   8.114  19.893  0.00  0.00    -0.389 OA
ATOM     22  H   UNL     1      17.862   8.126  20.330  0.00  0.00    +0.210 HD
ENDBRANCH  10   2
TORSDOF 5
ENDMDL
