MODEL 1
REMARK VINA RESULT:       0.7      0.000      0.000
REMARK  Name = 25313130
REMARK  8 active torsions:
REMARK  status: ('A' for Active; 'I' for Inactive)
REMARK    1  A    between atoms: O_3  and  C_21
REMARK    2  A    between atoms: N_6  and  C_14
REMARK    3  A    between atoms: N_7  and  C_23
REMARK    4  A    between atoms: C_8  and  C_12
REMARK    5  A    between atoms: C_9  and  C_15
REMARK    6  A    between atoms: C_12  and  C_14
REMARK    7  A    between atoms: C_15  and  C_21
REMARK    8  A    between atoms: C_20  and  C_22
REMARK                            x       y       z     vdW  Elec       q    Type
REMARK                         _______ _______ _______ _____ _____    ______ ____
ROOT
ATOM      2  O   UNL     1      -5.596   0.728  26.840  0.00  0.00    -0.270 OA
ATOM      5  N   UNL     1      -5.000   1.915  24.915  0.00  0.00    -0.297 N 
ATOM      8  C   UNL     1      -3.267   3.033  23.529  0.00  0.00    +0.011 C 
ATOM      9  C   UNL     1      -3.815   4.399  24.015  0.00  0.00    +0.006 C 
ATOM     10  C   UNL     1      -4.381   1.972  23.583  0.00  0.00    +0.112 C 
ATOM     11  C   UNL     1      -4.494   4.279  25.390  0.00  0.00    +0.023 C 
ATOM     13  C   UNL     1      -5.555   3.181  25.388  0.00  0.00    +0.108 C 
ATOM     20  C   UNL     1      -5.084   0.779  25.724  0.00  0.00    +0.247 C 
ENDROOT
BRANCH  20  22
ATOM      1  F   UNL     1      -2.917  -4.003  23.786  0.00  0.00    -0.205 F 
ATOM     22  C   UNL     1      -4.515  -0.474  25.215  0.00  0.00    +0.037 A 
ATOM     24  C   UNL     1      -3.601  -1.190  25.990  0.00  0.00    +0.016 A 
ATOM     25  C   UNL     1      -4.888  -0.949  23.958  0.00  0.00    +0.016 A 
ATOM     28  C   UNL     1      -3.062  -2.382  25.507  0.00  0.00    +0.039 A 
ATOM     29  C   UNL     1      -4.347  -2.141  23.476  0.00  0.00    +0.039 A 
ATOM     32  C   UNL     1      -3.434  -2.857  24.250  0.00  0.00    +0.123 A 
ENDBRANCH  20  22
BRANCH   8  12
ATOM     12  C   UNL     1      -2.032   2.550  24.299  0.00  0.00    +0.020 C 
BRANCH  12  14
ATOM     14  C   UNL     1      -1.815   1.057  24.093  0.00  0.00    +0.085 C 
BRANCH  14   6
ATOM      6  N   UNL     1      -0.483   0.821  23.535  0.00  0.00    -0.299 NA
ATOM      7  N   UNL     1       2.286   0.127  23.602  0.00  0.00    -0.327 N 
ATOM     16  C   UNL     1      -0.071  -0.570  23.760  0.00  0.00    +0.103 C 
ATOM     17  C   UNL     1       0.496   1.735  24.134  0.00  0.00    +0.103 C 
ATOM     18  C   UNL     1       1.297  -0.847  23.130  0.00  0.00    +0.120 C 
ATOM     19  C   UNL     1       1.882   1.536  23.517  0.00  0.00    +0.120 C 
BRANCH   7  23
ATOM     23  C   UNL     1       3.651  -0.172  23.515  0.00  0.00    +0.030 A 
ATOM     26  C   UNL     1       4.554   0.807  23.102  0.00  0.00    +0.023 A 
ATOM     27  C   UNL     1       4.108  -1.448  23.844  0.00  0.00    +0.023 A 
ATOM     30  C   UNL     1       5.914   0.511  23.018  0.00  0.00    +0.002 A 
ATOM     31  C   UNL     1       5.468  -1.745  23.760  0.00  0.00    +0.002 A 
ATOM     33  C   UNL     1       6.372  -0.765  23.347  0.00  0.00    +0.000 A 
ENDBRANCH   7  23
ENDBRANCH  14   6
ENDBRANCH  12  14
ENDBRANCH   8  12
BRANCH   9  15
ATOM     15  C   UNL     1      -2.756   5.501  24.034  0.00  0.00    +0.124 C 
BRANCH  15  21
ATOM      4  O   UNL     1      -1.945   4.812  26.227  0.00  0.00    -0.251 OA
ATOM     21  C   UNL     1      -1.736   5.273  25.115  0.00  0.00    +0.305 C 
BRANCH  21   3
ATOM      3  O   UNL     1      -0.510   5.657  24.677  0.00  0.00    -0.481 OA
ATOM     34  H   UNL     1      -0.527   5.931  23.735  0.00  0.00    +0.295 HD
ENDBRANCH  21   3
ENDBRANCH  15  21
ENDBRANCH   9  15
TORSDOF 8
ENDMDL
MODEL 2
REMARK VINA RESULT:       1.3      2.555      4.923
REMARK  Name = 25313130
REMARK  8 active torsions:
REMARK  status: ('A' for Active; 'I' for Inactive)
REMARK    1  A    between atoms: O_3  and  C_21
REMARK    2  A    between atoms: N_6  and  C_14
REMARK    3  A    between atoms: N_7  and  C_23
REMARK    4  A    between atoms: C_8  and  C_12
REMARK    5  A    between atoms: C_9  and  C_15
REMARK    6  A    between atoms: C_12  and  C_14
REMARK    7  A    between atoms: C_15  and  C_21
REMARK    8  A    between atoms: C_20  and  C_22
REMARK                            x       y       z     vdW  Elec       q    Type
REMARK                         _______ _______ _______ _____ _____    ______ ____
ROOT
ATOM      2  O   UNL     1      -5.650   3.847  24.970  0.00  0.00    -0.270 OA
ATOM      5  N   UNL     1      -4.529   1.854  25.463  0.00  0.00    -0.297 N 
ATOM      8  C   UNL     1      -3.159  -0.082  24.722  0.00  0.00    +0.011 C 
ATOM      9  C   UNL     1      -4.434  -0.961  24.791  0.00  0.00    +0.006 C 
ATOM     10  C   UNL     1      -3.287   1.104  25.695  0.00  0.00    +0.112 C 
ATOM     11  C   UNL     1      -5.709  -0.125  24.590  0.00  0.00    +0.023 C 
ATOM     13  C   UNL     1      -5.752   1.058  25.553  0.00  0.00    +0.108 C 
ATOM     20  C   UNL     1      -4.613   3.217  25.170  0.00  0.00    +0.247 C 
ENDROOT
BRANCH  20  22
ATOM      1  F   UNL     1       0.151   6.136  24.856  0.00  0.00    -0.205 F 
ATOM     22  C   UNL     1      -3.365   3.983  25.088  0.00  0.00    +0.037 A 
ATOM     24  C   UNL     1      -2.275   3.627  25.884  0.00  0.00    +0.016 A 
ATOM     25  C   UNL     1      -3.267   5.067  24.215  0.00  0.00    +0.016 A 
ATOM     28  C   UNL     1      -1.088   4.355  25.805  0.00  0.00    +0.039 A 
ATOM     29  C   UNL     1      -2.079   5.794  24.138  0.00  0.00    +0.039 A 
ATOM     32  C   UNL     1      -0.990   5.438  24.933  0.00  0.00    +0.123 A 
ENDBRANCH  20  22
BRANCH   8  12
ATOM     12  C   UNL     1      -2.825   0.419  23.311  0.00  0.00    +0.020 C 
BRANCH  12  14
ATOM     14  C   UNL     1      -1.988   1.689  23.370  0.00  0.00    +0.085 C 
BRANCH  14   6
ATOM      6  N   UNL     1      -0.607   1.393  22.990  0.00  0.00    -0.299 NA
ATOM      7  N   UNL     1       2.043   0.397  23.366  0.00  0.00    -0.327 N 
ATOM     16  C   UNL     1      -0.357  -0.052  23.049  0.00  0.00    +0.103 C 
ATOM     17  C   UNL     1       0.332   2.097  23.872  0.00  0.00    +0.103 C 
ATOM     18  C   UNL     1       1.068  -0.383  22.598  0.00  0.00    +0.120 C 
ATOM     19  C   UNL     1       1.780   1.840  23.449  0.00  0.00    +0.120 C 
BRANCH   7  23
ATOM     23  C   UNL     1       3.373  -0.034  23.441  0.00  0.00    +0.030 A 
ATOM     26  C   UNL     1       4.409   0.849  23.139  0.00  0.00    +0.023 A 
ATOM     27  C   UNL     1       3.661  -1.344  23.819  0.00  0.00    +0.023 A 
ATOM     30  C   UNL     1       5.735   0.421  23.217  0.00  0.00    +0.002 A 
ATOM     31  C   UNL     1       4.986  -1.773  23.897  0.00  0.00    +0.002 A 
ATOM     33  C   UNL     1       6.023  -0.890  23.596  0.00  0.00    +0.000 A 
ENDBRANCH   7  23
ENDBRANCH  14   6
ENDBRANCH  12  14
ENDBRANCH   8  12
BRANCH   9  15
ATOM     15  C   UNL     1      -4.405  -2.140  23.818  0.00  0.00    +0.124 C 
BRANCH  15  21
ATOM      4  O   UNL     1      -2.556  -3.665  23.377  0.00  0.00    -0.251 OA
ATOM     21  C   UNL     1      -3.315  -3.116  24.161  0.00  0.00    +0.305 C 
BRANCH  21   3
ATOM      3  O   UNL     1      -3.283  -3.314  25.504  0.00  0.00    -0.481 OA
ATOM     34  H   UNL     1      -2.384  -3.178  25.873  0.00  0.00    +0.295 HD
ENDBRANCH  21   3
ENDBRANCH  15  21
ENDBRANCH   9  15
TORSDOF 8
ENDMDL
MODEL 3
REMARK VINA RESULT:       4.3      1.461      1.949
REMARK  Name = 25313130
REMARK  8 active torsions:
REMARK  status: ('A' for Active; 'I' for Inactive)
REMARK    1  A    between atoms: O_3  and  C_21
REMARK    2  A    between atoms: N_6  and  C_14
REMARK    3  A    between atoms: N_7  and  C_23
REMARK    4  A    between atoms: C_8  and  C_12
REMARK    5  A    between atoms: C_9  and  C_15
REMARK    6  A    between atoms: C_12  and  C_14
REMARK    7  A    between atoms: C_15  and  C_21
REMARK    8  A    between atoms: C_20  and  C_22
REMARK                            x       y       z     vdW  Elec       q    Type
REMARK                         _______ _______ _______ _____ _____    ______ ____
ROOT
ATOM      2  O   UNL     1      -1.053  -0.377  26.475  0.00  0.00    -0.270 OA
ATOM      5  N   UNL     1      -2.517   1.358  25.913  0.00  0.00    -0.297 N 
ATOM      8  C   UNL     1      -3.362   3.006  24.256  0.00  0.00    +0.011 C 
ATOM      9  C   UNL     1      -2.589   4.111  25.019  0.00  0.00    +0.006 C 
ATOM     10  C   UNL     1      -3.711   1.853  25.214  0.00  0.00    +0.112 C 
ATOM     11  C   UNL     1      -1.376   3.537  25.771  0.00  0.00    +0.023 C 
ATOM     13  C   UNL     1      -1.784   2.372  26.668  0.00  0.00    +0.108 C 
ATOM     20  C   UNL     1      -2.054   0.040  25.897  0.00  0.00    +0.247 C 
ENDROOT
BRANCH  20  22
ATOM      1  F   UNL     1      -4.962  -3.732  22.958  0.00  0.00    -0.205 F 
ATOM     22  C   UNL     1      -2.816  -0.950  25.127  0.00  0.00    +0.037 A 
ATOM     24  C   UNL     1      -4.070  -0.617  24.612  0.00  0.00    +0.016 A 
ATOM     25  C   UNL     1      -2.288  -2.223  24.910  0.00  0.00    +0.016 A 
ATOM     28  C   UNL     1      -4.795  -1.557  23.880  0.00  0.00    +0.039 A 
ATOM     29  C   UNL     1      -3.014  -3.162  24.178  0.00  0.00    +0.039 A 
ATOM     32  C   UNL     1      -4.267  -2.830  23.663  0.00  0.00    +0.123 A 
ENDBRANCH  20  22
BRANCH   8  12
ATOM     12  C   UNL     1      -2.623   2.469  23.023  0.00  0.00    +0.020 C 
BRANCH  12  14
ATOM     14  C   UNL     1      -2.105   1.059  23.272  0.00  0.00    +0.085 C 
BRANCH  14   6
ATOM      6  N   UNL     1      -0.684   0.985  22.934  0.00  0.00    -0.299 NA
ATOM      7  N   UNL     1       2.050   0.246  23.308  0.00  0.00    -0.327 N 
ATOM     16  C   UNL     1      -0.264  -0.413  22.779  0.00  0.00    +0.103 C 
ATOM     17  C   UNL     1       0.127   1.638  23.971  0.00  0.00    +0.103 C 
ATOM     18  C   UNL     1       1.208  -0.503  22.369  0.00  0.00    +0.120 C 
ATOM     19  C   UNL     1       1.611   1.617  23.600  0.00  0.00    +0.120 C 
BRANCH   7  23
ATOM     23  C   UNL     1       3.418  -0.040  23.394  0.00  0.00    +0.030 A 
ATOM     26  C   UNL     1       4.355   0.956  23.123  0.00  0.00    +0.023 A 
ATOM     27  C   UNL     1       3.842  -1.318  23.754  0.00  0.00    +0.023 A 
ATOM     30  C   UNL     1       5.718   0.673  23.212  0.00  0.00    +0.002 A 
ATOM     31  C   UNL     1       5.204  -1.602  23.842  0.00  0.00    +0.002 A 
ATOM     33  C   UNL     1       6.143  -0.606  23.571  0.00  0.00    +0.000 A 
ENDBRANCH   7  23
ENDBRANCH  14   6
ENDBRANCH  12  14
ENDBRANCH   8  12
BRANCH   9  15
ATOM     15  C   UNL     1      -2.164   5.276  24.125  0.00  0.00    +0.124 C 
BRANCH  15  21
ATOM      4  O   UNL     1       0.034   4.850  23.162  0.00  0.00    -0.251 OA
ATOM     21  C   UNL     1      -0.669   5.374  24.013  0.00  0.00    +0.305 C 
BRANCH  21   3
ATOM      3  O   UNL     1      -0.184   6.149  25.018  0.00  0.00    -0.481 OA
ATOM     34  H   UNL     1       0.485   6.789  24.696  0.00  0.00    +0.295 HD
ENDBRANCH  21   3
ENDBRANCH  15  21
ENDBRANCH   9  15
TORSDOF 8
ENDMDL
