REMARK  Name = 130314408
REMARK  6 active torsions:
REMARK  status: ('A' for Active; 'I' for Inactive)
REMARK    1  A    between atoms: O_4  and  N_7
REMARK    2  A    between atoms: O_4  and  C_18
REMARK    3  A    between atoms: C_8  and  C_13
REMARK    4  A    between atoms: C_9  and  C_11
REMARK    5  A    between atoms: C_17  and  C_18
REMARK    6  A    between atoms: C_19  and  C_27
REMARK                            x       y       z     vdW  Elec       q    Type
REMARK                         _______ _______ _______ _____ _____    ______ ____
ROOT
ATOM      1  S   UNL     1      -4.973   0.634  -8.398  0.00  0.00    +0.000 S 
ATOM      2  N   UNL     1      -4.962  -0.109  -5.938  0.00  0.00    +0.000 N 
ATOM      3  N   UNL     1      -2.872   0.397  -6.549  0.00  0.00    +0.000 NA
ATOM      4  C   UNL     1      -4.214  -0.296  -4.805  0.00  0.00    +0.000 A 
ATOM      5  C   UNL     1      -2.907  -0.012  -5.224  0.00  0.00    +0.000 A 
ATOM      6  C   UNL     1      -4.115   0.308  -6.921  0.00  0.00    +0.000 A 
ATOM      7  C   UNL     1      -6.290  -0.182  -6.300  0.00  0.00    +0.000 A 
ATOM      8  C   UNL     1      -6.478   0.178  -7.582  0.00  0.00    +0.000 A 
ENDROOT
BRANCH   5  10
ATOM      9 CL   UNL     1       1.834  -0.004  -1.587  0.00  0.00    +0.000 Cl
ATOM     10  C   UNL     1      -1.707  -0.091  -4.401  0.00  0.00    +0.000 A 
ATOM     11  C   UNL     1      -0.643   0.794  -4.628  0.00  0.00    +0.000 A 
ATOM     12  C   UNL     1      -1.592  -1.025  -3.360  0.00  0.00    +0.000 A 
ATOM     13  C   UNL     1       0.466   0.805  -3.773  0.00  0.00    +0.000 A 
ATOM     14  C   UNL     1      -0.500  -0.998  -2.490  0.00  0.00    +0.000 A 
ATOM     15  C   UNL     1       0.517  -0.070  -2.690  0.00  0.00    +0.000 A 
ENDBRANCH   5  10
BRANCH   4  17
ATOM     16  N   UNL     1      -5.692  -1.491  -3.374  0.00  0.00    +0.000 NA
ATOM     17  C   UNL     1      -4.704  -0.668  -3.511  0.00  0.00    +0.000 C 
BRANCH  16  18
ATOM     18  O   UNL     1      -5.880  -1.742  -1.998  0.00  0.00    +0.000 OA
BRANCH  18  19
ATOM     19  C   UNL     1      -6.529  -3.010  -1.847  0.00  0.00    +0.000 C 
BRANCH  19  21
ATOM     20 CL   UNL     1      -7.658  -4.341   3.944  0.00  0.00    +0.000 Cl
ATOM     21  C   UNL     1      -6.782  -3.305  -0.387  0.00  0.00    +0.000 A 
ATOM     22  C   UNL     1      -7.909  -2.763   1.722  0.00  0.00    +0.000 A 
ATOM     23  C   UNL     1      -7.620  -2.473   0.375  0.00  0.00    +0.000 A 
ATOM     24  C   UNL     1      -6.224  -4.438   0.220  0.00  0.00    +0.000 A 
ATOM     25  C   UNL     1      -7.343  -3.905   2.301  0.00  0.00    +0.000 A 
ATOM     26  C   UNL     1      -6.503  -4.736   1.556  0.00  0.00    +0.000 A 
ATOM     27  C   UNL     1      -8.810  -1.844   2.502  0.00  0.00    +0.000 C 
ENDBRANCH  19  21
ENDBRANCH  18  19
ENDBRANCH  16  18
ENDBRANCH   4  17
TORSDOF 5
