REMARK  Name = 142505488
REMARK  7 active torsions:
REMARK  status: ('A' for Active; 'I' for Inactive)
REMARK    1  A    between atoms: N_5  and  C_8
REMARK    2  A    between atoms: N_5  and  C_10
REMARK    3  A    between atoms: N_5  and  C_14
REMARK    4  A    between atoms: C_8  and  C_9
REMARK    5  A    between atoms: C_10  and  C_12
REMARK    6  A    between atoms: C_11  and  C_15
REMARK    7  A    between atoms: C_12  and  C_16
REMARK                            x       y       z     vdW  Elec       q    Type
REMARK                         _______ _______ _______ _____ _____    ______ ____
ROOT
ATOM      1  S   UNL     1      -4.233   2.592  -6.181  0.00  0.00    +0.000 S 
ATOM      2  N   UNL     1      -5.176   0.962  -4.427  0.00  0.00    +0.000 N 
ATOM      3  N   UNL     1      -3.921  -0.174  -5.871  0.00  0.00    +0.000 NA
ATOM      4  C   UNL     1      -5.149  -0.327  -3.916  0.00  0.00    +0.000 A 
ATOM      5  C   UNL     1      -4.442  -1.033  -4.905  0.00  0.00    +0.000 A 
ATOM      6  C   UNL     1      -4.363   0.993  -5.517  0.00  0.00    +0.000 A 
ATOM      7  C   UNL     1      -5.770   2.170  -4.125  0.00  0.00    +0.000 A 
ATOM      8  C   UNL     1      -5.363   3.153  -4.946  0.00  0.00    +0.000 A 
ENDROOT
BRANCH   5  10
ATOM      9 CL   UNL     1      -3.289  -6.878  -5.570  0.00  0.00    +0.000 Cl
ATOM     10  C   UNL     1      -4.171  -2.466  -4.999  0.00  0.00    +0.000 A 
ATOM     11  C   UNL     1      -3.030  -2.892  -5.709  0.00  0.00    +0.000 A 
ATOM     12  C   UNL     1      -5.025  -3.443  -4.480  0.00  0.00    +0.000 A 
ATOM     13  C   UNL     1      -2.752  -4.252  -5.885  0.00  0.00    +0.000 A 
ATOM     14  C   UNL     1      -4.738  -4.805  -4.636  0.00  0.00    +0.000 A 
ATOM     15  C   UNL     1      -3.608  -5.204  -5.343  0.00  0.00    +0.000 A 
ENDBRANCH   5  10
BRANCH   4  16
ATOM     16  C   UNL     1      -5.772  -0.680  -2.604  0.00  0.00    +0.000 C 
BRANCH  16  17
ATOM     17  N   UNL     1      -4.877  -0.703  -1.431  0.00  0.00    +0.000 NA
ATOM     18  C   UNL     1      -3.887  -1.784  -1.497  0.00  0.00    +0.000 C 
BRANCH  17  19
ATOM     19  C   UNL     1      -4.197   0.562  -1.139  0.00  0.00    +0.000 C 
BRANCH  19  20
ATOM     20  C   UNL     1      -5.101   1.732  -0.704  0.00  0.00    +0.000 C 
BRANCH  20  23
ATOM     21 CL   UNL     1      -0.822   4.602  -1.533  0.00  0.00    +0.000 Cl
ATOM     22 CL   UNL     1      -1.712   6.420   1.017  0.00  0.00    +0.000 Cl
ATOM     23  C   UNL     1      -4.316   2.999  -0.423  0.00  0.00    +0.000 A 
ATOM     24  C   UNL     1      -3.134   3.318  -1.115  0.00  0.00    +0.000 A 
ATOM     25  C   UNL     1      -4.751   3.869   0.583  0.00  0.00    +0.000 A 
ATOM     26  C   UNL     1      -2.319   4.376  -0.701  0.00  0.00    +0.000 A 
ATOM     27  C   UNL     1      -3.950   4.940   0.987  0.00  0.00    +0.000 A 
ATOM     28  C   UNL     1      -2.714   5.169   0.375  0.00  0.00    +0.000 A 
ENDBRANCH  20  23
ENDBRANCH  19  20
ENDBRANCH  17  19
ENDBRANCH  16  17
ENDBRANCH   4  16
TORSDOF 6
