REMARK  Name = 142505504
REMARK  5 active torsions:
REMARK  status: ('A' for Active; 'I' for Inactive)
REMARK    1  A    between atoms: O_5  and  N_8
REMARK    2  A    between atoms: O_5  and  C_21
REMARK    3  A    between atoms: C_9  and  C_14
REMARK    4  A    between atoms: C_10  and  C_12
REMARK    5  A    between atoms: C_20  and  C_21
REMARK                            x       y       z     vdW  Elec       q    Type
REMARK                         _______ _______ _______ _____ _____    ______ ____
ROOT
ATOM      1  S   UNL     1       2.795  -2.301  -4.539  0.00  0.00    +0.000 S 
ATOM      2  N   UNL     1       3.328   0.016  -3.565  0.00  0.00    +0.000 N 
ATOM      3  N   UNL     1       1.923  -1.042  -2.188  0.00  0.00    +0.000 NA
ATOM      4  C   UNL     1       3.159   0.879  -2.512  0.00  0.00    +0.000 A 
ATOM      5  C   UNL     1       2.242   0.212  -1.692  0.00  0.00    +0.000 A 
ATOM      6  C   UNL     1       2.594  -1.100  -3.301  0.00  0.00    +0.000 A 
ATOM      7  C   UNL     1       4.059  -0.030  -4.734  0.00  0.00    +0.000 A 
ATOM      8  C   UNL     1       3.891  -1.196  -5.382  0.00  0.00    +0.000 A 
ENDROOT
BRANCH   5  10
ATOM      9 CL   UNL     1       0.519  -0.856   3.060  0.00  0.00    +0.000 Cl
ATOM     10  C   UNL     1       1.668   0.706  -0.447  0.00  0.00    +0.000 A 
ATOM     11  C   UNL     1       1.387  -0.198   0.588  0.00  0.00    +0.000 A 
ATOM     12  C   UNL     1       1.356   2.062  -0.262  0.00  0.00    +0.000 A 
ATOM     13  C   UNL     1       0.852   0.259   1.793  0.00  0.00    +0.000 A 
ATOM     14  C   UNL     1       0.833   2.516   0.951  0.00  0.00    +0.000 A 
ATOM     15  C   UNL     1       0.586   1.614   1.983  0.00  0.00    +0.000 A 
ENDBRANCH   5  10
BRANCH   4  17
ATOM     16  N   UNL     1       4.233   2.857  -3.307  0.00  0.00    +0.000 NA
ATOM     17  C   UNL     1       3.831   2.129  -2.315  0.00  0.00    +0.000 C 
BRANCH  16  18
ATOM     18  O   UNL     1       4.838   4.017  -2.783  0.00  0.00    +0.000 OA
BRANCH  18  19
ATOM     19  C   UNL     1       4.756   5.070  -3.748  0.00  0.00    +0.000 C 
BRANCH  19  22
ATOM     20 CL   UNL     1       5.398  10.225  -3.863  0.00  0.00    +0.000 Cl
ATOM     21 CL   UNL     1       8.180   9.831  -2.223  0.00  0.00    +0.000 Cl
ATOM     22  C   UNL     1       5.589   6.261  -3.324  0.00  0.00    +0.000 A 
ATOM     23  C   UNL     1       5.191   7.556  -3.695  0.00  0.00    +0.000 A 
ATOM     24  C   UNL     1       6.797   6.106  -2.630  0.00  0.00    +0.000 A 
ATOM     25  C   UNL     1       5.969   8.672  -3.362  0.00  0.00    +0.000 A 
ATOM     26  C   UNL     1       7.575   7.219  -2.294  0.00  0.00    +0.000 A 
ATOM     27  C   UNL     1       7.164   8.503  -2.660  0.00  0.00    +0.000 A 
ENDBRANCH  19  22
ENDBRANCH  18  19
ENDBRANCH  16  18
ENDBRANCH   4  17
TORSDOF 5
