REMARK  Name = 142505467
REMARK  5 active torsions:
REMARK  status: ('A' for Active; 'I' for Inactive)
REMARK    1  A    between atoms: N_7  and  C_13
REMARK    2  A    between atoms: C_8  and  C_14
REMARK    3  A    between atoms: C_9  and  C_11
REMARK    4  A    between atoms: C_12  and  C_13
REMARK    5  A    between atoms: C_12  and  C_16
REMARK                            x       y       z     vdW  Elec       q    Type
REMARK                         _______ _______ _______ _____ _____    ______ ____
ROOT
ATOM      1  S   UNL     1      -3.521  -6.308   0.237  0.00  0.00    +0.000 S 
ATOM      2  N   UNL     1      -3.753  -3.819  -0.360  0.00  0.00    +0.000 N 
ATOM      3  N   UNL     1      -5.057  -5.018  -1.727  0.00  0.00    +0.000 NA
ATOM      4  C   UNL     1      -4.293  -2.903  -1.225  0.00  0.00    +0.000 A 
ATOM      5  C   UNL     1      -5.162  -3.666  -2.009  0.00  0.00    +0.000 A 
ATOM      6  C   UNL     1      -4.207  -5.047  -0.740  0.00  0.00    +0.000 A 
ATOM      7  C   UNL     1      -2.885  -3.824   0.711  0.00  0.00    +0.000 A 
ATOM      8  C   UNL     1      -2.653  -5.070   1.160  0.00  0.00    +0.000 A 
ENDROOT
BRANCH   5  10
ATOM      9 CL   UNL     1      -8.783  -1.570  -6.286  0.00  0.00    +0.000 Cl
ATOM     10  C   UNL     1      -6.072  -3.154  -3.030  0.00  0.00    +0.000 A 
ATOM     11  C   UNL     1      -6.706  -1.909  -2.892  0.00  0.00    +0.000 A 
ATOM     12  C   UNL     1      -6.343  -3.926  -4.164  0.00  0.00    +0.000 A 
ATOM     13  C   UNL     1      -7.536  -1.413  -3.902  0.00  0.00    +0.000 A 
ATOM     14  C   UNL     1      -7.189  -3.441  -5.169  0.00  0.00    +0.000 A 
ATOM     15  C   UNL     1      -7.764  -2.179  -5.043  0.00  0.00    +0.000 A 
ENDBRANCH   5  10
BRANCH   4  17
ATOM     16  N   UNL     1      -3.602  -0.823  -0.294  0.00  0.00    +0.000 NA
ATOM     17  C   UNL     1      -3.990  -1.510  -1.313  0.00  0.00    +0.000 C 
BRANCH  16  18
ATOM     18  C   UNL     1      -3.416   0.596  -0.654  0.00  0.00    +0.000 C 
BRANCH  18  19
ATOM     19  C   UNL     1      -3.027   1.416   0.575  0.00  0.00    +0.000 C 
BRANCH  19  22
ATOM     20 CL   UNL     1      -0.425  -1.583   3.918  0.00  0.00    +0.000 Cl
ATOM     21 CL   UNL     1       2.259   0.111   3.188  0.00  0.00    +0.000 Cl
ATOM     22  C   UNL     1      -1.696   1.034   1.174  0.00  0.00    +0.000 A 
ATOM     23  C   UNL     1      -1.628   0.012   2.133  0.00  0.00    +0.000 A 
ATOM     24  C   UNL     1      -0.522   1.699   0.804  0.00  0.00    +0.000 A 
ATOM     25  C   UNL     1      -0.417  -0.309   2.750  0.00  0.00    +0.000 A 
ATOM     26  C   UNL     1       0.688   1.390   1.430  0.00  0.00    +0.000 A 
ATOM     27  C   UNL     1       0.741   0.398   2.415  0.00  0.00    +0.000 A 
ENDBRANCH  19  22
ENDBRANCH  18  19
ENDBRANCH  16  18
ENDBRANCH   4  17
TORSDOF 5
