REMARK  Name = 142505438
REMARK  6 active torsions:
REMARK  status: ('A' for Active; 'I' for Inactive)
REMARK    1  A    between atoms: O_4  and  N_7
REMARK    2  A    between atoms: O_4  and  C_22
REMARK    3  A    between atoms: C_9  and  C_14
REMARK    4  A    between atoms: C_10  and  C_12
REMARK    5  A    between atoms: C_20  and  C_28
REMARK    6  A    between atoms: C_21  and  C_22
REMARK                            x       y       z     vdW  Elec       q    Type
REMARK                         _______ _______ _______ _____ _____    ______ ____
ROOT
ATOM      1  S   UNL     1      -4.580   2.074  -8.446  0.00  0.00    +0.000 S 
ATOM      2  N   UNL     1      -4.809   1.525  -5.951  0.00  0.00    +0.000 N 
ATOM      3  N   UNL     1      -2.725   1.059  -6.599  0.00  0.00    +0.000 NA
ATOM      4  C   UNL     1      -4.196   1.065  -4.818  0.00  0.00    +0.000 A 
ATOM      5  C   UNL     1      -2.895   0.770  -5.251  0.00  0.00    +0.000 A 
ATOM      6  C   UNL     1      -3.892   1.510  -6.957  0.00  0.00    +0.000 A 
ATOM      7  C   UNL     1      -6.070   1.949  -6.309  0.00  0.00    +0.000 A 
ATOM      8  C   UNL     1      -6.126   2.288  -7.608  0.00  0.00    +0.000 A 
ENDROOT
BRANCH   5   9
ATOM      9  C   UNL     1      -1.804   0.252  -4.440  0.00  0.00    +0.000 A 
ATOM     10  C   UNL     1      -1.713   0.548  -3.068  0.00  0.00    +0.000 A 
ATOM     11  C   UNL     1      -0.819  -0.552  -5.017  0.00  0.00    +0.000 A 
ATOM     12  C   UNL     1      -0.699   0.025  -2.283  0.00  0.00    +0.000 A 
ATOM     13  C   UNL     1       0.237  -1.042  -4.241  0.00  0.00    +0.000 A 
ATOM     14  C   UNL     1       0.301  -0.741  -2.879  0.00  0.00    +0.000 A 
BRANCH  14  16
ATOM     15  N   UNL     1       2.345  -1.434  -1.455  0.00  0.00    +0.000 NA
ATOM     16  C   UNL     1       1.421  -1.144  -2.099  0.00  0.00    +0.000 C 
ENDBRANCH  14  16
ENDBRANCH   5   9
BRANCH   4  18
ATOM     17  N   UNL     1      -4.474  -0.040  -2.762  0.00  0.00    +0.000 NA
ATOM     18  C   UNL     1      -4.833   0.924  -3.540  0.00  0.00    +0.000 C 
BRANCH  17  19
ATOM     19  O   UNL     1      -5.159  -0.002  -1.543  0.00  0.00    +0.000 OA
BRANCH  19  20
ATOM     20  C   UNL     1      -5.073  -1.324  -1.007  0.00  0.00    +0.000 C 
BRANCH  20  23
ATOM     21 CL   UNL     1      -8.850  -3.758   1.594  0.00  0.00    +0.000 Cl
ATOM     22 CL   UNL     1      -7.718  -2.348   4.301  0.00  0.00    +0.000 Cl
ATOM     23  C   UNL     1      -5.859  -1.457   0.268  0.00  0.00    +0.000 A 
ATOM     24  C   UNL     1      -6.920  -2.372   0.352  0.00  0.00    +0.000 A 
ATOM     25  C   UNL     1      -5.488  -0.739   1.411  0.00  0.00    +0.000 A 
ATOM     26  C   UNL     1      -7.546  -2.624   1.577  0.00  0.00    +0.000 A 
ATOM     27  C   UNL     1      -6.105  -0.999   2.637  0.00  0.00    +0.000 A 
ATOM     28  C   UNL     1      -7.105  -1.970   2.730  0.00  0.00    +0.000 A 
ENDBRANCH  20  23
ENDBRANCH  19  20
ENDBRANCH  17  19
ENDBRANCH   4  18
TORSDOF 6
