REMARK  Name = 1473296
REMARK  5 active torsions:
REMARK  status: ('A' for Active; 'I' for Inactive)
REMARK    1  A    between atoms: O_4  and  N_8
REMARK    2  A    between atoms: O_4  and  C_24
REMARK    3  A    between atoms: C_9  and  C_14
REMARK    4  A    between atoms: C_10  and  C_12
REMARK    5  A    between atoms: C_21  and  C_24
REMARK                            x       y       z     vdW  Elec       q    Type
REMARK                         _______ _______ _______ _____ _____    ______ ____
ROOT
ATOM      1  S   UNL     1     -11.143  -0.153   1.125  0.00  0.00    +0.000 S 
ATOM      2  N   UNL     1      -8.675  -0.795   0.764  0.00  0.00    +0.000 N 
ATOM      3  N   UNL     1      -9.233   0.808  -0.692  0.00  0.00    +0.000 NA
ATOM      4  C   UNL     1      -7.541  -0.588   0.020  0.00  0.00    +0.000 A 
ATOM      5  C   UNL     1      -7.914   0.423  -0.875  0.00  0.00    +0.000 A 
ATOM      6  C   UNL     1      -9.642   0.033   0.269  0.00  0.00    +0.000 A 
ATOM      7  C   UNL     1      -9.077  -1.565   1.839  0.00  0.00    +0.000 A 
ATOM      8  C   UNL     1     -10.368  -1.367   2.152  0.00  0.00    +0.000 A 
ENDROOT
BRANCH   5   9
ATOM      9  C   UNL     1      -7.059   1.064  -1.870  0.00  0.00    +0.000 A 
ATOM     10  C   UNL     1      -7.272   2.414  -2.193  0.00  0.00    +0.000 A 
ATOM     11  C   UNL     1      -6.012   0.387  -2.512  0.00  0.00    +0.000 A 
ATOM     12  C   UNL     1      -6.424   3.079  -3.080  0.00  0.00    +0.000 A 
ATOM     13  C   UNL     1      -5.149   1.057  -3.381  0.00  0.00    +0.000 A 
ATOM     14  C   UNL     1      -5.349   2.409  -3.656  0.00  0.00    +0.000 A 
ENDBRANCH   5   9
BRANCH   4  16
ATOM     15  N   UNL     1      -6.026  -2.490   0.394  0.00  0.00    +0.000 NA
ATOM     16  C   UNL     1      -6.261  -1.226   0.182  0.00  0.00    +0.000 C 
BRANCH  15  17
ATOM     17  O   UNL     1      -7.206  -3.233   0.449  0.00  0.00    +0.000 OA
BRANCH  17  19
ATOM     18  O   UNL     1      -8.012  -5.286   0.897  0.00  0.00    +0.000 OA
ATOM     19  C   UNL     1      -7.067  -4.586   0.537  0.00  0.00    +0.000 C 
BRANCH  19  22
ATOM     20 CL   UNL     1      -5.327  -8.490  -2.281  0.00  0.00    +0.000 Cl
ATOM     21 CL   UNL     1      -2.289  -7.495  -1.675  0.00  0.00    +0.000 Cl
ATOM     22  C   UNL     1      -5.851  -5.256   0.009  0.00  0.00    +0.000 A 
ATOM     23  C   UNL     1      -6.062  -6.391  -0.790  0.00  0.00    +0.000 A 
ATOM     24  C   UNL     1      -4.543  -4.871   0.317  0.00  0.00    +0.000 A 
ATOM     25  C   UNL     1      -4.980  -7.102  -1.315  0.00  0.00    +0.000 A 
ATOM     26  C   UNL     1      -3.459  -5.568  -0.226  0.00  0.00    +0.000 A 
ATOM     27  C   UNL     1      -3.674  -6.682  -1.044  0.00  0.00    +0.000 A 
ENDBRANCH  19  22
ENDBRANCH  17  19
ENDBRANCH  15  17
ENDBRANCH   4  16
TORSDOF 5
