REMARK  Name = 154040918
REMARK  5 active torsions:
REMARK  status: ('A' for Active; 'I' for Inactive)
REMARK    1  A    between atoms: O_5  and  N_8
REMARK    2  A    between atoms: O_5  and  C_21
REMARK    3  A    between atoms: C_9  and  C_14
REMARK    4  A    between atoms: C_10  and  C_12
REMARK    5  A    between atoms: C_20  and  C_21
REMARK                            x       y       z     vdW  Elec       q    Type
REMARK                         _______ _______ _______ _____ _____    ______ ____
ROOT
ATOM      1  S   UNL     1      -8.697  -2.405  -4.307  0.00  0.00    +0.000 S 
ATOM      2  N   UNL     1      -6.617  -0.931  -3.975  0.00  0.00    +0.000 N 
ATOM      3  N   UNL     1      -8.277  -0.128  -2.717  0.00  0.00    +0.000 NA
ATOM      4  C   UNL     1      -6.079   0.172  -3.354  0.00  0.00    +0.000 A 
ATOM      5  C   UNL     1      -7.137   0.650  -2.571  0.00  0.00    +0.000 A 
ATOM      6  C   UNL     1      -7.917  -1.030  -3.582  0.00  0.00    +0.000 A 
ATOM      7  C   UNL     1      -6.186  -1.941  -4.811  0.00  0.00    +0.000 A 
ATOM      8  C   UNL     1      -7.172  -2.805  -5.110  0.00  0.00    +0.000 A 
ENDROOT
BRANCH   5  10
ATOM      9  F   UNL     1      -6.962   4.898   1.064  0.00  0.00    +0.000 F 
ATOM     10  C   UNL     1      -7.109   1.790  -1.662  0.00  0.00    +0.000 A 
ATOM     11  C   UNL     1      -7.892   1.757  -0.496  0.00  0.00    +0.000 A 
ATOM     12  C   UNL     1      -6.327   2.927  -1.916  0.00  0.00    +0.000 A 
ATOM     13  C   UNL     1      -7.847   2.807   0.425  0.00  0.00    +0.000 A 
ATOM     14  C   UNL     1      -6.273   3.973  -0.991  0.00  0.00    +0.000 A 
ATOM     15  C   UNL     1      -7.027   3.898   0.174  0.00  0.00    +0.000 A 
ENDBRANCH   5  10
BRANCH   4  17
ATOM     16  N   UNL     1      -3.981   0.685  -4.521  0.00  0.00    +0.000 NA
ATOM     17  C   UNL     1      -4.717   0.620  -3.449  0.00  0.00    +0.000 C 
BRANCH  16  18
ATOM     18  O   UNL     1      -4.724   0.411  -5.675  0.00  0.00    +0.000 OA
BRANCH  18  19
ATOM     19  C   UNL     1      -3.850   0.206  -6.787  0.00  0.00    +0.000 C 
BRANCH  19  22
ATOM     20 CL   UNL     1      -5.375  -1.817 -11.347  0.00  0.00    +0.000 Cl
ATOM     21 CL   UNL     1      -7.104   0.896 -11.833  0.00  0.00    +0.000 Cl
ATOM     22  C   UNL     1      -4.674   0.325  -8.043  0.00  0.00    +0.000 A 
ATOM     23  C   UNL     1      -4.678  -0.683  -9.018  0.00  0.00    +0.000 A 
ATOM     24  C   UNL     1      -5.441   1.480  -8.259  0.00  0.00    +0.000 A 
ATOM     25  C   UNL     1      -5.427  -0.532 -10.192  0.00  0.00    +0.000 A 
ATOM     26  C   UNL     1      -6.189   1.629  -9.426  0.00  0.00    +0.000 A 
ATOM     27  C   UNL     1      -6.178   0.631 -10.400  0.00  0.00    +0.000 A 
ENDBRANCH  19  22
ENDBRANCH  18  19
ENDBRANCH  16  18
ENDBRANCH   4  17
TORSDOF 5
