REMARK  Name = 154040924
REMARK  6 active torsions:
REMARK  status: ('A' for Active; 'I' for Inactive)
REMARK    1  A    between atoms: O_4  and  N_7
REMARK    2  A    between atoms: O_4  and  C_23
REMARK    3  A    between atoms: C_8  and  C_10
REMARK    4  A    between atoms: C_9  and  C_18
REMARK    5  A    between atoms: C_12  and  C_19
REMARK    6  A    between atoms: C_23  and  C_24
REMARK                            x       y       z     vdW  Elec       q    Type
REMARK                         _______ _______ _______ _____ _____    ______ ____
ROOT
ATOM      1  S   UNL     1      -8.641  -2.478  -4.324  0.00  0.00    +0.000 S 
ATOM      2  N   UNL     1      -6.617  -0.946  -3.990  0.00  0.00    +0.000 N 
ATOM      3  N   UNL     1      -8.275  -0.192  -2.726  0.00  0.00    +0.000 NA
ATOM      4  C   UNL     1      -7.155   0.608  -2.571  0.00  0.00    +0.000 A 
ATOM      5  C   UNL     1      -6.077   0.153  -3.368  0.00  0.00    +0.000 A 
ATOM      6  C   UNL     1      -7.895  -1.089  -3.589  0.00  0.00    +0.000 A 
ATOM      7  C   UNL     1      -6.165  -1.920  -4.875  0.00  0.00    +0.000 A 
ATOM      8  C   UNL     1      -7.129  -2.793  -5.183  0.00  0.00    +0.000 A 
ENDROOT
BRANCH   4   9
ATOM      9  C   UNL     1      -7.151   1.749  -1.656  0.00  0.00    +0.000 A 
ATOM     10  C   UNL     1      -7.059   3.849   0.270  0.00  0.00    +0.000 A 
ATOM     11  C   UNL     1      -8.282   2.075  -0.901  0.00  0.00    +0.000 A 
ATOM     12  C   UNL     1      -6.014   2.533  -1.473  0.00  0.00    +0.000 A 
ATOM     13  C   UNL     1      -8.243   3.122   0.042  0.00  0.00    +0.000 A 
ATOM     14  C   UNL     1      -5.950   3.505  -0.498  0.00  0.00    +0.000 A 
BRANCH  10  15
ATOM     15  C   UNL     1      -6.934   4.945   1.246  0.00  0.00    +0.000 A 
ATOM     16  C   UNL     1      -7.694   4.989   2.420  0.00  0.00    +0.000 A 
ATOM     17  C   UNL     1      -5.988   5.973   1.041  0.00  0.00    +0.000 A 
ATOM     18  C   UNL     1      -7.504   6.011   3.354  0.00  0.00    +0.000 A 
ATOM     19  C   UNL     1      -5.775   6.976   1.982  0.00  0.00    +0.000 A 
ATOM     20  C   UNL     1      -6.539   6.995   3.139  0.00  0.00    +0.000 A 
ENDBRANCH  10  15
ENDBRANCH   4   9
BRANCH   5  22
ATOM     21  N   UNL     1      -3.991   0.646  -4.573  0.00  0.00    +0.000 NA
ATOM     22  C   UNL     1      -4.714   0.580  -3.492  0.00  0.00    +0.000 C 
BRANCH  21  23
ATOM     23  O   UNL     1      -4.742   0.352  -5.707  0.00  0.00    +0.000 OA
BRANCH  23  24
ATOM     24  C   UNL     1      -3.878   0.140  -6.816  0.00  0.00    +0.000 C 
BRANCH  24  27
ATOM     25 CL   UNL     1      -5.450  -1.780 -11.385  0.00  0.00    +0.000 Cl
ATOM     26 CL   UNL     1      -7.131   0.973 -11.820  0.00  0.00    +0.000 Cl
ATOM     27  C   UNL     1      -4.733   0.280  -8.043  0.00  0.00    +0.000 A 
ATOM     28  C   UNL     1      -4.755  -0.712  -9.030  0.00  0.00    +0.000 A 
ATOM     29  C   UNL     1      -5.506   1.438  -8.216  0.00  0.00    +0.000 A 
ATOM     30  C   UNL     1      -5.502  -0.526 -10.197  0.00  0.00    +0.000 A 
ATOM     31  C   UNL     1      -6.250   1.625  -9.378  0.00  0.00    +0.000 A 
ATOM     32  C   UNL     1      -6.238   0.651 -10.379  0.00  0.00    +0.000 A 
ENDBRANCH  24  27
ENDBRANCH  23  24
ENDBRANCH  21  23
ENDBRANCH   5  22
TORSDOF 6
