REMARK  Name = 154040925
REMARK  5 active torsions:
REMARK  status: ('A' for Active; 'I' for Inactive)
REMARK    1  A    between atoms: O_4  and  N_7
REMARK    2  A    between atoms: O_4  and  C_24
REMARK    3  A    between atoms: C_8  and  C_9
REMARK    4  A    between atoms: C_10  and  C_18
REMARK    5  A    between atoms: C_24  and  C_25
REMARK                            x       y       z     vdW  Elec       q    Type
REMARK                         _______ _______ _______ _____ _____    ______ ____
ROOT
ATOM      1  S   UNL     1      -8.637  -2.469  -4.267  0.00  0.00    +0.000 S 
ATOM      2  N   UNL     1      -6.581  -0.960  -3.934  0.00  0.00    +0.000 N 
ATOM      3  N   UNL     1      -8.254  -0.196  -2.669  0.00  0.00    +0.000 NA
ATOM      4  C   UNL     1      -7.140   0.623  -2.550  0.00  0.00    +0.000 A 
ATOM      5  C   UNL     1      -6.070   0.165  -3.326  0.00  0.00    +0.000 A 
ATOM      6  C   UNL     1      -7.875  -1.093  -3.530  0.00  0.00    +0.000 A 
ATOM      7  C   UNL     1      -6.140  -1.951  -4.790  0.00  0.00    +0.000 A 
ATOM      8  C   UNL     1      -7.117  -2.823  -5.096  0.00  0.00    +0.000 A 
ENDROOT
BRANCH   4   9
ATOM      9  C   UNL     1      -7.187   1.821  -1.719  0.00  0.00    +0.000 A 
ATOM     10  C   UNL     1      -8.099   2.974   0.245  0.00  0.00    +0.000 A 
ATOM     11  C   UNL     1      -7.968   1.820  -0.551  0.00  0.00    +0.000 A 
ATOM     12  C   UNL     1      -7.425   4.154  -0.136  0.00  0.00    +0.000 A 
ATOM     13  C   UNL     1      -6.535   3.001  -2.090  0.00  0.00    +0.000 A 
ATOM     14  C   UNL     1      -6.645   4.152  -1.303  0.00  0.00    +0.000 A 
ATOM     15  C   UNL     1      -8.897   2.989   1.403  0.00  0.00    +0.000 A 
ATOM     16  C   UNL     1      -7.564   5.314   0.642  0.00  0.00    +0.000 A 
ATOM     17  C   UNL     1      -9.028   4.151   2.167  0.00  0.00    +0.000 A 
ATOM     18  C   UNL     1      -8.362   5.312   1.787  0.00  0.00    +0.000 A 
ENDBRANCH   4   9
BRANCH   5  20
ATOM     19  N   UNL     1      -4.005   0.740  -4.526  0.00  0.00    +0.000 NA
ATOM     20  C   UNL     1      -4.727   0.666  -3.445  0.00  0.00    +0.000 C 
BRANCH  19  21
ATOM     21  O   UNL     1      -4.752   0.419  -5.665  0.00  0.00    +0.000 OA
BRANCH  21  22
ATOM     22  C   UNL     1      -3.894   0.235  -6.791  0.00  0.00    +0.000 C 
BRANCH  22  25
ATOM     23 CL   UNL     1      -5.531  -1.765 -11.326  0.00  0.00    +0.000 Cl
ATOM     24 CL   UNL     1      -7.289   0.941 -11.743  0.00  0.00    +0.000 Cl
ATOM     25  C   UNL     1      -4.749   0.359  -8.027  0.00  0.00    +0.000 A 
ATOM     26  C   UNL     1      -4.774  -0.643  -9.008  0.00  0.00    +0.000 A 
ATOM     27  C   UNL     1      -5.531   1.509  -8.213  0.00  0.00    +0.000 A 
ATOM     28  C   UNL     1      -5.558  -0.488 -10.160  0.00  0.00    +0.000 A 
ATOM     29  C   UNL     1      -6.313   1.663  -9.357  0.00  0.00    +0.000 A 
ATOM     30  C   UNL     1      -6.323   0.670 -10.338  0.00  0.00    +0.000 A 
ENDBRANCH  22  25
ENDBRANCH  21  22
ENDBRANCH  19  21
ENDBRANCH   5  20
TORSDOF 5
