REMARK  Name = 155269237
REMARK  6 active torsions:
REMARK  status: ('A' for Active; 'I' for Inactive)
REMARK    1  A    between atoms: O_4  and  N_7
REMARK    2  A    between atoms: O_4  and  C_22
REMARK    3  A    between atoms: C_8  and  C_10
REMARK    4  A    between atoms: C_9  and  C_15
REMARK    5  A    between atoms: C_16  and  C_20
REMARK    6  A    between atoms: C_21  and  C_22
REMARK                            x       y       z     vdW  Elec       q    Type
REMARK                         _______ _______ _______ _____ _____    ______ ____
ROOT
ATOM      1  S   UNL     1      -8.650  -2.447  -4.287  0.00  0.00    +0.000 S 
ATOM      2  N   UNL     1      -6.576  -0.956  -3.989  0.00  0.00    +0.000 N 
ATOM      3  N   UNL     1      -8.219  -0.180  -2.691  0.00  0.00    +0.000 NA
ATOM      4  C   UNL     1      -7.085   0.609  -2.562  0.00  0.00    +0.000 A 
ATOM      5  C   UNL     1      -6.036   0.145  -3.367  0.00  0.00    +0.000 A 
ATOM      6  C   UNL     1      -7.866  -1.073  -3.568  0.00  0.00    +0.000 A 
ATOM      7  C   UNL     1      -6.159  -1.951  -4.850  0.00  0.00    +0.000 A 
ATOM      8  C   UNL     1      -7.143  -2.820  -5.133  0.00  0.00    +0.000 A 
ENDROOT
BRANCH   4   9
ATOM      9  C   UNL     1      -7.056   1.755  -1.659  0.00  0.00    +0.000 A 
ATOM     10  C   UNL     1      -7.823   1.725  -0.486  0.00  0.00    +0.000 A 
ATOM     11  C   UNL     1      -6.297   2.898  -1.932  0.00  0.00    +0.000 A 
ATOM     12  C   UNL     1      -7.001   3.916   0.159  0.00  0.00    +0.000 A 
ATOM     13  C   UNL     1      -7.796   2.797   0.416  0.00  0.00    +0.000 A 
ATOM     14  C   UNL     1      -6.257   3.961  -1.025  0.00  0.00    +0.000 A 
ATOM     15  C   UNL     1      -6.943   5.068   1.118  0.00  0.00    +0.000 C 
ENDBRANCH   4   9
BRANCH   5  17
ATOM     16  N   UNL     1      -3.958   0.695  -4.557  0.00  0.00    +0.000 NA
ATOM     17  C   UNL     1      -4.679   0.608  -3.477  0.00  0.00    +0.000 C 
BRANCH  16  18
ATOM     18  O   UNL     1      -4.712   0.421  -5.704  0.00  0.00    +0.000 OA
BRANCH  18  19
ATOM     19  C   UNL     1      -3.855   0.294  -6.839  0.00  0.00    +0.000 C 
BRANCH  19  22
ATOM     20 CL   UNL     1      -5.510  -1.766 -11.335  0.00  0.00    +0.000 Cl
ATOM     21 CL   UNL     1      -7.351   0.886 -11.735  0.00  0.00    +0.000 Cl
ATOM     22  C   UNL     1      -4.726   0.398  -8.065  0.00  0.00    +0.000 A 
ATOM     23  C   UNL     1      -4.739  -0.608  -9.042  0.00  0.00    +0.000 A 
ATOM     24  C   UNL     1      -5.540   1.526  -8.243  0.00  0.00    +0.000 A 
ATOM     25  C   UNL     1      -5.547  -0.482 -10.179  0.00  0.00    +0.000 A 
ATOM     26  C   UNL     1      -6.346   1.653  -9.374  0.00  0.00    +0.000 A 
ATOM     27  C   UNL     1      -6.347   0.653 -10.348  0.00  0.00    +0.000 A 
ENDBRANCH  19  22
ENDBRANCH  18  19
ENDBRANCH  16  18
ENDBRANCH   5  17
TORSDOF 5
