REMARK  Name = 155269227
REMARK  5 active torsions:
REMARK  status: ('A' for Active; 'I' for Inactive)
REMARK    1  A    between atoms: O_4  and  N_7
REMARK    2  A    between atoms: O_4  and  C_24
REMARK    3  A    between atoms: C_8  and  C_9
REMARK    4  A    between atoms: C_10  and  C_18
REMARK    5  A    between atoms: C_24  and  C_25
REMARK                            x       y       z     vdW  Elec       q    Type
REMARK                         _______ _______ _______ _____ _____    ______ ____
ROOT
ATOM      1  S   UNL     1      -8.627  -2.472  -4.297  0.00  0.00    +0.000 S 
ATOM      2  N   UNL     1      -6.586  -0.946  -3.951  0.00  0.00    +0.000 N 
ATOM      3  N   UNL     1      -8.257  -0.222  -2.661  0.00  0.00    +0.000 NA
ATOM      4  C   UNL     1      -7.156   0.613  -2.542  0.00  0.00    +0.000 A 
ATOM      5  C   UNL     1      -6.083   0.179  -3.330  0.00  0.00    +0.000 A 
ATOM      6  C   UNL     1      -7.873  -1.102  -3.537  0.00  0.00    +0.000 A 
ATOM      7  C   UNL     1      -6.145  -1.910  -4.836  0.00  0.00    +0.000 A 
ATOM      8  C   UNL     1      -7.112  -2.786  -5.147  0.00  0.00    +0.000 A 
ENDROOT
BRANCH   4   9
ATOM      9  C   UNL     1      -7.210   1.811  -1.714  0.00  0.00    +0.000 A 
ATOM     10  C   UNL     1      -8.130   2.982   0.229  0.00  0.00    +0.000 A 
ATOM     11  C   UNL     1      -7.999   1.819  -0.554  0.00  0.00    +0.000 A 
ATOM     12  C   UNL     1      -7.449   4.161  -0.157  0.00  0.00    +0.000 A 
ATOM     13  C   UNL     1      -6.553   2.995  -2.087  0.00  0.00    +0.000 A 
ATOM     14  C   UNL     1      -6.659   4.146  -1.310  0.00  0.00    +0.000 A 
ATOM     15  C   UNL     1      -8.926   3.005   1.387  0.00  0.00    +0.000 A 
ATOM     16  C   UNL     1      -7.589   5.325   0.610  0.00  0.00    +0.000 A 
ATOM     17  C   UNL     1      -9.059   4.176   2.144  0.00  0.00    +0.000 A 
ATOM     18  C   UNL     1      -8.392   5.334   1.753  0.00  0.00    +0.000 A 
ENDBRANCH   4   9
BRANCH   5  20
ATOM     19  N   UNL     1      -4.013   0.758  -4.530  0.00  0.00    +0.000 NA
ATOM     20  C   UNL     1      -4.751   0.706  -3.457  0.00  0.00    +0.000 C 
BRANCH  19  21
ATOM     21  O   UNL     1      -4.740   0.391  -5.666  0.00  0.00    +0.000 OA
BRANCH  21  22
ATOM     22  C   UNL     1      -3.874   0.187  -6.780  0.00  0.00    +0.000 C 
BRANCH  22  25
ATOM     23 CL   UNL     1      -5.423  -1.792 -11.351  0.00  0.00    +0.000 Cl
ATOM     24 CL   UNL     1      -7.141   0.933 -11.807  0.00  0.00    +0.000 Cl
ATOM     25  C   UNL     1      -4.721   0.306  -8.021  0.00  0.00    +0.000 A 
ATOM     26  C   UNL     1      -4.730  -0.692  -9.004  0.00  0.00    +0.000 A 
ATOM     27  C   UNL     1      -5.502   1.456  -8.214  0.00  0.00    +0.000 A 
ATOM     28  C   UNL     1      -5.481  -0.527 -10.176  0.00  0.00    +0.000 A 
ATOM     29  C   UNL     1      -6.251   1.622  -9.378  0.00  0.00    +0.000 A 
ATOM     30  C   UNL     1      -6.233   0.638 -10.368  0.00  0.00    +0.000 A 
ENDBRANCH  22  25
ENDBRANCH  21  22
ENDBRANCH  19  21
ENDBRANCH   5  20
TORSDOF 5
