REMARK  Name = 155524887
REMARK  9 active torsions:
REMARK  status: ('A' for Active; 'I' for Inactive)
REMARK    1  A    between atoms: O_4  and  N_7
REMARK    2  A    between atoms: O_4  and  C_28
REMARK    3  A    between atoms: C_8  and  C_14
REMARK    4  A    between atoms: C_8  and  C_15
REMARK    5  A    between atoms: C_9  and  C_16
REMARK    6  A    between atoms: C_9  and  C_17
REMARK    7  A    between atoms: C_20  and  C_22
REMARK    8  A    between atoms: C_23  and  C_25
REMARK    9  A    between atoms: C_28  and  C_29
REMARK                            x       y       z     vdW  Elec       q    Type
REMARK                         _______ _______ _______ _____ _____    ______ ____
ROOT
ATOM      1  S   UNL     1      -4.979   3.621  -6.821  0.00  0.00    +0.000 S 
ATOM      2  N   UNL     1      -3.104   2.105  -5.378  0.00  0.00    +0.000 NA
ATOM      3  N   UNL     1      -4.610   1.087  -6.669  0.00  0.00    +0.000 N 
ATOM      4  C   UNL     1      -2.926   0.725  -5.339  0.00  0.00    +0.000 A 
ATOM      5  C   UNL     1      -3.856   0.067  -6.151  0.00  0.00    +0.000 A 
ATOM      6  C   UNL     1      -4.121   2.256  -6.176  0.00  0.00    +0.000 A 
ATOM      7  C   UNL     1      -5.650   1.214  -7.565  0.00  0.00    +0.000 A 
ATOM      8  C   UNL     1      -5.977   2.503  -7.767  0.00  0.00    +0.000 A 
ENDROOT
BRANCH   4  21
ATOM      9  C   UNL     1       1.690   1.126  -3.448  0.00  0.00    +0.000 C 
ATOM     10  C   UNL     1       1.320  -1.609  -2.099  0.00  0.00    +0.000 C 
ATOM     11  C   UNL     1       2.836   0.354  -2.750  0.00  0.00    +0.000 C 
ATOM     12  C   UNL     1       2.365  -0.570  -1.640  0.00  0.00    +0.000 C 
ATOM     13  C   UNL     1       0.426   0.278  -3.622  0.00  0.00    +0.000 A 
ATOM     14  C   UNL     1       0.265  -0.984  -3.014  0.00  0.00    +0.000 A 
ATOM     15  C   UNL     1       1.325   2.388  -2.630  0.00  0.00    +0.000 C 
ATOM     16  C   UNL     1       2.249   1.581  -4.818  0.00  0.00    +0.000 C 
ATOM     17  C   UNL     1       0.660  -2.151  -0.803  0.00  0.00    +0.000 C 
ATOM     18  C   UNL     1       2.000  -2.792  -2.822  0.00  0.00    +0.000 C 
ATOM     19  C   UNL     1      -0.653   0.808  -4.375  0.00  0.00    +0.000 A 
ATOM     20  C   UNL     1      -0.937  -1.684  -3.232  0.00  0.00    +0.000 A 
ATOM     21  C   UNL     1      -1.860   0.121  -4.547  0.00  0.00    +0.000 A 
ATOM     22  C   UNL     1      -1.994  -1.121  -3.943  0.00  0.00    +0.000 A 
ENDBRANCH   4  21
BRANCH   5  24
ATOM     23  N   UNL     1      -3.014  -2.101  -6.514  0.00  0.00    +0.000 NA
ATOM     24  C   UNL     1      -4.034  -1.313  -6.491  0.00  0.00    +0.000 C 
BRANCH  23  25
ATOM     25  O   UNL     1      -3.408  -3.402  -6.831  0.00  0.00    +0.000 OA
BRANCH  25  26
ATOM     26  C   UNL     1      -2.230  -4.155  -7.134  0.00  0.00    +0.000 C 
BRANCH  26  29
ATOM     27 CL   UNL     1      -5.058  -5.549 -11.276  0.00  0.00    +0.000 Cl
ATOM     28 CL   UNL     1      -2.991  -8.029 -11.698  0.00  0.00    +0.000 Cl
ATOM     29  C   UNL     1      -2.527  -5.176  -8.200  0.00  0.00    +0.000 A 
ATOM     30  C   UNL     1      -3.573  -4.991  -9.117  0.00  0.00    +0.000 A 
ATOM     31  C   UNL     1      -1.677  -6.278  -8.361  0.00  0.00    +0.000 A 
ATOM     32  C   UNL     1      -3.753  -5.869 -10.188  0.00  0.00    +0.000 A 
ATOM     33  C   UNL     1      -1.850  -7.155  -9.434  0.00  0.00    +0.000 A 
ATOM     34  C   UNL     1      -2.880  -6.945 -10.353  0.00  0.00    +0.000 A 
ENDBRANCH  26  29
ENDBRANCH  25  26
ENDBRANCH  23  25
ENDBRANCH   5  24
TORSDOF 5
