REMARK  Name = 157414489
REMARK  6 active torsions:
REMARK  status: ('A' for Active; 'I' for Inactive)
REMARK    1  A    between atoms: O_4  and  N_7
REMARK    2  A    between atoms: O_4  and  C_18
REMARK    3  A    between atoms: C_8  and  C_13
REMARK    4  A    between atoms: C_9  and  C_11
REMARK    5  A    between atoms: C_17  and  C_18
REMARK    6  A    between atoms: C_19  and  C_27
REMARK                            x       y       z     vdW  Elec       q    Type
REMARK                         _______ _______ _______ _____ _____    ______ ____
ROOT
ATOM      1  S   UNL     1      -6.787  -5.295  -4.428  0.00  0.00    +0.000 S 
ATOM      2  N   UNL     1      -5.550  -3.078  -4.019  0.00  0.00    +0.000 N 
ATOM      3  N   UNL     1      -7.366  -3.145  -2.720  0.00  0.00    +0.000 NA
ATOM      4  C   UNL     1      -5.547  -1.872  -3.355  0.00  0.00    +0.000 A 
ATOM      5  C   UNL     1      -6.694  -1.944  -2.552  0.00  0.00    +0.000 A 
ATOM      6  C   UNL     1      -6.663  -3.759  -3.626  0.00  0.00    +0.000 A 
ATOM      7  C   UNL     1      -4.751  -3.754  -4.918  0.00  0.00    +0.000 A 
ATOM      8  C   UNL     1      -5.274  -4.940  -5.270  0.00  0.00    +0.000 A 
ENDROOT
BRANCH   5  10
ATOM      9 CL   UNL     1      -8.793   2.175   1.251  0.00  0.00    +0.000 Cl
ATOM     10  C   UNL     1      -7.195  -0.927  -1.636  0.00  0.00    +0.000 A 
ATOM     11  C   UNL     1      -7.887  -1.316  -0.478  0.00  0.00    +0.000 A 
ATOM     12  C   UNL     1      -7.046   0.444  -1.898  0.00  0.00    +0.000 A 
ATOM     13  C   UNL     1      -8.382  -0.364   0.415  0.00  0.00    +0.000 A 
ATOM     14  C   UNL     1      -7.534   1.400  -1.002  0.00  0.00    +0.000 A 
ATOM     15  C   UNL     1      -8.195   0.995   0.154  0.00  0.00    +0.000 A 
ENDBRANCH   5  10
BRANCH   4  17
ATOM     16  N   UNL     1      -3.904  -0.447  -4.511  0.00  0.00    +0.000 NA
ATOM     17  C   UNL     1      -4.538  -0.847  -3.446  0.00  0.00    +0.000 C 
BRANCH  16  18
ATOM     18  O   UNL     1      -4.438  -1.019  -5.670  0.00  0.00    +0.000 OA
BRANCH  18  19
ATOM     19  C   UNL     1      -3.585  -0.791  -6.793  0.00  0.00    +0.000 C 
BRANCH  19  21
ATOM     20 CL   UNL     1      -7.077  -1.713 -11.632  0.00  0.00    +0.000 Cl
ATOM     21  C   UNL     1      -4.430  -1.011  -8.022  0.00  0.00    +0.000 A 
ATOM     22  C   UNL     1      -6.455  -0.457  -9.285  0.00  0.00    +0.000 A 
ATOM     23  C   UNL     1      -5.612  -0.267  -8.181  0.00  0.00    +0.000 A 
ATOM     24  C   UNL     1      -4.083  -1.951  -8.998  0.00  0.00    +0.000 A 
ATOM     25  C   UNL     1      -6.092  -1.409 -10.246  0.00  0.00    +0.000 A 
ATOM     26  C   UNL     1      -4.912  -2.148 -10.105  0.00  0.00    +0.000 A 
ATOM     27  C   UNL     1      -7.716   0.352  -9.392  0.00  0.00    +0.000 C 
ENDBRANCH  19  21
ENDBRANCH  18  19
ENDBRANCH  16  18
ENDBRANCH   4  17
TORSDOF 5
