REMARK  Name = 16451671
REMARK  3 active torsions:
REMARK  status: ('A' for Active; 'I' for Inactive)
REMARK    1  A    between atoms: C_7  and  C_8
REMARK    2  A    between atoms: C_8  and  C_13
REMARK    3  A    between atoms: C_11  and  C_14
REMARK                            x       y       z     vdW  Elec       q    Type
REMARK                         _______ _______ _______ _____ _____    ______ ____
ROOT
ATOM      1  S   UNL     1      -4.903   1.953  -2.730  0.00  0.00    +0.000 S 
ATOM      2  N   UNL     1      -5.735  -0.467  -2.713  0.00  0.00    +0.000 N 
ATOM      3  N   UNL     1      -6.271   0.442  -4.679  0.00  0.00    +0.000 NA
ATOM      4  C   UNL     1      -4.632   0.903  -1.307  0.00  0.00    +0.000 A 
ATOM      5  C   UNL     1      -5.710   0.631  -3.516  0.00  0.00    +0.000 A 
ATOM      6  C   UNL     1      -5.133  -0.335  -1.487  0.00  0.00    +0.000 A 
ATOM      7  C   UNL     1      -6.726  -0.867  -4.603  0.00  0.00    +0.000 A 
ATOM      8  C   UNL     1      -6.385  -1.451  -3.390  0.00  0.00    +0.000 A 
ENDROOT
BRANCH   7  10
ATOM      9 CL   UNL     1      -9.735  -3.562  -9.008  0.00  0.00    +0.000 Cl
ATOM     10  C   UNL     1      -7.458  -1.528  -5.670  0.00  0.00    +0.000 A 
ATOM     11  C   UNL     1      -7.230  -1.170  -7.005  0.00  0.00    +0.000 A 
ATOM     12  C   UNL     1      -8.407  -2.522  -5.386  0.00  0.00    +0.000 A 
ATOM     13  C   UNL     1      -7.928  -1.804  -8.039  0.00  0.00    +0.000 A 
ATOM     14  C   UNL     1      -9.111  -3.150  -6.418  0.00  0.00    +0.000 A 
ATOM     15  C   UNL     1      -8.867  -2.789  -7.740  0.00  0.00    +0.000 A 
ENDBRANCH   7  10
BRANCH   4  16
ATOM     16  C   UNL     1      -3.864   1.388  -0.115  0.00  0.00    +0.000 C 
BRANCH  16  19
ATOM     17 CL   UNL     1      -6.843   0.801   4.113  0.00  0.00    +0.000 Cl
ATOM     18 CL   UNL     1      -7.489   3.988   3.975  0.00  0.00    +0.000 Cl
ATOM     19  C   UNL     1      -4.742   2.030   0.936  0.00  0.00    +0.000 A 
ATOM     20  C   UNL     1      -5.325   1.252   1.949  0.00  0.00    +0.000 A 
ATOM     21  C   UNL     1      -5.015   3.403   0.896  0.00  0.00    +0.000 A 
ATOM     22  C   UNL     1      -6.169   1.834   2.902  0.00  0.00    +0.000 A 
ATOM     23  C   UNL     1      -5.859   3.986   1.846  0.00  0.00    +0.000 A 
ATOM     24  C   UNL     1      -6.441   3.204   2.847  0.00  0.00    +0.000 A 
ENDBRANCH  16  19
ENDBRANCH   4  16
TORSDOF 3
