REMARK  Name = 3625620
REMARK  5 active torsions:
REMARK  status: ('A' for Active; 'I' for Inactive)
REMARK    1  A    between atoms: O_5  and  N_8
REMARK    2  A    between atoms: O_5  and  C_21
REMARK    3  A    between atoms: C_9  and  C_14
REMARK    4  A    between atoms: C_10  and  C_12
REMARK    5  A    between atoms: C_20  and  C_21
REMARK                            x       y       z     vdW  Elec       q    Type
REMARK                         _______ _______ _______ _____ _____    ______ ____
ROOT
ATOM      1  S   UNL     1       7.333   0.816   1.572  0.00  0.00    +0.000 S 
ATOM      2  N   UNL     1       5.995  -0.249  -0.349  0.00  0.00    +0.000 N 
ATOM      3  N   UNL     1       4.575   0.544   1.177  0.00  0.00    +0.000 NA
ATOM      4  C   UNL     1       4.750  -0.509  -0.877  0.00  0.00    +0.000 A 
ATOM      5  C   UNL     1       3.885  -0.057   0.131  0.00  0.00    +0.000 A 
ATOM      6  C   UNL     1       5.819   0.397   0.837  0.00  0.00    +0.000 A 
ATOM      7  C   UNL     1       7.314  -0.447  -0.707  0.00  0.00    +0.000 A 
ATOM      8  C   UNL     1       8.161   0.056   0.209  0.00  0.00    +0.000 A 
ENDROOT
BRANCH   5  10
ATOM      9 CL   UNL     1      -2.089  -0.121   0.075  0.00  0.00    +0.000 Cl
ATOM     10  C   UNL     1       2.431  -0.139   0.173  0.00  0.00    +0.000 A 
ATOM     11  C   UNL     1       1.710   0.930   0.723  0.00  0.00    +0.000 A 
ATOM     12  C   UNL     1       1.726  -1.238  -0.340  0.00  0.00    +0.000 A 
ATOM     13  C   UNL     1       0.313   0.921   0.727  0.00  0.00    +0.000 A 
ATOM     14  C   UNL     1       0.328  -1.231  -0.373  0.00  0.00    +0.000 A 
ATOM     15  C   UNL     1      -0.371  -0.150   0.157  0.00  0.00    +0.000 A 
ENDBRANCH   5  10
BRANCH   4  17
ATOM     16  N   UNL     1       3.601  -0.849  -3.039  0.00  0.00    +0.000 NA
ATOM     17  C   UNL     1       4.538  -1.110  -2.173  0.00  0.00    +0.000 C 
BRANCH  16  18
ATOM     18  O   UNL     1       2.790   0.202  -2.598  0.00  0.00    +0.000 OA
BRANCH  18  19
ATOM     19  C   UNL     1       1.904   0.669  -3.613  0.00  0.00    +0.000 C 
BRANCH  19  22
ATOM     20 CL   UNL     1      -0.060   2.644  -2.130  0.00  0.00    +0.000 Cl
ATOM     21 CL   UNL     1       4.266   1.623  -5.370  0.00  0.00    +0.000 Cl
ATOM     22  C   UNL     1       2.156   2.151  -3.684  0.00  0.00    +0.000 A 
ATOM     23  C   UNL     1       1.407   3.074  -2.932  0.00  0.00    +0.000 A 
ATOM     24  C   UNL     1       3.278   2.642  -4.384  0.00  0.00    +0.000 A 
ATOM     25  C   UNL     1       1.803   4.412  -2.821  0.00  0.00    +0.000 A 
ATOM     26  C   UNL     1       3.649   3.986  -4.296  0.00  0.00    +0.000 A 
ATOM     27  C   UNL     1       2.926   4.868  -3.500  0.00  0.00    +0.000 A 
ENDBRANCH  19  22
ENDBRANCH  18  19
ENDBRANCH  16  18
ENDBRANCH   4  17
TORSDOF 5
