REMARK  Name = 3728080
REMARK  5 active torsions:
REMARK  status: ('A' for Active; 'I' for Inactive)
REMARK    1  A    between atoms: O_4  and  N_7
REMARK    2  A    between atoms: O_4  and  C_20
REMARK    3  A    between atoms: C_8  and  C_13
REMARK    4  A    between atoms: C_9  and  C_11
REMARK    5  A    between atoms: C_17  and  C_20
REMARK                            x       y       z     vdW  Elec       q    Type
REMARK                         _______ _______ _______ _____ _____    ______ ____
ROOT
ATOM      1  S   UNL     1      -8.724  -2.404  -4.308  0.00  0.00    +0.000 S 
ATOM      2  N   UNL     1      -6.624  -0.965  -3.964  0.00  0.00    +0.000 N 
ATOM      3  N   UNL     1      -8.288  -0.114  -2.742  0.00  0.00    +0.000 NA
ATOM      4  C   UNL     1      -6.080   0.142  -3.358  0.00  0.00    +0.000 A 
ATOM      5  C   UNL     1      -7.139   0.644  -2.591  0.00  0.00    +0.000 A 
ATOM      6  C   UNL     1      -7.931  -1.034  -3.592  0.00  0.00    +0.000 A 
ATOM      7  C   UNL     1      -6.198  -1.998  -4.775  0.00  0.00    +0.000 A 
ATOM      8  C   UNL     1      -7.196  -2.843  -5.080  0.00  0.00    +0.000 A 
ENDROOT
BRANCH   5   9
ATOM      9  C   UNL     1      -7.088   1.786  -1.680  0.00  0.00    +0.000 A 
ATOM     10  C   UNL     1      -7.868   1.773  -0.515  0.00  0.00    +0.000 A 
ATOM     11  C   UNL     1      -6.270   2.899  -1.924  0.00  0.00    +0.000 A 
ATOM     12  C   UNL     1      -7.775   2.809   0.419  0.00  0.00    +0.000 A 
ATOM     13  C   UNL     1      -6.163   3.926  -0.982  0.00  0.00    +0.000 A 
ATOM     14  C   UNL     1      -6.906   3.874   0.195  0.00  0.00    +0.000 A 
ENDBRANCH   5   9
BRANCH   4  16
ATOM     15  N   UNL     1      -3.969   0.604  -4.523  0.00  0.00    +0.000 NA
ATOM     16  C   UNL     1      -4.716   0.586  -3.458  0.00  0.00    +0.000 C 
BRANCH  15  17
ATOM     17  O   UNL     1      -4.688   0.238  -5.671  0.00  0.00    +0.000 OA
BRANCH  17  18
ATOM     18  C   UNL     1      -3.815   0.129  -6.793  0.00  0.00    +0.000 C 
BRANCH  18  21
ATOM     19 CL   UNL     1      -2.222   4.990  -7.605  0.00  0.00    +0.000 Cl
ATOM     20 CL   UNL     1      -4.608   5.293  -9.799  0.00  0.00    +0.000 Cl
ATOM     21  C   UNL     1      -3.948   1.387  -7.602  0.00  0.00    +0.000 A 
ATOM     22  C   UNL     1      -3.109   2.478  -7.338  0.00  0.00    +0.000 A 
ATOM     23  C   UNL     1      -4.969   1.522  -8.551  0.00  0.00    +0.000 A 
ATOM     24  C   UNL     1      -3.285   3.688  -8.009  0.00  0.00    +0.000 A 
ATOM     25  C   UNL     1      -5.147   2.732  -9.224  0.00  0.00    +0.000 A 
ATOM     26  C   UNL     1      -4.309   3.817  -8.951  0.00  0.00    +0.000 A 
ENDBRANCH  18  21
ENDBRANCH  17  18
ENDBRANCH  15  17
ENDBRANCH   4  16
TORSDOF 5
