REMARK  Name = 5878688
REMARK  5 active torsions:
REMARK  status: ('A' for Active; 'I' for Inactive)
REMARK    1  A    between atoms: O_5  and  N_8
REMARK    2  A    between atoms: O_5  and  C_21
REMARK    3  A    between atoms: C_9  and  C_14
REMARK    4  A    between atoms: C_10  and  C_12
REMARK    5  A    between atoms: C_20  and  C_21
REMARK                            x       y       z     vdW  Elec       q    Type
REMARK                         _______ _______ _______ _____ _____    ______ ____
ROOT
ATOM      1  S   UNL     1      -0.009  -2.630  -4.569  0.00  0.00    +0.000 S 
ATOM      2  N   UNL     1       2.246  -2.057  -3.487  0.00  0.00    +0.000 N 
ATOM      3  N   UNL     1       0.611  -1.257  -2.200  0.00  0.00    +0.000 NA
ATOM      4  C   UNL     1       2.899  -1.431  -2.456  0.00  0.00    +0.000 A 
ATOM      5  C   UNL     1       1.854  -0.963  -1.646  0.00  0.00    +0.000 A 
ATOM      6  C   UNL     1       0.910  -1.907  -3.286  0.00  0.00    +0.000 A 
ATOM      7  C   UNL     1       2.596  -2.725  -4.642  0.00  0.00    +0.000 A 
ATOM      8  C   UNL     1       1.512  -3.105  -5.342  0.00  0.00    +0.000 A 
ENDROOT
BRANCH   5  10
ATOM      9 CL   UNL     1       2.238   2.070   3.504  0.00  0.00    +0.000 Cl
ATOM     10  C   UNL     1       1.956  -0.254  -0.373  0.00  0.00    +0.000 A 
ATOM     11  C   UNL     1       3.009  -0.476   0.524  0.00  0.00    +0.000 A 
ATOM     12  C   UNL     1       0.956   0.662  -0.014  0.00  0.00    +0.000 A 
ATOM     13  C   UNL     1       3.106   0.250   1.715  0.00  0.00    +0.000 A 
ATOM     14  C   UNL     1       1.035   1.373   1.189  0.00  0.00    +0.000 A 
ATOM     15  C   UNL     1       2.118   1.175   2.040  0.00  0.00    +0.000 A 
ENDBRANCH   5  10
BRANCH   4  17
ATOM     16  N   UNL     1       4.878  -0.276  -1.846  0.00  0.00    +0.000 NA
ATOM     17  C   UNL     1       4.324  -1.320  -2.367  0.00  0.00    +0.000 C 
BRANCH  16  18
ATOM     18  O   UNL     1       6.271  -0.430  -1.861  0.00  0.00    +0.000 OA
BRANCH  18  19
ATOM     19  C   UNL     1       6.869   0.838  -1.575  0.00  0.00    +0.000 C 
BRANCH  19  22
ATOM     20 CL   UNL     1       8.260   0.542   1.212  0.00  0.00    +0.000 Cl
ATOM     21 CL   UNL     1       8.373   0.763  -4.285  0.00  0.00    +0.000 Cl
ATOM     22  C   UNL     1       8.364   0.658  -1.536  0.00  0.00    +0.000 A 
ATOM     23  C   UNL     1       9.058   0.496  -0.323  0.00  0.00    +0.000 A 
ATOM     24  C   UNL     1       9.110   0.588  -2.728  0.00  0.00    +0.000 A 
ATOM     25  C   UNL     1      10.442   0.281  -0.305  0.00  0.00    +0.000 A 
ATOM     26  C   UNL     1      10.493   0.368  -2.706  0.00  0.00    +0.000 A 
ATOM     27  C   UNL     1      11.159   0.212  -1.496  0.00  0.00    +0.000 A 
ENDBRANCH  19  22
ENDBRANCH  18  19
ENDBRANCH  16  18
ENDBRANCH   4  17
TORSDOF 5
