REMARK  Name = 5901311
REMARK  6 active torsions:
REMARK  status: ('A' for Active; 'I' for Inactive)
REMARK    1  A    between atoms: O_4  and  N_7
REMARK    2  A    between atoms: O_4  and  C_22
REMARK    3  A    between atoms: C_8  and  C_10
REMARK    4  A    between atoms: C_9  and  C_15
REMARK    5  A    between atoms: C_16  and  C_20
REMARK    6  A    between atoms: C_21  and  C_22
REMARK                            x       y       z     vdW  Elec       q    Type
REMARK                         _______ _______ _______ _____ _____    ______ ____
ROOT
ATOM      1  S   UNL     1      -3.784  -2.417  -8.374  0.00  0.00    +0.000 S 
ATOM      2  N   UNL     1      -3.358  -2.931  -5.896  0.00  0.00    +0.000 N 
ATOM      3  N   UNL     1      -1.962  -1.312  -6.540  0.00  0.00    +0.000 NA
ATOM      4  C   UNL     1      -1.745  -1.641  -5.210  0.00  0.00    +0.000 A 
ATOM      5  C   UNL     1      -2.646  -2.615  -4.769  0.00  0.00    +0.000 A 
ATOM      6  C   UNL     1      -2.921  -2.119  -6.897  0.00  0.00    +0.000 A 
ATOM      7  C   UNL     1      -4.369  -3.802  -6.245  0.00  0.00    +0.000 A 
ATOM      8  C   UNL     1      -4.717  -3.667  -7.536  0.00  0.00    +0.000 A 
ENDROOT
BRANCH   4   9
ATOM      9  C   UNL     1      -0.666  -1.041  -4.433  0.00  0.00    +0.000 A 
ATOM     10  C   UNL     1      -0.233   0.257  -4.726  0.00  0.00    +0.000 A 
ATOM     11  C   UNL     1       0.000  -1.754  -3.425  0.00  0.00    +0.000 A 
ATOM     12  C   UNL     1       1.442   0.140  -2.967  0.00  0.00    +0.000 A 
ATOM     13  C   UNL     1       0.816   0.841  -4.004  0.00  0.00    +0.000 A 
ATOM     14  C   UNL     1       1.031  -1.166  -2.690  0.00  0.00    +0.000 A 
ATOM     15  C   UNL     1       2.596   0.734  -2.215  0.00  0.00    +0.000 C 
ENDBRANCH   4   9
BRANCH   5  17
ATOM     16  N   UNL     1      -3.211  -4.423  -3.357  0.00  0.00    +0.000 NA
ATOM     17  C   UNL     1      -2.830  -3.194  -3.472  0.00  0.00    +0.000 C 
BRANCH  16  18
ATOM     18  O   UNL     1      -3.246  -4.760  -1.993  0.00  0.00    +0.000 OA
BRANCH  18  19
ATOM     19  C   UNL     1      -3.025  -6.170  -1.863  0.00  0.00    +0.000 C 
BRANCH  19  22
ATOM     20 CL   UNL     1      -2.393  -9.132  -1.269  0.00  0.00    +0.000 Cl
ATOM     21 CL   UNL     1      -3.054  -7.935   3.915  0.00  0.00    +0.000 Cl
ATOM     22  C   UNL     1      -3.104  -6.624  -0.421  0.00  0.00    +0.000 A 
ATOM     23  C   UNL     1      -2.793  -7.951  -0.071  0.00  0.00    +0.000 A 
ATOM     24  C   UNL     1      -3.465  -5.735   0.606  0.00  0.00    +0.000 A 
ATOM     25  C   UNL     1      -2.790  -8.361   1.265  0.00  0.00    +0.000 A 
ATOM     26  C   UNL     1      -3.464  -6.144   1.942  0.00  0.00    +0.000 A 
ATOM     27  C   UNL     1      -3.110  -7.450   2.266  0.00  0.00    +0.000 A 
ENDBRANCH  19  22
ENDBRANCH  18  19
ENDBRANCH  16  18
ENDBRANCH   5  17
TORSDOF 5
