REMARK  Name = 5930771
REMARK  7 active torsions:
REMARK  status: ('A' for Active; 'I' for Inactive)
REMARK    1  A    between atoms: S_3  and  C_10
REMARK    2  A    between atoms: S_3  and  C_13
REMARK    3  A    between atoms: O_5  and  N_8
REMARK    4  A    between atoms: O_5  and  C_20
REMARK    5  A    between atoms: C_9  and  C_15
REMARK    6  A    between atoms: C_13  and  C_14
REMARK    7  A    between atoms: C_17  and  C_20
REMARK                            x       y       z     vdW  Elec       q    Type
REMARK                         _______ _______ _______ _____ _____    ______ ____
ROOT
ATOM      1  S   UNL     1      -4.479   2.115  -8.357  0.00  0.00    +0.000 S 
ATOM      2  N   UNL     1      -4.761   1.536  -5.873  0.00  0.00    +0.000 N 
ATOM      3  N   UNL     1      -2.657   1.072  -6.482  0.00  0.00    +0.000 NA
ATOM      4  C   UNL     1      -4.160   1.061  -4.738  0.00  0.00    +0.000 A 
ATOM      5  C   UNL     1      -2.868   0.745  -5.155  0.00  0.00    +0.000 A 
ATOM      6  C   UNL     1      -3.818   1.538  -6.857  0.00  0.00    +0.000 A 
ATOM      7  C   UNL     1      -6.018   1.955  -6.259  0.00  0.00    +0.000 A 
ATOM      8  C   UNL     1      -6.052   2.299  -7.559  0.00  0.00    +0.000 A 
ENDROOT
BRANCH   4  10
ATOM      9  N   UNL     1      -5.740   1.734  -3.127  0.00  0.00    +0.000 NA
ATOM     10  C   UNL     1      -4.754   0.960  -3.438  0.00  0.00    +0.000 C 
BRANCH   9  11
ATOM     11  O   UNL     1      -6.083   1.552  -1.773  0.00  0.00    +0.000 OA
BRANCH  11  12
ATOM     12  C   UNL     1      -6.628   2.786  -1.297  0.00  0.00    +0.000 C 
BRANCH  12  15
ATOM     13 CL   UNL     1      -9.779   0.623   2.233  0.00  0.00    +0.000 Cl
ATOM     14 CL   UNL     1      -8.413   2.545   4.476  0.00  0.00    +0.000 Cl
ATOM     15  C   UNL     1      -7.045   2.672   0.148  0.00  0.00    +0.000 A 
ATOM     16  C   UNL     1      -8.067   1.788   0.526  0.00  0.00    +0.000 A 
ATOM     17  C   UNL     1      -6.459   3.487   1.126  0.00  0.00    +0.000 A 
ATOM     18  C   UNL     1      -8.503   1.726   1.856  0.00  0.00    +0.000 A 
ATOM     19  C   UNL     1      -6.892   3.427   2.454  0.00  0.00    +0.000 A 
ATOM     20  C   UNL     1      -7.916   2.551   2.821  0.00  0.00    +0.000 A 
ENDBRANCH  12  15
ENDBRANCH  11  12
ENDBRANCH   9  11
ENDBRANCH   4  10
BRANCH   5  21
ATOM     21  S   UNL     1      -1.635   0.009  -4.152  0.00  0.00    +0.000 S 
BRANCH  21  22
ATOM     22  C   UNL     1      -0.097   0.647  -4.881  0.00  0.00    +0.000 C 
BRANCH  22  23
ATOM     23  C   UNL     1       1.120   0.065  -4.190  0.00  0.00    +0.000 A 
ATOM     24  C   UNL     1       1.687  -1.138  -4.641  0.00  0.00    +0.000 A 
ATOM     25  C   UNL     1       1.690   0.697  -3.073  0.00  0.00    +0.000 A 
ATOM     26  C   UNL     1       2.803  -1.686  -4.000  0.00  0.00    +0.000 A 
ATOM     27  C   UNL     1       2.807   0.149  -2.435  0.00  0.00    +0.000 A 
ATOM     28  C   UNL     1       3.363  -1.042  -2.899  0.00  0.00    +0.000 A 
ENDBRANCH  22  23
ENDBRANCH  21  22
ENDBRANCH   5  21
TORSDOF 7
