REMARK  Name = 6062654
REMARK  5 active torsions:
REMARK  status: ('A' for Active; 'I' for Inactive)
REMARK    1  A    between atoms: O_4  and  N_7
REMARK    2  A    between atoms: O_4  and  C_20
REMARK    3  A    between atoms: C_8  and  C_13
REMARK    4  A    between atoms: C_9  and  C_11
REMARK    5  A    between atoms: C_17  and  C_20
REMARK                            x       y       z     vdW  Elec       q    Type
REMARK                         _______ _______ _______ _____ _____    ______ ____
ROOT
ATOM      1  S   UNL     1      -1.944  -8.357  -4.156  0.00  0.00    +0.000 S 
ATOM      2  N   UNL     1      -2.211  -5.803  -4.014  0.00  0.00    +0.000 N 
ATOM      3  N   UNL     1      -3.547  -6.753  -2.498  0.00  0.00    +0.000 NA
ATOM      4  C   UNL     1      -2.775  -4.744  -3.342  0.00  0.00    +0.000 A 
ATOM      5  C   UNL     1      -3.641  -5.371  -2.438  0.00  0.00    +0.000 A 
ATOM      6  C   UNL     1      -2.639  -6.948  -3.412  0.00  0.00    +0.000 A 
ATOM      7  C   UNL     1      -1.400  -6.004  -5.112  0.00  0.00    +0.000 A 
ATOM      8  C   UNL     1      -1.120  -7.301  -5.309  0.00  0.00    +0.000 A 
ENDROOT
BRANCH   5   9
ATOM      9  C   UNL     1      -4.604  -4.705  -1.568  0.00  0.00    +0.000 A 
ATOM     10  C   UNL     1      -4.304  -3.498  -0.923  0.00  0.00    +0.000 A 
ATOM     11  C   UNL     1      -5.881  -5.259  -1.404  0.00  0.00    +0.000 A 
ATOM     12  C   UNL     1      -5.288  -2.809  -0.211  0.00  0.00    +0.000 A 
ATOM     13  C   UNL     1      -6.860  -4.579  -0.674  0.00  0.00    +0.000 A 
ATOM     14  C   UNL     1      -6.569  -3.343  -0.099  0.00  0.00    +0.000 A 
ENDBRANCH   5   9
BRANCH   4  16
ATOM     15  N   UNL     1      -1.515  -2.724  -4.005  0.00  0.00    +0.000 NA
ATOM     16  C   UNL     1      -2.586  -3.340  -3.597  0.00  0.00    +0.000 C 
BRANCH  15  17
ATOM     17  O   UNL     1      -0.399  -3.567  -4.081  0.00  0.00    +0.000 OA
BRANCH  17  18
ATOM     18  C   UNL     1       0.519  -3.061  -5.054  0.00  0.00    +0.000 C 
BRANCH  18  21
ATOM     19 CL   UNL     1       2.981  -4.913  -4.455  0.00  0.00    +0.000 Cl
ATOM     20 CL   UNL     1       5.063  -0.656  -1.949  0.00  0.00    +0.000 Cl
ATOM     21  C   UNL     1       1.703  -2.490  -4.338  0.00  0.00    +0.000 A 
ATOM     22  C   UNL     1       2.835  -3.249  -4.004  0.00  0.00    +0.000 A 
ATOM     23  C   UNL     1       1.634  -1.148  -3.923  0.00  0.00    +0.000 A 
ATOM     24  C   UNL     1       3.877  -2.677  -3.277  0.00  0.00    +0.000 A 
ATOM     25  C   UNL     1       2.673  -0.583  -3.191  0.00  0.00    +0.000 A 
ATOM     26  C   UNL     1       3.788  -1.346  -2.875  0.00  0.00    +0.000 A 
ENDBRANCH  18  21
ENDBRANCH  17  18
ENDBRANCH  15  17
ENDBRANCH   4  16
TORSDOF 5
