REMARK  Name = 6066662
REMARK  6 active torsions:
REMARK  status: ('A' for Active; 'I' for Inactive)
REMARK    1  A    between atoms: O_3  and  N_6
REMARK    2  A    between atoms: O_3  and  C_21
REMARK    3  A    between atoms: C_7  and  C_9
REMARK    4  A    between atoms: C_8  and  C_14
REMARK    5  A    between atoms: C_15  and  C_19
REMARK    6  A    between atoms: C_20  and  C_21
REMARK                            x       y       z     vdW  Elec       q    Type
REMARK                         _______ _______ _______ _____ _____    ______ ____
ROOT
ATOM      1  S   UNL     1       4.983   0.558   8.413  0.00  0.00    +0.000 S 
ATOM      2  N   UNL     1       4.848  -0.136   5.942  0.00  0.00    +0.000 N 
ATOM      3  N   UNL     1       2.839   0.579   6.603  0.00  0.00    +0.000 NA
ATOM      4  C   UNL     1       2.798   0.171   5.275  0.00  0.00    +0.000 A 
ATOM      5  C   UNL     1       4.055  -0.243   4.825  0.00  0.00    +0.000 A 
ATOM      6  C   UNL     1       4.075   0.361   6.946  0.00  0.00    +0.000 A 
ATOM      7  C   UNL     1       6.165  -0.368   6.282  0.00  0.00    +0.000 A 
ATOM      8  C   UNL     1       6.411  -0.055   7.566  0.00  0.00    +0.000 A 
ENDROOT
BRANCH   4   9
ATOM      9  C   UNL     1       1.540   0.156   4.537  0.00  0.00    +0.000 A 
ATOM     10  C   UNL     1       0.551   1.094   4.857  0.00  0.00    +0.000 A 
ATOM     11  C   UNL     1       1.250  -0.819   3.574  0.00  0.00    +0.000 A 
ATOM     12  C   UNL     1      -0.977   0.096   3.257  0.00  0.00    +0.000 A 
ATOM     13  C   UNL     1      -0.697   1.064   4.227  0.00  0.00    +0.000 A 
ATOM     14  C   UNL     1       0.007  -0.843   2.934  0.00  0.00    +0.000 A 
ATOM     15  C   UNL     1      -2.337   0.003   2.633  0.00  0.00    +0.000 C 
ENDBRANCH   4   9
BRANCH   5  17
ATOM     16  N   UNL     1       5.455  -1.521   3.409  0.00  0.00    +0.000 NA
ATOM     17  C   UNL     1       4.477  -0.684   3.532  0.00  0.00    +0.000 C 
BRANCH  16  18
ATOM     18  O   UNL     1       5.619  -1.837   2.049  0.00  0.00    +0.000 OA
BRANCH  18  19
ATOM     19  C   UNL     1       6.215  -3.134   1.957  0.00  0.00    +0.000 C 
BRANCH  19  21
ATOM     20 CL   UNL     1       8.032  -4.611  -3.601  0.00  0.00    +0.000 Cl
ATOM     21  C   UNL     1       6.596  -3.472   0.536  0.00  0.00    +0.000 A 
ATOM     22  C   UNL     1       6.570  -4.811   0.112  0.00  0.00    +0.000 A 
ATOM     23  C   UNL     1       7.068  -2.492  -0.350  0.00  0.00    +0.000 A 
ATOM     24  C   UNL     1       7.002  -5.161  -1.169  0.00  0.00    +0.000 A 
ATOM     25  C   UNL     1       7.499  -2.842  -1.633  0.00  0.00    +0.000 A 
ATOM     26  C   UNL     1       7.470  -4.176  -2.034  0.00  0.00    +0.000 A 
ENDBRANCH  19  21
ENDBRANCH  18  19
ENDBRANCH  16  18
ENDBRANCH   5  17
TORSDOF 5
