REMARK  Name = 9600409
REMARK  5 active torsions:
REMARK  status: ('A' for Active; 'I' for Inactive)
REMARK    1  A    between atoms: O_5  and  N_8
REMARK    2  A    between atoms: O_5  and  C_21
REMARK    3  A    between atoms: C_9  and  C_14
REMARK    4  A    between atoms: C_10  and  C_12
REMARK    5  A    between atoms: C_20  and  C_21
REMARK                            x       y       z     vdW  Elec       q    Type
REMARK                         _______ _______ _______ _____ _____    ______ ____
ROOT
ATOM      1  S   UNL     1       0.017  -2.641  -4.609  0.00  0.00    +0.000 S 
ATOM      2  N   UNL     1       2.272  -1.988  -3.562  0.00  0.00    +0.000 N 
ATOM      3  N   UNL     1       0.623  -1.305  -2.217  0.00  0.00    +0.000 NA
ATOM      4  C   UNL     1       2.910  -1.424  -2.485  0.00  0.00    +0.000 A 
ATOM      5  C   UNL     1       1.857  -0.966  -1.685  0.00  0.00    +0.000 A 
ATOM      6  C   UNL     1       0.932  -1.900  -3.332  0.00  0.00    +0.000 A 
ATOM      7  C   UNL     1       2.621  -2.629  -4.732  0.00  0.00    +0.000 A 
ATOM      8  C   UNL     1       1.540  -3.042  -5.417  0.00  0.00    +0.000 A 
ENDROOT
BRANCH   5  10
ATOM      9 CL   UNL     1       2.211   2.038   3.477  0.00  0.00    +0.000 Cl
ATOM     10  C   UNL     1       1.963  -0.224  -0.436  0.00  0.00    +0.000 A 
ATOM     11  C   UNL     1       0.998  -0.418   0.563  0.00  0.00    +0.000 A 
ATOM     12  C   UNL     1       2.981   0.717  -0.216  0.00  0.00    +0.000 A 
ATOM     13  C   UNL     1       1.071   0.282   1.773  0.00  0.00    +0.000 A 
ATOM     14  C   UNL     1       3.062   1.408   0.997  0.00  0.00    +0.000 A 
ATOM     15  C   UNL     1       2.109   1.184   1.988  0.00  0.00    +0.000 A 
ENDBRANCH   5  10
BRANCH   4  17
ATOM     16  N   UNL     1       5.169  -1.332  -3.239  0.00  0.00    +0.000 NA
ATOM     17  C   UNL     1       4.324  -1.379  -2.260  0.00  0.00    +0.000 C 
BRANCH  16  18
ATOM     18  O   UNL     1       6.467  -1.266  -2.698  0.00  0.00    +0.000 OA
BRANCH  18  19
ATOM     19  C   UNL     1       7.340  -0.639  -3.641  0.00  0.00    +0.000 C 
BRANCH  19  22
ATOM     20 CL   UNL     1      11.565   1.924  -1.989  0.00  0.00    +0.000 Cl
ATOM     21 CL   UNL     1      13.005  -0.958  -1.535  0.00  0.00    +0.000 Cl
ATOM     22  C   UNL     1       8.753  -0.694  -3.114  0.00  0.00    +0.000 A 
ATOM     23  C   UNL     1       9.458   0.482  -2.814  0.00  0.00    +0.000 A 
ATOM     24  C   UNL     1       9.391  -1.929  -2.923  0.00  0.00    +0.000 A 
ATOM     25  C   UNL     1      10.771   0.427  -2.328  0.00  0.00    +0.000 A 
ATOM     26  C   UNL     1      10.699  -1.987  -2.437  0.00  0.00    +0.000 A 
ATOM     27  C   UNL     1      11.392  -0.811  -2.137  0.00  0.00    +0.000 A 
ENDBRANCH  19  22
ENDBRANCH  18  19
ENDBRANCH  16  18
ENDBRANCH   4  17
TORSDOF 5
