REMARK  Name = 9619281
REMARK  5 active torsions:
REMARK  status: ('A' for Active; 'I' for Inactive)
REMARK    1  A    between atoms: O_4  and  N_8
REMARK    2  A    between atoms: O_4  and  C_24
REMARK    3  A    between atoms: C_9  and  C_14
REMARK    4  A    between atoms: C_10  and  C_12
REMARK    5  A    between atoms: C_21  and  C_24
REMARK                            x       y       z     vdW  Elec       q    Type
REMARK                         _______ _______ _______ _____ _____    ______ ____
ROOT
ATOM      1  S   UNL     1      -7.473  -6.122  -0.998  0.00  0.00    +0.000 S 
ATOM      2  N   UNL     1      -6.949  -3.637  -0.602  0.00  0.00    +0.000 N 
ATOM      3  N   UNL     1      -5.737  -4.861   0.814  0.00  0.00    +0.000 NA
ATOM      4  C   UNL     1      -6.232  -2.715   0.125  0.00  0.00    +0.000 A 
ATOM      5  C   UNL     1      -5.465  -3.511   0.988  0.00  0.00    +0.000 A 
ATOM      6  C   UNL     1      -6.605  -4.878  -0.154  0.00  0.00    +0.000 A 
ATOM      7  C   UNL     1      -7.908  -3.623  -1.595  0.00  0.00    +0.000 A 
ATOM      8  C   UNL     1      -8.297  -4.864  -1.932  0.00  0.00    +0.000 A 
ENDROOT
BRANCH   5   9
ATOM      9  C   UNL     1      -4.489  -3.065   1.975  0.00  0.00    +0.000 A 
ATOM     10  C   UNL     1      -3.760  -1.881   1.818  0.00  0.00    +0.000 A 
ATOM     11  C   UNL     1      -4.239  -3.854   3.108  0.00  0.00    +0.000 A 
ATOM     12  C   UNL     1      -2.874  -1.447   2.807  0.00  0.00    +0.000 A 
ATOM     13  C   UNL     1      -3.335  -3.434   4.088  0.00  0.00    +0.000 A 
ATOM     14  C   UNL     1      -2.668  -2.219   3.947  0.00  0.00    +0.000 A 
ENDBRANCH   5   9
BRANCH   4  16
ATOM     15  N   UNL     1      -6.663  -0.810  -1.189  0.00  0.00    +0.000 NA
ATOM     16  C   UNL     1      -6.322  -1.290  -0.040  0.00  0.00    +0.000 C 
BRANCH  15  17
ATOM     17  O   UNL     1      -6.650   0.602  -1.201  0.00  0.00    +0.000 OA
BRANCH  17  19
ATOM     18  O   UNL     1      -7.022   0.306  -3.474  0.00  0.00    +0.000 OA
ATOM     19  C   UNL     1      -6.877   1.021  -2.489  0.00  0.00    +0.000 C 
BRANCH  19  22
ATOM     20 CL   UNL     1      -6.797   5.766  -0.294  0.00  0.00    +0.000 Cl
ATOM     21 CL   UNL     1      -7.245   6.990  -3.271  0.00  0.00    +0.000 Cl
ATOM     22  C   UNL     1      -6.945   2.507  -2.601  0.00  0.00    +0.000 A 
ATOM     23  C   UNL     1      -6.837   3.371  -1.505  0.00  0.00    +0.000 A 
ATOM     24  C   UNL     1      -7.142   3.051  -3.882  0.00  0.00    +0.000 A 
ATOM     25  C   UNL     1      -6.929   4.760  -1.693  0.00  0.00    +0.000 A 
ATOM     26  C   UNL     1      -7.231   4.434  -4.069  0.00  0.00    +0.000 A 
ATOM     27  C   UNL     1      -7.125   5.293  -2.974  0.00  0.00    +0.000 A 
ENDBRANCH  19  22
ENDBRANCH  17  19
ENDBRANCH  15  17
ENDBRANCH   4  16
TORSDOF 5
