REMARK  Name = 9623088
REMARK  7 active torsions:
REMARK  status: ('A' for Active; 'I' for Inactive)
REMARK    1  A    between atoms: S_4  and  C_11
REMARK    2  A    between atoms: S_4  and  C_14
REMARK    3  A    between atoms: O_5  and  N_8
REMARK    4  A    between atoms: O_5  and  C_20
REMARK    5  A    between atoms: C_9  and  C_13
REMARK    6  A    between atoms: C_16  and  C_25
REMARK    7  A    between atoms: C_19  and  C_20
REMARK                            x       y       z     vdW  Elec       q    Type
REMARK                         _______ _______ _______ _____ _____    ______ ____
ROOT
ATOM      1  S   UNL     1      -4.489   2.077  -8.396  0.00  0.00    +0.000 S 
ATOM      2  N   UNL     1      -4.713   1.570  -5.890  0.00  0.00    +0.000 N 
ATOM      3  N   UNL     1      -2.634   1.082  -6.538  0.00  0.00    +0.000 NA
ATOM      4  C   UNL     1      -4.107   1.080  -4.763  0.00  0.00    +0.000 A 
ATOM      5  C   UNL     1      -3.796   1.545  -6.896  0.00  0.00    +0.000 A 
ATOM      6  C   UNL     1      -2.814   0.781  -5.198  0.00  0.00    +0.000 A 
ATOM      7  C   UNL     1      -5.974   1.997  -6.255  0.00  0.00    +0.000 A 
ATOM      8  C   UNL     1      -6.035   2.305  -7.562  0.00  0.00    +0.000 A 
ENDROOT
BRANCH   4  10
ATOM      9  N   UNL     1      -4.336  -0.017  -2.686  0.00  0.00    +0.000 NA
ATOM     10  C   UNL     1      -4.758   0.888  -3.503  0.00  0.00    +0.000 C 
BRANCH   9  11
ATOM     11  O   UNL     1      -5.171  -0.088  -1.563  0.00  0.00    +0.000 OA
BRANCH  11  12
ATOM     12  C   UNL     1      -4.996  -1.386  -0.988  0.00  0.00    +0.000 C 
BRANCH  12  15
ATOM     13 CL   UNL     1      -9.007  -3.612   1.456  0.00  0.00    +0.000 Cl
ATOM     14 CL   UNL     1      -8.237  -1.859   4.087  0.00  0.00    +0.000 Cl
ATOM     15  C   UNL     1      -5.824  -1.505   0.263  0.00  0.00    +0.000 A 
ATOM     16  C   UNL     1      -6.920  -2.378   0.311  0.00  0.00    +0.000 A 
ATOM     17  C   UNL     1      -5.500  -0.755   1.401  0.00  0.00    +0.000 A 
ATOM     18  C   UNL     1      -7.679  -2.506   1.479  0.00  0.00    +0.000 A 
ATOM     19  C   UNL     1      -6.256  -0.881   2.569  0.00  0.00    +0.000 A 
ATOM     20  C   UNL     1      -7.346  -1.755   2.611  0.00  0.00    +0.000 A 
ENDBRANCH  12  15
ENDBRANCH  11  12
ENDBRANCH   9  11
ENDBRANCH   4  10
BRANCH   6  21
ATOM     21  S   UNL     1      -1.547   0.021  -4.252  0.00  0.00    +0.000 S 
BRANCH  21  22
ATOM     22  C   UNL     1      -0.206   1.186  -4.348  0.00  0.00    +0.000 A 
ATOM     23  C   UNL     1       2.045   2.879  -4.422  0.00  0.00    +0.000 A 
ATOM     24  C   UNL     1       0.250   1.813  -3.183  0.00  0.00    +0.000 A 
ATOM     25  C   UNL     1       0.468   1.416  -5.549  0.00  0.00    +0.000 A 
ATOM     26  C   UNL     1       1.366   2.658  -3.219  0.00  0.00    +0.000 A 
ATOM     27  C   UNL     1       1.582   2.257  -5.588  0.00  0.00    +0.000 A 
ATOM     28  C   UNL     1       3.260   3.757  -4.476  0.00  0.00    +0.000 C 
ENDBRANCH  21  22
ENDBRANCH   6  21
TORSDOF 6
