REMARK  Name = 9628525
REMARK  5 active torsions:
REMARK  status: ('A' for Active; 'I' for Inactive)
REMARK    1  A    between atoms: O_5  and  N_8
REMARK    2  A    between atoms: O_5  and  C_21
REMARK    3  A    between atoms: C_9  and  C_14
REMARK    4  A    between atoms: C_10  and  C_12
REMARK    5  A    between atoms: C_20  and  C_21
REMARK                            x       y       z     vdW  Elec       q    Type
REMARK                         _______ _______ _______ _____ _____    ______ ____
ROOT
ATOM      1  S   UNL     1      -0.022  -2.622  -4.570  0.00  0.00    +0.000 S 
ATOM      2  N   UNL     1       2.234  -2.050  -3.488  0.00  0.00    +0.000 N 
ATOM      3  N   UNL     1       0.600  -1.256  -2.196  0.00  0.00    +0.000 NA
ATOM      4  C   UNL     1       2.887  -1.431  -2.452  0.00  0.00    +0.000 A 
ATOM      5  C   UNL     1       1.844  -0.962  -1.642  0.00  0.00    +0.000 A 
ATOM      6  C   UNL     1       0.897  -1.902  -3.285  0.00  0.00    +0.000 A 
ATOM      7  C   UNL     1       2.582  -2.717  -4.645  0.00  0.00    +0.000 A 
ATOM      8  C   UNL     1       1.499  -3.096  -5.345  0.00  0.00    +0.000 A 
ENDROOT
BRANCH   5  10
ATOM      9 CL   UNL     1       2.240   2.067   3.508  0.00  0.00    +0.000 Cl
ATOM     10  C   UNL     1       1.948  -0.255  -0.370  0.00  0.00    +0.000 A 
ATOM     11  C   UNL     1       3.004  -0.477   0.526  0.00  0.00    +0.000 A 
ATOM     12  C   UNL     1       0.948   0.656  -0.007  0.00  0.00    +0.000 A 
ATOM     13  C   UNL     1       3.101   0.247   1.717  0.00  0.00    +0.000 A 
ATOM     14  C   UNL     1       1.029   1.371   1.195  0.00  0.00    +0.000 A 
ATOM     15  C   UNL     1       2.114   1.170   2.046  0.00  0.00    +0.000 A 
ENDBRANCH   5  10
BRANCH   4  17
ATOM     16  N   UNL     1       4.870  -0.282  -1.842  0.00  0.00    +0.000 NA
ATOM     17  C   UNL     1       4.314  -1.324  -2.363  0.00  0.00    +0.000 C 
BRANCH  16  18
ATOM     18  O   UNL     1       6.264  -0.441  -1.854  0.00  0.00    +0.000 OA
BRANCH  18  19
ATOM     19  C   UNL     1       6.864   0.827  -1.569  0.00  0.00    +0.000 C 
BRANCH  19  22
ATOM     20 CL   UNL     1       8.249   0.528   1.221  0.00  0.00    +0.000 Cl
ATOM     21 CL   UNL     1       8.377   0.766  -4.275  0.00  0.00    +0.000 Cl
ATOM     22  C   UNL     1       8.359   0.647  -1.527  0.00  0.00    +0.000 A 
ATOM     23  C   UNL     1       9.049   0.482  -0.312  0.00  0.00    +0.000 A 
ATOM     24  C   UNL     1       9.109   0.581  -2.717  0.00  0.00    +0.000 A 
ATOM     25  C   UNL     1      10.434   0.265  -0.291  0.00  0.00    +0.000 A 
ATOM     26  C   UNL     1      10.491   0.358  -2.692  0.00  0.00    +0.000 A 
ATOM     27  C   UNL     1      11.154   0.198  -1.480  0.00  0.00    +0.000 A 
ENDBRANCH  19  22
ENDBRANCH  18  19
ENDBRANCH  16  18
ENDBRANCH   4  17
TORSDOF 5
