REMARK  Name = 9637109
REMARK  6 active torsions:
REMARK  status: ('A' for Active; 'I' for Inactive)
REMARK    1  A    between atoms: O_4  and  N_7
REMARK    2  A    between atoms: O_4  and  C_22
REMARK    3  A    between atoms: C_8  and  C_10
REMARK    4  A    between atoms: C_9  and  C_15
REMARK    5  A    between atoms: C_16  and  C_20
REMARK    6  A    between atoms: C_21  and  C_22
REMARK                            x       y       z     vdW  Elec       q    Type
REMARK                         _______ _______ _______ _____ _____    ______ ____
ROOT
ATOM      1  S   UNL     1      -0.392   3.398   8.415  0.00  0.00    +0.000 S 
ATOM      2  N   UNL     1       0.241   3.192   5.936  0.00  0.00    +0.000 N 
ATOM      3  N   UNL     1      -0.710   1.285   6.596  0.00  0.00    +0.000 NA
ATOM      4  C   UNL     1      -0.336   1.207   5.257  0.00  0.00    +0.000 A 
ATOM      5  C   UNL     1       0.271   2.394   4.824  0.00  0.00    +0.000 A 
ATOM      6  C   UNL     1      -0.346   2.485   6.939  0.00  0.00    +0.000 A 
ATOM      7  C   UNL     1       0.684   4.451   6.287  0.00  0.00    +0.000 A 
ATOM      8  C   UNL     1       0.429   4.725   7.577  0.00  0.00    +0.000 A 
ENDROOT
BRANCH   4   9
ATOM      9  C   UNL     1      -0.586  -0.003   4.475  0.00  0.00    +0.000 A 
ATOM     10  C   UNL     1      -0.870   0.030   3.104  0.00  0.00    +0.000 A 
ATOM     11  C   UNL     1      -0.566  -1.249   5.115  0.00  0.00    +0.000 A 
ATOM     12  C   UNL     1      -1.020  -2.390   3.018  0.00  0.00    +0.000 A 
ATOM     13  C   UNL     1      -1.064  -1.150   2.378  0.00  0.00    +0.000 A 
ATOM     14  C   UNL     1      -0.786  -2.430   4.397  0.00  0.00    +0.000 A 
ATOM     15  C   UNL     1      -1.287  -3.651   2.253  0.00  0.00    +0.000 C 
ENDBRANCH   4   9
BRANCH   5  17
ATOM     16  N   UNL     1       1.447   1.888   2.844  0.00  0.00    +0.000 NA
ATOM     17  C   UNL     1       0.865   2.775   3.578  0.00  0.00    +0.000 C 
BRANCH  16  18
ATOM     18  O   UNL     1       1.908   2.468   1.657  0.00  0.00    +0.000 OA
BRANCH  18  19
ATOM     19  C   UNL     1       2.851   1.562   1.075  0.00  0.00    +0.000 C 
BRANCH  19  22
ATOM     20 CL   UNL     1       4.146   4.437   1.014  0.00  0.00    +0.000 Cl
ATOM     21  F   UNL     1       2.808   0.069  -1.295  0.00  0.00    +0.000 F 
ATOM     22  C   UNL     1       3.380   2.107  -0.220  0.00  0.00    +0.000 A 
ATOM     23  C   UNL     1       3.976   3.370  -0.336  0.00  0.00    +0.000 A 
ATOM     24  C   UNL     1       3.339   1.299  -1.363  0.00  0.00    +0.000 A 
ATOM     25  C   UNL     1       4.486   3.809  -1.565  0.00  0.00    +0.000 A 
ATOM     26  C   UNL     1       3.852   1.724  -2.585  0.00  0.00    +0.000 A 
ATOM     27  C   UNL     1       4.425   2.987  -2.689  0.00  0.00    +0.000 A 
ENDBRANCH  19  22
ENDBRANCH  18  19
ENDBRANCH  16  18
ENDBRANCH   5  17
TORSDOF 5
