REMARK  Name = 9637254
REMARK  5 active torsions:
REMARK  status: ('A' for Active; 'I' for Inactive)
REMARK    1  A    between atoms: O_4  and  N_7
REMARK    2  A    between atoms: O_4  and  C_20
REMARK    3  A    between atoms: C_8  and  C_13
REMARK    4  A    between atoms: C_9  and  C_11
REMARK    5  A    between atoms: C_17  and  C_20
REMARK                            x       y       z     vdW  Elec       q    Type
REMARK                         _______ _______ _______ _____ _____    ______ ____
ROOT
ATOM      1  S   UNL     1      -0.620   3.359   8.340  0.00  0.00    +0.000 S 
ATOM      2  N   UNL     1       0.105   3.240   5.880  0.00  0.00    +0.000 N 
ATOM      3  N   UNL     1      -0.568   1.210   6.532  0.00  0.00    +0.000 NA
ATOM      4  C   UNL     1       0.227   2.457   4.760  0.00  0.00    +0.000 A 
ATOM      5  C   UNL     1      -0.159   1.187   5.204  0.00  0.00    +0.000 A 
ATOM      6  C   UNL     1      -0.379   2.451   6.880  0.00  0.00    +0.000 A 
ATOM      7  C   UNL     1       0.297   4.562   6.219  0.00  0.00    +0.000 A 
ATOM      8  C   UNL     1      -0.038   4.803   7.499  0.00  0.00    +0.000 A 
ENDROOT
BRANCH   5   9
ATOM      9  C   UNL     1      -0.155  -0.046   4.425  0.00  0.00    +0.000 A 
ATOM     10  C   UNL     1      -1.083  -1.053   4.720  0.00  0.00    +0.000 A 
ATOM     11  C   UNL     1       0.770  -0.271   3.394  0.00  0.00    +0.000 A 
ATOM     12  C   UNL     1      -1.121  -2.231   3.968  0.00  0.00    +0.000 A 
ATOM     13  C   UNL     1       0.720  -1.438   2.629  0.00  0.00    +0.000 A 
ATOM     14  C   UNL     1      -0.229  -2.415   2.912  0.00  0.00    +0.000 A 
ENDBRANCH   5   9
BRANCH   4  16
ATOM     15  N   UNL     1       1.497   3.868   3.343  0.00  0.00    +0.000 NA
ATOM     16  C   UNL     1       0.641   2.905   3.465  0.00  0.00    +0.000 C 
BRANCH  15  17
ATOM     17  O   UNL     1       1.772   4.069   1.978  0.00  0.00    +0.000 OA
BRANCH  17  18
ATOM     18  C   UNL     1       3.116   4.550   1.855  0.00  0.00    +0.000 C 
BRANCH  18  21
ATOM     19 CL   UNL     1       3.870   7.516   1.152  0.00  0.00    +0.000 Cl
ATOM     20 CL   UNL     1       3.037   2.250  -0.236  0.00  0.00    +0.000 Cl
ATOM     21  C   UNL     1       3.433   4.894   0.418  0.00  0.00    +0.000 A 
ATOM     22  C   UNL     1       3.793   6.199   0.032  0.00  0.00    +0.000 A 
ATOM     23  C   UNL     1       3.424   3.902  -0.583  0.00  0.00    +0.000 A 
ATOM     24  C   UNL     1       4.127   6.497  -1.297  0.00  0.00    +0.000 A 
ATOM     25  C   UNL     1       3.754   4.205  -1.911  0.00  0.00    +0.000 A 
ATOM     26  C   UNL     1       4.108   5.502  -2.268  0.00  0.00    +0.000 A 
ENDBRANCH  18  21
ENDBRANCH  17  18
ENDBRANCH  15  17
ENDBRANCH   4  16
TORSDOF 5
