REMARK  Name = 9637344
REMARK  7 active torsions:
REMARK  status: ('A' for Active; 'I' for Inactive)
REMARK    1  A    between atoms: S_3  and  C_10
REMARK    2  A    between atoms: S_3  and  C_13
REMARK    3  A    between atoms: O_5  and  N_8
REMARK    4  A    between atoms: O_5  and  C_20
REMARK    5  A    between atoms: C_9  and  C_15
REMARK    6  A    between atoms: C_13  and  C_14
REMARK    7  A    between atoms: C_17  and  C_20
REMARK                            x       y       z     vdW  Elec       q    Type
REMARK                         _______ _______ _______ _____ _____    ______ ____
ROOT
ATOM      1  S   UNL     1      -4.463   2.106  -8.359  0.00  0.00    +0.000 S 
ATOM      2  N   UNL     1      -4.753   1.534  -5.874  0.00  0.00    +0.000 N 
ATOM      3  N   UNL     1      -2.650   1.062  -6.475  0.00  0.00    +0.000 NA
ATOM      4  C   UNL     1      -4.158   1.060  -4.734  0.00  0.00    +0.000 A 
ATOM      5  C   UNL     1      -2.865   0.741  -5.151  0.00  0.00    +0.000 A 
ATOM      6  C   UNL     1      -3.808   1.530  -6.856  0.00  0.00    +0.000 A 
ATOM      7  C   UNL     1      -6.006   1.959  -6.264  0.00  0.00    +0.000 A 
ATOM      8  C   UNL     1      -6.036   2.298  -7.564  0.00  0.00    +0.000 A 
ENDROOT
BRANCH   4  10
ATOM      9  N   UNL     1      -5.738   1.739  -3.125  0.00  0.00    +0.000 NA
ATOM     10  C   UNL     1      -4.750   0.964  -3.436  0.00  0.00    +0.000 C 
BRANCH   9  11
ATOM     11  O   UNL     1      -6.077   1.557  -1.772  0.00  0.00    +0.000 OA
BRANCH  11  12
ATOM     12  C   UNL     1      -6.626   2.789  -1.295  0.00  0.00    +0.000 C 
BRANCH  12  15
ATOM     13 CL   UNL     1      -9.761   0.624   2.248  0.00  0.00    +0.000 Cl
ATOM     14 CL   UNL     1      -8.386   2.546   4.485  0.00  0.00    +0.000 Cl
ATOM     15  C   UNL     1      -7.037   2.673   0.151  0.00  0.00    +0.000 A 
ATOM     16  C   UNL     1      -8.056   1.788   0.534  0.00  0.00    +0.000 A 
ATOM     17  C   UNL     1      -6.446   3.488   1.127  0.00  0.00    +0.000 A 
ATOM     18  C   UNL     1      -8.486   1.727   1.865  0.00  0.00    +0.000 A 
ATOM     19  C   UNL     1      -6.873   3.428   2.456  0.00  0.00    +0.000 A 
ATOM     20  C   UNL     1      -7.895   2.551   2.828  0.00  0.00    +0.000 A 
ENDBRANCH  12  15
ENDBRANCH  11  12
ENDBRANCH   9  11
ENDBRANCH   4  10
BRANCH   5  21
ATOM     21  S   UNL     1      -1.633   0.009  -4.142  0.00  0.00    +0.000 S 
BRANCH  21  22
ATOM     22  C   UNL     1      -0.099   0.651  -4.874  0.00  0.00    +0.000 C 
BRANCH  22  23
ATOM     23  C   UNL     1       1.120   0.073  -4.183  0.00  0.00    +0.000 A 
ATOM     24  C   UNL     1       1.690  -1.128  -4.629  0.00  0.00    +0.000 A 
ATOM     25  C   UNL     1       1.686   0.709  -3.063  0.00  0.00    +0.000 A 
ATOM     26  C   UNL     1       2.802  -1.674  -3.987  0.00  0.00    +0.000 A 
ATOM     27  C   UNL     1       2.801   0.161  -2.423  0.00  0.00    +0.000 A 
ATOM     28  C   UNL     1       3.358  -1.028  -2.884  0.00  0.00    +0.000 A 
ENDBRANCH  22  23
ENDBRANCH  21  22
ENDBRANCH   5  21
TORSDOF 7
