MODEL 1
REMARK VINA RESULT:      -5.7      0.000      0.000
REMARK  Name = 130314408
REMARK  6 active torsions:
REMARK  status: ('A' for Active; 'I' for Inactive)
REMARK    1  A    between atoms: O_4  and  N_7
REMARK    2  A    between atoms: O_4  and  C_18
REMARK    3  A    between atoms: C_8  and  C_13
REMARK    4  A    between atoms: C_9  and  C_11
REMARK    5  A    between atoms: C_17  and  C_18
REMARK    6  A    between atoms: C_19  and  C_27
REMARK                            x       y       z     vdW  Elec       q    Type
REMARK                         _______ _______ _______ _____ _____    ______ ____
ROOT
ATOM      1  S   UNL     1       8.082  17.027  23.551  0.00  0.00    +0.000 S 
ATOM      2  N   UNL     1       5.647  16.215  23.413  0.00  0.00    +0.000 N 
ATOM      3  N   UNL     1       5.699  18.159  24.516  0.00  0.00    +0.000 NA
ATOM      4  C   UNL     1       4.335  16.487  23.699  0.00  0.00    +0.000 A 
ATOM      5  C   UNL     1       4.398  17.686  24.422  0.00  0.00    +0.000 A 
ATOM      6  C   UNL     1       6.394  17.241  23.911  0.00  0.00    +0.000 A 
ATOM      7  C   UNL     1       6.359  15.245  22.741  0.00  0.00    +0.000 A 
ATOM      8  C   UNL     1       7.676  15.517  22.719  0.00  0.00    +0.000 A 
ENDROOT
BRANCH   5  10
ATOM      9 CL   UNL     1      -0.481  20.223  26.760  0.00  0.00    +0.000 Cl
ATOM     10  C   UNL     1       3.266  18.401  24.997  0.00  0.00    +0.000 A 
ATOM     11  C   UNL     1       2.271  18.925  24.159  0.00  0.00    +0.000 A 
ATOM     12  C   UNL     1       3.129  18.563  26.384  0.00  0.00    +0.000 A 
ATOM     13  C   UNL     1       1.122  19.513  24.703  0.00  0.00    +0.000 A 
ATOM     14  C   UNL     1       1.972  19.124  26.929  0.00  0.00    +0.000 A 
ATOM     15  C   UNL     1       0.965  19.581  26.086  0.00  0.00    +0.000 A 
ENDBRANCH   5  10
BRANCH   4  17
ATOM     16  N   UNL     1       2.411  15.173  24.177  0.00  0.00    +0.000 NA
ATOM     17  C   UNL     1       3.197  15.711  23.303  0.00  0.00    +0.000 C 
BRANCH  16  18
ATOM     18  O   UNL     1       1.334  14.563  23.498  0.00  0.00    +0.000 OA
BRANCH  18  19
ATOM     19  C   UNL     1       1.464  14.833  22.097  0.00  0.00    +0.000 C 
BRANCH  19  21
ATOM     20 CL   UNL     1      -3.329  17.770  19.865  0.00  0.00    +0.000 Cl
ATOM     21  C   UNL     1       0.243  15.558  21.581  0.00  0.00    +0.000 A 
ATOM     22  C   UNL     1      -1.191  17.546  21.559  0.00  0.00    +0.000 A 
ATOM     23  C   UNL     1      -0.088  16.835  22.067  0.00  0.00    +0.000 A 
ATOM     24  C   UNL     1      -0.554  14.991  20.578  0.00  0.00    +0.000 A 
ATOM     25  C   UNL     1      -1.966  16.958  20.552  0.00  0.00    +0.000 A 
ATOM     26  C   UNL     1      -1.652  15.687  20.067  0.00  0.00    +0.000 A 
ATOM     27  C   UNL     1      -1.511  18.910  22.109  0.00  0.00    +0.000 C 
ENDBRANCH  19  21
ENDBRANCH  18  19
ENDBRANCH  16  18
ENDBRANCH   4  17
TORSDOF 5
ENDMDL
MODEL 2
REMARK VINA RESULT:      -5.5      3.352      4.451
REMARK  Name = 130314408
REMARK  6 active torsions:
REMARK  status: ('A' for Active; 'I' for Inactive)
REMARK    1  A    between atoms: O_4  and  N_7
REMARK    2  A    between atoms: O_4  and  C_18
REMARK    3  A    between atoms: C_8  and  C_13
REMARK    4  A    between atoms: C_9  and  C_11
REMARK    5  A    between atoms: C_17  and  C_18
REMARK    6  A    between atoms: C_19  and  C_27
REMARK                            x       y       z     vdW  Elec       q    Type
REMARK                         _______ _______ _______ _____ _____    ______ ____
ROOT
ATOM      1  S   UNL     1      11.357  15.689  23.401  0.00  0.00    +0.000 S 
ATOM      2  N   UNL     1       9.246  15.180  22.028  0.00  0.00    +0.000 N 
ATOM      3  N   UNL     1       8.666  16.374  23.827  0.00  0.00    +0.000 NA
ATOM      4  C   UNL     1       7.893  15.362  21.903  0.00  0.00    +0.000 A 
ATOM      5  C   UNL     1       7.550  16.076  23.059  0.00  0.00    +0.000 A 
ATOM      6  C   UNL     1       9.637  15.808  23.172  0.00  0.00    +0.000 A 
ATOM      7  C   UNL     1      10.262  14.598  21.301  0.00  0.00    +0.000 A 
ATOM      8  C   UNL     1      11.458  14.771  21.890  0.00  0.00    +0.000 A 
ENDROOT
BRANCH   5  10
ATOM      9 CL   UNL     1       2.104  17.591  24.997  0.00  0.00    +0.000 Cl
ATOM     10  C   UNL     1       6.209  16.503  23.436  0.00  0.00    +0.000 A 
ATOM     11  C   UNL     1       5.112  15.664  23.192  0.00  0.00    +0.000 A 
ATOM     12  C   UNL     1       5.981  17.737  24.065  0.00  0.00    +0.000 A 
ATOM     13  C   UNL     1       3.836  16.011  23.652  0.00  0.00    +0.000 A 
ATOM     14  C   UNL     1       4.715  18.073  24.548  0.00  0.00    +0.000 A 
ATOM     15  C   UNL     1       3.650  17.199  24.355  0.00  0.00    +0.000 A 
ENDBRANCH   5  10
BRANCH   4  17
ATOM     16  N   UNL     1       7.109  15.519  19.662  0.00  0.00    +0.000 NA
ATOM     17  C   UNL     1       7.071  14.929  20.812  0.00  0.00    +0.000 C 
BRANCH  16  18
ATOM     18  O   UNL     1       6.275  14.814  18.768  0.00  0.00    +0.000 OA
BRANCH  18  19
ATOM     19  C   UNL     1       5.417  15.750  18.106  0.00  0.00    +0.000 C 
BRANCH  19  21
ATOM     20 CL   UNL     1       0.673  17.309  21.520  0.00  0.00    +0.000 Cl
ATOM     21  C   UNL     1       4.259  16.130  18.999  0.00  0.00    +0.000 A 
ATOM     22  C   UNL     1       3.178  17.736  20.504  0.00  0.00    +0.000 A 
ATOM     23  C   UNL     1       4.272  17.342  19.709  0.00  0.00    +0.000 A 
ATOM     24  C   UNL     1       3.132  15.303  19.098  0.00  0.00    +0.000 A 
ATOM     25  C   UNL     1       2.063  16.893  20.579  0.00  0.00    +0.000 A 
ATOM     26  C   UNL     1       2.041  15.682  19.883  0.00  0.00    +0.000 A 
ATOM     27  C   UNL     1       3.235  19.042  21.249  0.00  0.00    +0.000 C 
ENDBRANCH  19  21
ENDBRANCH  18  19
ENDBRANCH  16  18
ENDBRANCH   4  17
TORSDOF 5
ENDMDL
MODEL 3
REMARK VINA RESULT:      -5.5     18.902     20.396
REMARK  Name = 130314408
REMARK  6 active torsions:
REMARK  status: ('A' for Active; 'I' for Inactive)
REMARK    1  A    between atoms: O_4  and  N_7
REMARK    2  A    between atoms: O_4  and  C_18
REMARK    3  A    between atoms: C_8  and  C_13
REMARK    4  A    between atoms: C_9  and  C_11
REMARK    5  A    between atoms: C_17  and  C_18
REMARK    6  A    between atoms: C_19  and  C_27
REMARK                            x       y       z     vdW  Elec       q    Type
REMARK                         _______ _______ _______ _____ _____    ______ ____
ROOT
ATOM      1  S   UNL     1     -10.555   9.712  37.002  0.00  0.00    +0.000 S 
ATOM      2  N   UNL     1     -11.886   8.750  35.026  0.00  0.00    +0.000 N 
ATOM      3  N   UNL     1     -10.627  10.445  34.291  0.00  0.00    +0.000 NA
ATOM      4  C   UNL     1     -12.133   8.807  33.679  0.00  0.00    +0.000 A 
ATOM      5  C   UNL     1     -11.365   9.899  33.251  0.00  0.00    +0.000 A 
ATOM      6  C   UNL     1     -10.986   9.731  35.317  0.00  0.00    +0.000 A 
ATOM      7  C   UNL     1     -12.259   7.960  36.092  0.00  0.00    +0.000 A 
ATOM      8  C   UNL     1     -11.645   8.334  37.228  0.00  0.00    +0.000 A 
ENDROOT
BRANCH   5  10
ATOM      9 CL   UNL     1     -11.527  12.059  27.682  0.00  0.00    +0.000 Cl
ATOM     10  C   UNL     1     -11.293  10.416  31.890  0.00  0.00    +0.000 A 
ATOM     11  C   UNL     1     -11.494   9.553  30.803  0.00  0.00    +0.000 A 
ATOM     12  C   UNL     1     -11.047  11.773  31.633  0.00  0.00    +0.000 A 
ATOM     13  C   UNL     1     -11.541  10.056  29.497  0.00  0.00    +0.000 A 
ATOM     14  C   UNL     1     -11.120  12.281  30.334  0.00  0.00    +0.000 A 
ATOM     15  C   UNL     1     -11.385  11.423  29.272  0.00  0.00    +0.000 A 
ENDBRANCH   5  10
BRANCH   4  17
ATOM     16  N   UNL     1     -14.216   8.178  32.717  0.00  0.00    +0.000 NA
ATOM     17  C   UNL     1     -12.966   7.918  32.925  0.00  0.00    +0.000 C 
BRANCH  16  18
ATOM     18  O   UNL     1     -14.745   7.183  31.867  0.00  0.00    +0.000 OA
BRANCH  18  19
ATOM     19  C   UNL     1     -15.153   6.066  32.666  0.00  0.00    +0.000 C 
BRANCH  19  21
ATOM     20 CL   UNL     1     -13.407   0.949  29.955  0.00  0.00    +0.000 Cl
ATOM     21  C   UNL     1     -14.761   4.768  32.000  0.00  0.00    +0.000 A 
ATOM     22  C   UNL     1     -14.922   3.224  30.102  0.00  0.00    +0.000 A 
ATOM     23  C   UNL     1     -15.317   4.403  30.762  0.00  0.00    +0.000 A 
ATOM     24  C   UNL     1     -13.802   3.928  32.582  0.00  0.00    +0.000 A 
ATOM     25  C   UNL     1     -13.958   2.407  30.704  0.00  0.00    +0.000 A 
ATOM     26  C   UNL     1     -13.403   2.755  31.938  0.00  0.00    +0.000 A 
ATOM     27  C   UNL     1     -15.545   2.870  28.779  0.00  0.00    +0.000 C 
ENDBRANCH  19  21
ENDBRANCH  18  19
ENDBRANCH  16  18
ENDBRANCH   4  17
TORSDOF 5
ENDMDL
MODEL 4
REMARK VINA RESULT:      -5.5      2.949      3.933
REMARK  Name = 130314408
REMARK  6 active torsions:
REMARK  status: ('A' for Active; 'I' for Inactive)
REMARK    1  A    between atoms: O_4  and  N_7
REMARK    2  A    between atoms: O_4  and  C_18
REMARK    3  A    between atoms: C_8  and  C_13
REMARK    4  A    between atoms: C_9  and  C_11
REMARK    5  A    between atoms: C_17  and  C_18
REMARK    6  A    between atoms: C_19  and  C_27
REMARK                            x       y       z     vdW  Elec       q    Type
REMARK                         _______ _______ _______ _____ _____    ______ ____
ROOT
ATOM      1  S   UNL     1       9.496  16.907  22.476  0.00  0.00    +0.000 S 
ATOM      2  N   UNL     1       7.584  15.945  21.053  0.00  0.00    +0.000 N 
ATOM      3  N   UNL     1       6.712  16.958  22.844  0.00  0.00    +0.000 NA
ATOM      4  C   UNL     1       6.229  15.817  20.898  0.00  0.00    +0.000 A 
ATOM      5  C   UNL     1       5.708  16.422  22.050  0.00  0.00    +0.000 A 
ATOM      6  C   UNL     1       7.799  16.634  22.209  0.00  0.00    +0.000 A 
ATOM      7  C   UNL     1       8.721  15.617  20.346  0.00  0.00    +0.000 A 
ATOM      8  C   UNL     1       9.835  16.052  20.962  0.00  0.00    +0.000 A 
ENDROOT
BRANCH   5  10
ATOM      9 CL   UNL     1       0.051  17.118  23.842  0.00  0.00    +0.000 Cl
ATOM     10  C   UNL     1       4.298  16.529  22.400  0.00  0.00    +0.000 A 
ATOM     11  C   UNL     1       3.743  15.654  23.345  0.00  0.00    +0.000 A 
ATOM     12  C   UNL     1       3.473  17.509  21.827  0.00  0.00    +0.000 A 
ATOM     13  C   UNL     1       2.420  15.819  23.774  0.00  0.00    +0.000 A 
ATOM     14  C   UNL     1       2.162  17.692  22.272  0.00  0.00    +0.000 A 
ATOM     15  C   UNL     1       1.646  16.857  23.258  0.00  0.00    +0.000 A 
ENDBRANCH   5  10
BRANCH   4  17
ATOM     16  N   UNL     1       4.983  15.940  18.876  0.00  0.00    +0.000 NA
ATOM     17  C   UNL     1       5.549  15.220  19.787  0.00  0.00    +0.000 C 
BRANCH  16  18
ATOM     18  O   UNL     1       4.490  15.084  17.868  0.00  0.00    +0.000 OA
BRANCH  18  19
ATOM     19  C   UNL     1       3.463  15.771  17.143  0.00  0.00    +0.000 C 
BRANCH  19  21
ATOM     20 CL   UNL     1      -1.311  16.736  20.730  0.00  0.00    +0.000 Cl
ATOM     21  C   UNL     1       2.246  15.976  18.015  0.00  0.00    +0.000 A 
ATOM     22  C   UNL     1       0.824  15.252  19.877  0.00  0.00    +0.000 A 
ATOM     23  C   UNL     1       1.923  15.049  19.021  0.00  0.00    +0.000 A 
ATOM     24  C   UNL     1       1.446  17.118  17.869  0.00  0.00    +0.000 A 
ATOM     25  C   UNL     1       0.046  16.404  19.712  0.00  0.00    +0.000 A 
ATOM     26  C   UNL     1       0.353  17.330  18.712  0.00  0.00    +0.000 A 
ATOM     27  C   UNL     1       0.513  14.232  20.939  0.00  0.00    +0.000 C 
ENDBRANCH  19  21
ENDBRANCH  18  19
ENDBRANCH  16  18
ENDBRANCH   4  17
TORSDOF 5
ENDMDL
MODEL 5
REMARK VINA RESULT:      -5.1     20.844     23.955
REMARK  Name = 130314408
REMARK  6 active torsions:
REMARK  status: ('A' for Active; 'I' for Inactive)
REMARK    1  A    between atoms: O_4  and  N_7
REMARK    2  A    between atoms: O_4  and  C_18
REMARK    3  A    between atoms: C_8  and  C_13
REMARK    4  A    between atoms: C_9  and  C_11
REMARK    5  A    between atoms: C_17  and  C_18
REMARK    6  A    between atoms: C_19  and  C_27
REMARK                            x       y       z     vdW  Elec       q    Type
REMARK                         _______ _______ _______ _____ _____    ______ ____
ROOT
ATOM      1  S   UNL     1       9.400  10.640   2.180  0.00  0.00    +0.000 S 
ATOM      2  N   UNL     1      11.076   9.861   3.966  0.00  0.00    +0.000 N 
ATOM      3  N   UNL     1       9.161   8.740   4.234  0.00  0.00    +0.000 NA
ATOM      4  C   UNL     1      11.317   9.007   5.011  0.00  0.00    +0.000 A 
ATOM      5  C   UNL     1      10.092   8.348   5.184  0.00  0.00    +0.000 A 
ATOM      6  C   UNL     1       9.796   9.645   3.550  0.00  0.00    +0.000 A 
ATOM      7  C   UNL     1      11.780  10.794   3.236  0.00  0.00    +0.000 A 
ATOM      8  C   UNL     1      11.038  11.314   2.242  0.00  0.00    +0.000 A 
ENDROOT
BRANCH   5  10
ATOM      9 CL   UNL     1       9.310   4.279   9.490  0.00  0.00    +0.000 Cl
ATOM     10  C   UNL     1       9.795   7.345   6.199  0.00  0.00    +0.000 A 
ATOM     11  C   UNL     1      10.103   5.997   5.963  0.00  0.00    +0.000 A 
ATOM     12  C   UNL     1       9.223   7.696   7.431  0.00  0.00    +0.000 A 
ATOM     13  C   UNL     1       9.929   5.042   6.972  0.00  0.00    +0.000 A 
ATOM     14  C   UNL     1       9.074   6.751   8.448  0.00  0.00    +0.000 A 
ATOM     15  C   UNL     1       9.445   5.429   8.220  0.00  0.00    +0.000 A 
ENDBRANCH   5  10
BRANCH   4  17
ATOM     16  N   UNL     1      13.303   7.805   5.529  0.00  0.00    +0.000 NA
ATOM     17  C   UNL     1      12.556   8.845   5.711  0.00  0.00    +0.000 C 
BRANCH  16  18
ATOM     18  O   UNL     1      14.493   7.972   6.270  0.00  0.00    +0.000 OA
BRANCH  18  19
ATOM     19  C   UNL     1      15.158   9.154   5.810  0.00  0.00    +0.000 C 
BRANCH  19  21
ATOM     20 CL   UNL     1      20.736   7.669   4.005  0.00  0.00    +0.000 Cl
ATOM     21  C   UNL     1      16.565   8.830   5.363  0.00  0.00    +0.000 A 
ATOM     22  C   UNL     1      18.930   8.468   5.899  0.00  0.00    +0.000 A 
ATOM     23  C   UNL     1      17.623   8.819   6.288  0.00  0.00    +0.000 A 
ATOM     24  C   UNL     1      16.830   8.490   4.030  0.00  0.00    +0.000 A 
ATOM     25  C   UNL     1      19.165   8.126   4.562  0.00  0.00    +0.000 A 
ATOM     26  C   UNL     1      18.123   8.140   3.632  0.00  0.00    +0.000 A 
ATOM     27  C   UNL     1      20.034   8.471   6.921  0.00  0.00    +0.000 C 
ENDBRANCH  19  21
ENDBRANCH  18  19
ENDBRANCH  16  18
ENDBRANCH   4  17
TORSDOF 5
ENDMDL
MODEL 6
REMARK VINA RESULT:      -5.1     26.986     28.768
REMARK  Name = 130314408
REMARK  6 active torsions:
REMARK  status: ('A' for Active; 'I' for Inactive)
REMARK    1  A    between atoms: O_4  and  N_7
REMARK    2  A    between atoms: O_4  and  C_18
REMARK    3  A    between atoms: C_8  and  C_13
REMARK    4  A    between atoms: C_9  and  C_11
REMARK    5  A    between atoms: C_17  and  C_18
REMARK    6  A    between atoms: C_19  and  C_27
REMARK                            x       y       z     vdW  Elec       q    Type
REMARK                         _______ _______ _______ _____ _____    ______ ____
ROOT
ATOM      1  S   UNL     1       3.836  -6.617  41.112  0.00  0.00    +0.000 S 
ATOM      2  N   UNL     1       5.372  -6.010  39.143  0.00  0.00    +0.000 N 
ATOM      3  N   UNL     1       4.570  -8.073  38.825  0.00  0.00    +0.000 NA
ATOM      4  C   UNL     1       5.892  -6.403  37.937  0.00  0.00    +0.000 A 
ATOM      5  C   UNL     1       5.408  -7.709  37.781  0.00  0.00    +0.000 A 
ATOM      6  C   UNL     1       4.597  -7.032  39.605  0.00  0.00    +0.000 A 
ATOM      7  C   UNL     1       5.393  -4.885  39.938  0.00  0.00    +0.000 A 
ATOM      8  C   UNL     1       4.628  -5.034  41.035  0.00  0.00    +0.000 A 
ENDROOT
BRANCH   5  10
ATOM      9 CL   UNL     1       6.482 -11.718  33.482  0.00  0.00    +0.000 Cl
ATOM     10  C   UNL     1       5.695  -8.601  36.665  0.00  0.00    +0.000 A 
ATOM     11  C   UNL     1       6.963  -9.189  36.547  0.00  0.00    +0.000 A 
ATOM     12  C   UNL     1       4.720  -8.910  35.704  0.00  0.00    +0.000 A 
ATOM     13  C   UNL     1       7.216 -10.135  35.546  0.00  0.00    +0.000 A 
ATOM     14  C   UNL     1       4.962  -9.873  34.722  0.00  0.00    +0.000 A 
ATOM     15  C   UNL     1       6.204 -10.495  34.658  0.00  0.00    +0.000 A 
ENDBRANCH   5  10
BRANCH   4  17
ATOM     16  N   UNL     1       7.976  -5.847  36.932  0.00  0.00    +0.000 NA
ATOM     17  C   UNL     1       6.710  -5.615  37.064  0.00  0.00    +0.000 C 
BRANCH  16  18
ATOM     18  O   UNL     1       8.489  -4.986  35.939  0.00  0.00    +0.000 OA
BRANCH  18  19
ATOM     19  C   UNL     1       9.420  -5.718  35.133  0.00  0.00    +0.000 C 
BRANCH  19  21
ATOM     20 CL   UNL     1       6.385  -9.048  31.098  0.00  0.00    +0.000 Cl
ATOM     21  C   UNL     1       8.691  -6.532  34.090  0.00  0.00    +0.000 A 
ATOM     22  C   UNL     1       8.603  -8.474  32.596  0.00  0.00    +0.000 A 
ATOM     23  C   UNL     1       9.288  -7.674  33.530  0.00  0.00    +0.000 A 
ATOM     24  C   UNL     1       7.390  -6.190  33.698  0.00  0.00    +0.000 A 
ATOM     25  C   UNL     1       7.301  -8.113  32.227  0.00  0.00    +0.000 A 
ATOM     26  C   UNL     1       6.700  -6.976  32.772  0.00  0.00    +0.000 A 
ATOM     27  C   UNL     1       9.280  -9.688  32.019  0.00  0.00    +0.000 C 
ENDBRANCH  19  21
ENDBRANCH  18  19
ENDBRANCH  16  18
ENDBRANCH   4  17
TORSDOF 5
ENDMDL
MODEL 7
REMARK VINA RESULT:      -5.0     25.009     27.386
REMARK  Name = 130314408
REMARK  6 active torsions:
REMARK  status: ('A' for Active; 'I' for Inactive)
REMARK    1  A    between atoms: O_4  and  N_7
REMARK    2  A    between atoms: O_4  and  C_18
REMARK    3  A    between atoms: C_8  and  C_13
REMARK    4  A    between atoms: C_9  and  C_11
REMARK    5  A    between atoms: C_17  and  C_18
REMARK    6  A    between atoms: C_19  and  C_27
REMARK                            x       y       z     vdW  Elec       q    Type
REMARK                         _______ _______ _______ _____ _____    ______ ____
ROOT
ATOM      1  S   UNL     1      23.571  -5.865  26.378  0.00  0.00    +0.000 S 
ATOM      2  N   UNL     1      21.286  -5.021  27.196  0.00  0.00    +0.000 N 
ATOM      3  N   UNL     1      21.566  -4.398  25.067  0.00  0.00    +0.000 NA
ATOM      4  C   UNL     1      20.124  -4.371  26.868  0.00  0.00    +0.000 A 
ATOM      5  C   UNL     1      20.342  -3.957  25.546  0.00  0.00    +0.000 A 
ATOM      6  C   UNL     1      22.084  -5.010  26.091  0.00  0.00    +0.000 A 
ATOM      7  C   UNL     1      21.800  -5.691  28.285  0.00  0.00    +0.000 A 
ATOM      8  C   UNL     1      23.016  -6.204  28.026  0.00  0.00    +0.000 A 
ENDROOT
BRANCH   5  10
ATOM      9 CL   UNL     1      16.204  -0.958  22.449  0.00  0.00    +0.000 Cl
ATOM     10  C   UNL     1      19.416  -3.186  24.727  0.00  0.00    +0.000 A 
ATOM     11  C   UNL     1      18.748  -3.802  23.658  0.00  0.00    +0.000 A 
ATOM     12  C   UNL     1      19.152  -1.834  24.992  0.00  0.00    +0.000 A 
ATOM     13  C   UNL     1      17.772  -3.106  22.935  0.00  0.00    +0.000 A 
ATOM     14  C   UNL     1      18.160  -1.146  24.290  0.00  0.00    +0.000 A 
ATOM     15  C   UNL     1      17.461  -1.791  23.275  0.00  0.00    +0.000 A 
ENDBRANCH   5  10
BRANCH   4  17
ATOM     16  N   UNL     1      18.849  -3.179  28.484  0.00  0.00    +0.000 NA
ATOM     17  C   UNL     1      18.974  -4.204  27.706  0.00  0.00    +0.000 C 
BRANCH  16  18
ATOM     18  O   UNL     1      17.582  -3.237  29.103  0.00  0.00    +0.000 OA
BRANCH  18  19
ATOM     19  C   UNL     1      17.211  -4.611  29.262  0.00  0.00    +0.000 C 
BRANCH  19  21
ATOM     20 CL   UNL     1      12.357  -5.138  32.832  0.00  0.00    +0.000 Cl
ATOM     21  C   UNL     1      15.970  -4.729  30.116  0.00  0.00    +0.000 A 
ATOM     22  C   UNL     1      13.953  -5.962  30.767  0.00  0.00    +0.000 A 
ATOM     23  C   UNL     1      15.085  -5.807  29.944  0.00  0.00    +0.000 A 
ATOM     24  C   UNL     1      15.705  -3.793  31.124  0.00  0.00    +0.000 A 
ATOM     25  C   UNL     1      13.716  -5.015  31.770  0.00  0.00    +0.000 A 
ATOM     26  C   UNL     1      14.585  -3.935  31.946  0.00  0.00    +0.000 A 
ATOM     27  C   UNL     1      13.030  -7.130  30.547  0.00  0.00    +0.000 C 
ENDBRANCH  19  21
ENDBRANCH  18  19
ENDBRANCH  16  18
ENDBRANCH   4  17
TORSDOF 5
ENDMDL
MODEL 8
REMARK VINA RESULT:      -4.9     21.077     23.273
REMARK  Name = 130314408
REMARK  6 active torsions:
REMARK  status: ('A' for Active; 'I' for Inactive)
REMARK    1  A    between atoms: O_4  and  N_7
REMARK    2  A    between atoms: O_4  and  C_18
REMARK    3  A    between atoms: C_8  and  C_13
REMARK    4  A    between atoms: C_9  and  C_11
REMARK    5  A    between atoms: C_17  and  C_18
REMARK    6  A    between atoms: C_19  and  C_27
REMARK                            x       y       z     vdW  Elec       q    Type
REMARK                         _______ _______ _______ _____ _____    ______ ____
ROOT
ATOM      1  S   UNL     1      13.071  12.631   0.251  0.00  0.00    +0.000 S 
ATOM      2  N   UNL     1      11.158  11.261   1.284  0.00  0.00    +0.000 N 
ATOM      3  N   UNL     1      13.050  10.805   2.385  0.00  0.00    +0.000 NA
ATOM      4  C   UNL     1      10.785  10.381   2.266  0.00  0.00    +0.000 A 
ATOM      5  C   UNL     1      11.991  10.081   2.914  0.00  0.00    +0.000 A 
ATOM      6  C   UNL     1      12.498  11.476   1.417  0.00  0.00    +0.000 A 
ATOM      7  C   UNL     1      10.545  11.985   0.284  0.00  0.00    +0.000 A 
ATOM      8  C   UNL     1      11.419  12.768  -0.372  0.00  0.00    +0.000 A 
ENDROOT
BRANCH   5  10
ATOM      9 CL   UNL     1      13.120   6.419   7.499  0.00  0.00    +0.000 Cl
ATOM     10  C   UNL     1      12.159   9.156   4.027  0.00  0.00    +0.000 A 
ATOM     11  C   UNL     1      12.650   7.863   3.795  0.00  0.00    +0.000 A 
ATOM     12  C   UNL     1      11.860   9.534   5.345  0.00  0.00    +0.000 A 
ATOM     13  C   UNL     1      12.924   7.005   4.868  0.00  0.00    +0.000 A 
ATOM     14  C   UNL     1      12.157   8.690   6.418  0.00  0.00    +0.000 A 
ATOM     15  C   UNL     1      12.706   7.435   6.175  0.00  0.00    +0.000 A 
ENDBRANCH   5  10
BRANCH   4  17
ATOM     16  N   UNL     1       9.145   8.671   2.488  0.00  0.00    +0.000 NA
ATOM     17  C   UNL     1       9.455   9.926   2.543  0.00  0.00    +0.000 C 
BRANCH  16  18
ATOM     18  O   UNL     1       7.806   8.521   2.906  0.00  0.00    +0.000 OA
BRANCH  18  19
ATOM     19  C   UNL     1       7.688   8.996   4.252  0.00  0.00    +0.000 C 
BRANCH  19  21
ATOM     20 CL   UNL     1      10.030   5.027   8.169  0.00  0.00    +0.000 Cl
ATOM     21  C   UNL     1       8.234   7.975   5.223  0.00  0.00    +0.000 A 
ATOM     22  C   UNL     1       9.342   5.829   5.645  0.00  0.00    +0.000 A 
ATOM     23  C   UNL     1       8.781   6.767   4.758  0.00  0.00    +0.000 A 
ATOM     24  C   UNL     1       8.248   8.235   6.600  0.00  0.00    +0.000 A 
ATOM     25  C   UNL     1       9.348   6.118   7.014  0.00  0.00    +0.000 A 
ATOM     26  C   UNL     1       8.801   7.312   7.490  0.00  0.00    +0.000 A 
ATOM     27  C   UNL     1       9.915   4.547   5.103  0.00  0.00    +0.000 C 
ENDBRANCH  19  21
ENDBRANCH  18  19
ENDBRANCH  16  18
ENDBRANCH   4  17
TORSDOF 5
ENDMDL
MODEL 9
REMARK VINA RESULT:      -4.9     32.129     33.902
REMARK  Name = 130314408
REMARK  6 active torsions:
REMARK  status: ('A' for Active; 'I' for Inactive)
REMARK    1  A    between atoms: O_4  and  N_7
REMARK    2  A    between atoms: O_4  and  C_18
REMARK    3  A    between atoms: C_8  and  C_13
REMARK    4  A    between atoms: C_9  and  C_11
REMARK    5  A    between atoms: C_17  and  C_18
REMARK    6  A    between atoms: C_19  and  C_27
REMARK                            x       y       z     vdW  Elec       q    Type
REMARK                         _______ _______ _______ _____ _____    ______ ____
ROOT
ATOM      1  S   UNL     1     -12.632 -13.707  34.211  0.00  0.00    +0.000 S 
ATOM      2  N   UNL     1     -11.702 -12.063  35.953  0.00  0.00    +0.000 N 
ATOM      3  N   UNL     1     -10.097 -13.520  35.405  0.00  0.00    +0.000 NA
ATOM      4  C   UNL     1     -10.609 -11.665  36.677  0.00  0.00    +0.000 A 
ATOM      5  C   UNL     1      -9.632 -12.615  36.347  0.00  0.00    +0.000 A 
ATOM      6  C   UNL     1     -11.330 -13.150  35.219  0.00  0.00    +0.000 A 
ATOM      7  C   UNL     1     -12.996 -11.634  35.750  0.00  0.00    +0.000 A 
ATOM      8  C   UNL     1     -13.640 -12.399  34.851  0.00  0.00    +0.000 A 
ENDROOT
BRANCH   5  10
ATOM      9 CL   UNL     1      -4.140 -12.416  38.692  0.00  0.00    +0.000 Cl
ATOM     10  C   UNL     1      -8.276 -12.669  36.877  0.00  0.00    +0.000 A 
ATOM     11  C   UNL     1      -7.219 -12.095  36.155  0.00  0.00    +0.000 A 
ATOM     12  C   UNL     1      -7.995 -13.267  38.115  0.00  0.00    +0.000 A 
ATOM     13  C   UNL     1      -5.932 -12.039  36.705  0.00  0.00    +0.000 A 
ATOM     14  C   UNL     1      -6.719 -13.188  38.677  0.00  0.00    +0.000 A 
ATOM     15  C   UNL     1      -5.696 -12.558  37.976  0.00  0.00    +0.000 A 
ENDBRANCH   5  10
BRANCH   4  17
ATOM     16  N   UNL     1      -9.903  -9.448  37.172  0.00  0.00    +0.000 NA
ATOM     17  C   UNL     1     -10.525 -10.521  37.536  0.00  0.00    +0.000 C 
BRANCH  16  18
ATOM     18  O   UNL     1     -10.076  -8.467  38.172  0.00  0.00    +0.000 OA
BRANCH  18  19
ATOM     19  C   UNL     1      -9.576  -8.982  39.411  0.00  0.00    +0.000 C 
BRANCH  19  21
ATOM     20 CL   UNL     1      -3.839  -7.357  40.423  0.00  0.00    +0.000 Cl
ATOM     21  C   UNL     1      -8.149  -8.539  39.633  0.00  0.00    +0.000 A 
ATOM     22  C   UNL     1      -6.541  -6.995  40.654  0.00  0.00    +0.000 A 
ATOM     23  C   UNL     1      -7.867  -7.392  40.393  0.00  0.00    +0.000 A 
ATOM     24  C   UNL     1      -7.080  -9.290  39.123  0.00  0.00    +0.000 A 
ATOM     25  C   UNL     1      -5.494  -7.767  40.138  0.00  0.00    +0.000 A 
ATOM     26  C   UNL     1      -5.761  -8.905  39.374  0.00  0.00    +0.000 A 
ATOM     27  C   UNL     1      -6.285  -5.758  41.472  0.00  0.00    +0.000 C 
ENDBRANCH  19  21
ENDBRANCH  18  19
ENDBRANCH  16  18
ENDBRANCH   4  17
TORSDOF 5
ENDMDL
MODEL 10
REMARK VINA RESULT:      -4.7     20.802     24.951
REMARK  Name = 130314408
REMARK  6 active torsions:
REMARK  status: ('A' for Active; 'I' for Inactive)
REMARK    1  A    between atoms: O_4  and  N_7
REMARK    2  A    between atoms: O_4  and  C_18
REMARK    3  A    between atoms: C_8  and  C_13
REMARK    4  A    between atoms: C_9  and  C_11
REMARK    5  A    between atoms: C_17  and  C_18
REMARK    6  A    between atoms: C_19  and  C_27
REMARK                            x       y       z     vdW  Elec       q    Type
REMARK                         _______ _______ _______ _____ _____    ______ ____
ROOT
ATOM      1  S   UNL     1      25.363   1.097  27.429  0.00  0.00    +0.000 S 
ATOM      2  N   UNL     1      23.931   2.147  25.571  0.00  0.00    +0.000 N 
ATOM      3  N   UNL     1      25.977   1.745  24.766  0.00  0.00    +0.000 NA
ATOM      4  C   UNL     1      23.872   2.540  24.260  0.00  0.00    +0.000 A 
ATOM      5  C   UNL     1      25.173   2.316  23.791  0.00  0.00    +0.000 A 
ATOM      6  C   UNL     1      25.191   1.680  25.800  0.00  0.00    +0.000 A 
ATOM      7  C   UNL     1      23.070   2.061  26.644  0.00  0.00    +0.000 A 
ATOM      8  C   UNL     1      23.669   1.525  27.723  0.00  0.00    +0.000 A 
ENDROOT
BRANCH   5  10
ATOM      9 CL   UNL     1      26.925   3.870  18.293  0.00  0.00    +0.000 Cl
ATOM     10  C   UNL     1      25.661   2.600  22.447  0.00  0.00    +0.000 A 
ATOM     11  C   UNL     1      24.885   2.250  21.332  0.00  0.00    +0.000 A 
ATOM     12  C   UNL     1      26.890   3.243  22.234  0.00  0.00    +0.000 A 
ATOM     13  C   UNL     1      25.288   2.620  20.043  0.00  0.00    +0.000 A 
ATOM     14  C   UNL     1      27.280   3.636  20.952  0.00  0.00    +0.000 A 
ATOM     15  C   UNL     1      26.468   3.338  19.863  0.00  0.00    +0.000 A 
ENDBRANCH   5  10
BRANCH   4  17
ATOM     16  N   UNL     1      22.427   4.292  23.550  0.00  0.00    +0.000 NA
ATOM     17  C   UNL     1      22.717   3.032  23.568  0.00  0.00    +0.000 C 
BRANCH  16  18
ATOM     18  O   UNL     1      21.306   4.483  22.715  0.00  0.00    +0.000 OA
BRANCH  18  19
ATOM     19  C   UNL     1      21.594   5.542  21.794  0.00  0.00    +0.000 C 
BRANCH  19  21
ATOM     20 CL   UNL     1      16.443   8.413  20.450  0.00  0.00    +0.000 Cl
ATOM     21  C   UNL     1      20.327   6.274  21.416  0.00  0.00    +0.000 A 
ATOM     22  C   UNL     1      18.264   6.400  20.098  0.00  0.00    +0.000 A 
ATOM     23  C   UNL     1      19.474   5.759  20.425  0.00  0.00    +0.000 A 
ATOM     24  C   UNL     1      19.958   7.453  22.078  0.00  0.00    +0.000 A 
ATOM     25  C   UNL     1      17.917   7.573  20.780  0.00  0.00    +0.000 A 
ATOM     26  C   UNL     1      18.760   8.098  21.762  0.00  0.00    +0.000 A 
ATOM     27  C   UNL     1      17.380   5.816  19.029  0.00  0.00    +0.000 C 
ENDBRANCH  19  21
ENDBRANCH  18  19
ENDBRANCH  16  18
ENDBRANCH   4  17
TORSDOF 5
ENDMDL
