MODEL 1
REMARK VINA RESULT:      -4.9      0.000      0.000
REMARK  Name = 130314408
REMARK  6 active torsions:
REMARK  status: ('A' for Active; 'I' for Inactive)
REMARK    1  A    between atoms: O_4  and  N_7
REMARK    2  A    between atoms: O_4  and  C_18
REMARK    3  A    between atoms: C_8  and  C_13
REMARK    4  A    between atoms: C_9  and  C_11
REMARK    5  A    between atoms: C_17  and  C_18
REMARK    6  A    between atoms: C_19  and  C_27
REMARK                            x       y       z     vdW  Elec       q    Type
REMARK                         _______ _______ _______ _____ _____    ______ ____
ROOT
ATOM      1  S   UNL     1     -15.620   7.100 -34.138  0.00  0.00    +0.000 S 
ATOM      2  N   UNL     1     -13.687   5.620 -33.316  0.00  0.00    +0.000 N 
ATOM      3  N   UNL     1     -13.025   6.724 -35.144  0.00  0.00    +0.000 NA
ATOM      4  C   UNL     1     -12.383   5.238 -33.500  0.00  0.00    +0.000 A 
ATOM      5  C   UNL     1     -12.006   5.910 -34.671  0.00  0.00    +0.000 A 
ATOM      6  C   UNL     1     -13.996   6.501 -34.309  0.00  0.00    +0.000 A 
ATOM      7  C   UNL     1     -14.691   5.392 -32.400  0.00  0.00    +0.000 A 
ATOM      8  C   UNL     1     -15.798   6.100 -32.687  0.00  0.00    +0.000 A 
ENDROOT
BRANCH   5  10
ATOM      9 CL   UNL     1      -6.515   5.403 -36.971  0.00  0.00    +0.000 Cl
ATOM     10  C   UNL     1     -10.709   5.822 -35.329  0.00  0.00    +0.000 A 
ATOM     11  C   UNL     1      -9.798   6.883 -35.224  0.00  0.00    +0.000 A 
ATOM     12  C   UNL     1     -10.332   4.683 -36.056  0.00  0.00    +0.000 A 
ATOM     13  C   UNL     1      -8.507   6.765 -35.755  0.00  0.00    +0.000 A 
ATOM     14  C   UNL     1      -9.037   4.552 -36.562  0.00  0.00    +0.000 A 
ATOM     15  C   UNL     1      -8.123   5.588 -36.393  0.00  0.00    +0.000 A 
ENDBRANCH   5  10
BRANCH   4  17
ATOM     16  N   UNL     1     -11.526   3.105 -32.887  0.00  0.00    +0.000 NA
ATOM     17  C   UNL     1     -11.620   4.373 -32.650  0.00  0.00    +0.000 C 
BRANCH  16  18
ATOM     18  O   UNL     1     -10.636   2.538 -31.950  0.00  0.00    +0.000 OA
BRANCH  18  19
ATOM     19  C   UNL     1     -10.109   1.322 -32.494  0.00  0.00    +0.000 C 
BRANCH  19  21
ATOM     20 CL   UNL     1      -5.322   2.327 -36.052  0.00  0.00    +0.000 Cl
ATOM     21  C   UNL     1      -8.936   1.613 -33.401  0.00  0.00    +0.000 A 
ATOM     22  C   UNL     1      -6.925   2.919 -33.914  0.00  0.00    +0.000 A 
ATOM     23  C   UNL     1      -8.053   2.667 -33.110  0.00  0.00    +0.000 A 
ATOM     24  C   UNL     1      -8.681   0.809 -34.520  0.00  0.00    +0.000 A 
ATOM     25  C   UNL     1      -6.691   2.096 -35.022  0.00  0.00    +0.000 A 
ATOM     26  C   UNL     1      -7.565   1.049 -35.326  0.00  0.00    +0.000 A 
ATOM     27  C   UNL     1      -6.006   4.059 -33.568  0.00  0.00    +0.000 C 
ENDBRANCH  19  21
ENDBRANCH  18  19
ENDBRANCH  16  18
ENDBRANCH   4  17
TORSDOF 5
ENDMDL
MODEL 2
REMARK VINA RESULT:      -4.9      4.604      6.038
REMARK  Name = 130314408
REMARK  6 active torsions:
REMARK  status: ('A' for Active; 'I' for Inactive)
REMARK    1  A    between atoms: O_4  and  N_7
REMARK    2  A    between atoms: O_4  and  C_18
REMARK    3  A    between atoms: C_8  and  C_13
REMARK    4  A    between atoms: C_9  and  C_11
REMARK    5  A    between atoms: C_17  and  C_18
REMARK    6  A    between atoms: C_19  and  C_27
REMARK                            x       y       z     vdW  Elec       q    Type
REMARK                         _______ _______ _______ _____ _____    ______ ____
ROOT
ATOM      1  S   UNL     1     -14.731   7.519 -35.427  0.00  0.00    +0.000 S 
ATOM      2  N   UNL     1     -12.681   7.811 -33.906  0.00  0.00    +0.000 N 
ATOM      3  N   UNL     1     -12.057   6.727 -35.759  0.00  0.00    +0.000 NA
ATOM      4  C   UNL     1     -11.333   7.616 -33.757  0.00  0.00    +0.000 A 
ATOM      5  C   UNL     1     -10.975   6.903 -34.908  0.00  0.00    +0.000 A 
ATOM      6  C   UNL     1     -13.039   7.275 -35.106  0.00  0.00    +0.000 A 
ATOM      7  C   UNL     1     -13.700   8.425 -33.209  0.00  0.00    +0.000 A 
ATOM      8  C   UNL     1     -14.867   8.361 -33.874  0.00  0.00    +0.000 A 
ENDROOT
BRANCH   5  10
ATOM      9 CL   UNL     1      -5.688   4.706 -36.619  0.00  0.00    +0.000 Cl
ATOM     10  C   UNL     1      -9.641   6.412 -35.233  0.00  0.00    +0.000 A 
ATOM     11  C   UNL     1      -9.273   5.104 -34.885  0.00  0.00    +0.000 A 
ATOM     12  C   UNL     1      -8.710   7.213 -35.911  0.00  0.00    +0.000 A 
ATOM     13  C   UNL     1      -8.039   4.582 -35.292  0.00  0.00    +0.000 A 
ATOM     14  C   UNL     1      -7.490   6.687 -36.340  0.00  0.00    +0.000 A 
ATOM     15  C   UNL     1      -7.167   5.367 -36.044  0.00  0.00    +0.000 A 
ENDBRANCH   5  10
BRANCH   4  17
ATOM     16  N   UNL     1     -10.588   7.540 -31.498  0.00  0.00    +0.000 NA
ATOM     17  C   UNL     1     -10.519   8.079 -32.672  0.00  0.00    +0.000 C 
BRANCH  16  18
ATOM     18  O   UNL     1      -9.606   8.131 -30.674  0.00  0.00    +0.000 OA
BRANCH  18  19
ATOM     19  C   UNL     1      -9.429   9.494 -31.076  0.00  0.00    +0.000 C 
BRANCH  19  21
ATOM     20 CL   UNL     1      -3.943  11.400 -29.386  0.00  0.00    +0.000 Cl
ATOM     21  C   UNL     1      -8.049   9.982 -30.701  0.00  0.00    +0.000 A 
ATOM     22  C   UNL     1      -6.498  11.831 -30.268  0.00  0.00    +0.000 A 
ATOM     23  C   UNL     1      -7.763  11.357 -30.667  0.00  0.00    +0.000 A 
ATOM     24  C   UNL     1      -7.046   9.075 -30.335  0.00  0.00    +0.000 A 
ATOM     25  C   UNL     1      -5.517  10.902 -29.902  0.00  0.00    +0.000 A 
ATOM     26  C   UNL     1      -5.787   9.533 -29.938  0.00  0.00    +0.000 A 
ATOM     27  C   UNL     1      -6.233  13.312 -30.248  0.00  0.00    +0.000 C 
ENDBRANCH  19  21
ENDBRANCH  18  19
ENDBRANCH  16  18
ENDBRANCH   4  17
TORSDOF 5
ENDMDL
MODEL 3
REMARK VINA RESULT:      -4.8     16.331     17.774
REMARK  Name = 130314408
REMARK  6 active torsions:
REMARK  status: ('A' for Active; 'I' for Inactive)
REMARK    1  A    between atoms: O_4  and  N_7
REMARK    2  A    between atoms: O_4  and  C_18
REMARK    3  A    between atoms: C_8  and  C_13
REMARK    4  A    between atoms: C_9  and  C_11
REMARK    5  A    between atoms: C_17  and  C_18
REMARK    6  A    between atoms: C_19  and  C_27
REMARK                            x       y       z     vdW  Elec       q    Type
REMARK                         _______ _______ _______ _____ _____    ______ ____
ROOT
ATOM      1  S   UNL     1     -21.824  14.431 -43.124  0.00  0.00    +0.000 S 
ATOM      2  N   UNL     1     -19.744  15.940 -43.152  0.00  0.00    +0.000 N 
ATOM      3  N   UNL     1     -19.877  14.857 -45.103  0.00  0.00    +0.000 NA
ATOM      4  C   UNL     1     -18.680  16.404 -43.880  0.00  0.00    +0.000 A 
ATOM      5  C   UNL     1     -18.763  15.683 -45.079  0.00  0.00    +0.000 A 
ATOM      6  C   UNL     1     -20.411  15.044 -43.932  0.00  0.00    +0.000 A 
ATOM      7  C   UNL     1     -20.309  16.177 -41.917  0.00  0.00    +0.000 A 
ATOM      8  C   UNL     1     -21.427  15.453 -41.732  0.00  0.00    +0.000 A 
ENDROOT
BRANCH   5  10
ATOM      9 CL   UNL     1     -15.193  15.713 -49.870  0.00  0.00    +0.000 Cl
ATOM     10  C   UNL     1     -17.837  15.776 -46.200  0.00  0.00    +0.000 A 
ATOM     11  C   UNL     1     -16.702  14.953 -46.242  0.00  0.00    +0.000 A 
ATOM     12  C   UNL     1     -18.063  16.662 -47.265  0.00  0.00    +0.000 A 
ATOM     13  C   UNL     1     -15.868  14.951 -47.367  0.00  0.00    +0.000 A 
ATOM     14  C   UNL     1     -17.248  16.642 -48.399  0.00  0.00    +0.000 A 
ATOM     15  C   UNL     1     -16.163  15.773 -48.452  0.00  0.00    +0.000 A 
ENDBRANCH   5  10
BRANCH   4  17
ATOM     16  N   UNL     1     -16.625  17.107 -42.907  0.00  0.00    +0.000 NA
ATOM     17  C   UNL     1     -17.745  17.413 -43.477  0.00  0.00    +0.000 C 
BRANCH  16  18
ATOM     18  O   UNL     1     -15.878  18.290 -42.721  0.00  0.00    +0.000 OA
BRANCH  18  19
ATOM     19  C   UNL     1     -14.488  17.950 -42.665  0.00  0.00    +0.000 C 
BRANCH  19  21
ATOM     20 CL   UNL     1     -12.347  16.169 -48.033  0.00  0.00    +0.000 Cl
ATOM     21  C   UNL     1     -13.999  17.493 -44.019  0.00  0.00    +0.000 A 
ATOM     22  C   UNL     1     -13.753  17.881 -46.428  0.00  0.00    +0.000 A 
ATOM     23  C   UNL     1     -14.248  18.265 -45.166  0.00  0.00    +0.000 A 
ATOM     24  C   UNL     1     -13.249  16.316 -44.148  0.00  0.00    +0.000 A 
ATOM     25  C   UNL     1     -13.002  16.704 -46.526  0.00  0.00    +0.000 A 
ATOM     26  C   UNL     1     -12.754  15.924 -45.394  0.00  0.00    +0.000 A 
ATOM     27  C   UNL     1     -14.045  18.737 -47.631  0.00  0.00    +0.000 C 
ENDBRANCH  19  21
ENDBRANCH  18  19
ENDBRANCH  16  18
ENDBRANCH   4  17
TORSDOF 5
ENDMDL
MODEL 4
REMARK VINA RESULT:      -4.7     20.938     23.156
REMARK  Name = 130314408
REMARK  6 active torsions:
REMARK  status: ('A' for Active; 'I' for Inactive)
REMARK    1  A    between atoms: O_4  and  N_7
REMARK    2  A    between atoms: O_4  and  C_18
REMARK    3  A    between atoms: C_8  and  C_13
REMARK    4  A    between atoms: C_9  and  C_11
REMARK    5  A    between atoms: C_17  and  C_18
REMARK    6  A    between atoms: C_19  and  C_27
REMARK                            x       y       z     vdW  Elec       q    Type
REMARK                         _______ _______ _______ _____ _____    ______ ____
ROOT
ATOM      1  S   UNL     1      -0.984   7.195 -60.504  0.00  0.00    +0.000 S 
ATOM      2  N   UNL     1      -1.723   6.619 -58.111  0.00  0.00    +0.000 N 
ATOM      3  N   UNL     1       0.225   7.713 -58.022  0.00  0.00    +0.000 NA
ATOM      4  C   UNL     1      -1.448   6.731 -56.773  0.00  0.00    +0.000 A 
ATOM      5  C   UNL     1      -0.207   7.382 -56.746  0.00  0.00    +0.000 A 
ATOM      6  C   UNL     1      -0.707   7.226 -58.787  0.00  0.00    +0.000 A 
ATOM      7  C   UNL     1      -2.738   6.122 -58.900  0.00  0.00    +0.000 A 
ATOM      8  C   UNL     1      -2.506   6.340 -60.206  0.00  0.00    +0.000 A 
ENDROOT
BRANCH   5  10
ATOM      9 CL   UNL     1       2.539   8.724 -51.611  0.00  0.00    +0.000 Cl
ATOM     10  C   UNL     1       0.558   7.719 -55.552  0.00  0.00    +0.000 A 
ATOM     11  C   UNL     1       0.588   9.044 -55.091  0.00  0.00    +0.000 A 
ATOM     12  C   UNL     1       1.256   6.741 -54.828  0.00  0.00    +0.000 A 
ATOM     13  C   UNL     1       1.223   9.361 -53.884  0.00  0.00    +0.000 A 
ATOM     14  C   UNL     1       1.867   7.050 -53.611  0.00  0.00    +0.000 A 
ATOM     15  C   UNL     1       1.832   8.357 -53.135  0.00  0.00    +0.000 A 
ENDBRANCH   5  10
BRANCH   4  17
ATOM     16  N   UNL     1      -3.463   6.782 -55.509  0.00  0.00    +0.000 NA
ATOM     17  C   UNL     1      -2.280   6.293 -55.692  0.00  0.00    +0.000 C 
BRANCH  16  18
ATOM     18  O   UNL     1      -4.075   6.092 -54.441  0.00  0.00    +0.000 OA
BRANCH  18  19
ATOM     19  C   UNL     1      -4.856   5.018 -54.976  0.00  0.00    +0.000 C 
BRANCH  19  21
ATOM     20 CL   UNL     1      -5.224   0.528 -50.940  0.00  0.00    +0.000 Cl
ATOM     21  C   UNL     1      -4.996   3.907 -53.962  0.00  0.00    +0.000 A 
ATOM     22  C   UNL     1      -5.763   1.653 -53.376  0.00  0.00    +0.000 A 
ATOM     23  C   UNL     1      -5.670   2.719 -54.292  0.00  0.00    +0.000 A 
ATOM     24  C   UNL     1      -4.416   4.023 -52.691  0.00  0.00    +0.000 A 
ATOM     25  C   UNL     1      -5.169   1.794 -52.117  0.00  0.00    +0.000 A 
ATOM     26  C   UNL     1      -4.502   2.973 -51.774  0.00  0.00    +0.000 A 
ATOM     27  C   UNL     1      -6.495   0.399 -53.770  0.00  0.00    +0.000 C 
ENDBRANCH  19  21
ENDBRANCH  18  19
ENDBRANCH  16  18
ENDBRANCH   4  17
TORSDOF 5
ENDMDL
MODEL 5
REMARK VINA RESULT:      -4.6     16.435     17.839
REMARK  Name = 130314408
REMARK  6 active torsions:
REMARK  status: ('A' for Active; 'I' for Inactive)
REMARK    1  A    between atoms: O_4  and  N_7
REMARK    2  A    between atoms: O_4  and  C_18
REMARK    3  A    between atoms: C_8  and  C_13
REMARK    4  A    between atoms: C_9  and  C_11
REMARK    5  A    between atoms: C_17  and  C_18
REMARK    6  A    between atoms: C_19  and  C_27
REMARK                            x       y       z     vdW  Elec       q    Type
REMARK                         _______ _______ _______ _____ _____    ______ ____
ROOT
ATOM      1  S   UNL     1      -8.177  18.153 -43.406  0.00  0.00    +0.000 S 
ATOM      2  N   UNL     1     -10.646  18.778 -43.063  0.00  0.00    +0.000 N 
ATOM      3  N   UNL     1     -10.511  17.216 -44.657  0.00  0.00    +0.000 NA
ATOM      4  C   UNL     1     -11.946  18.532 -43.420  0.00  0.00    +0.000 A 
ATOM      5  C   UNL     1     -11.832  17.582 -44.444  0.00  0.00    +0.000 A 
ATOM      6  C   UNL     1      -9.856  17.965 -43.819  0.00  0.00    +0.000 A 
ATOM      7  C   UNL     1      -9.976  19.559 -42.147  0.00  0.00    +0.000 A 
ATOM      8  C   UNL     1      -8.648  19.355 -42.193  0.00  0.00    +0.000 A 
ENDROOT
BRANCH   5  10
ATOM      9 CL   UNL     1     -16.040  15.055 -47.852  0.00  0.00    +0.000 Cl
ATOM     10  C   UNL     1     -12.934  16.999 -45.199  0.00  0.00    +0.000 A 
ATOM     11  C   UNL     1     -13.528  17.723 -46.243  0.00  0.00    +0.000 A 
ATOM     12  C   UNL     1     -13.410  15.708 -44.923  0.00  0.00    +0.000 A 
ATOM     13  C   UNL     1     -14.508  17.132 -47.049  0.00  0.00    +0.000 A 
ATOM     14  C   UNL     1     -14.368  15.107 -45.742  0.00  0.00    +0.000 A 
ATOM     15  C   UNL     1     -14.900  15.816 -46.814  0.00  0.00    +0.000 A 
ENDBRANCH   5  10
BRANCH   4  17
ATOM     16  N   UNL     1     -13.635  18.640 -41.747  0.00  0.00    +0.000 NA
ATOM     17  C   UNL     1     -13.116  19.114 -42.833  0.00  0.00    +0.000 C 
BRANCH  16  18
ATOM     18  O   UNL     1     -14.706  19.474 -41.359  0.00  0.00    +0.000 OA
BRANCH  18  19
ATOM     19  C   UNL     1     -15.608  19.606 -42.464  0.00  0.00    +0.000 C 
BRANCH  19  21
ATOM     20 CL   UNL     1     -19.266  14.824 -43.034  0.00  0.00    +0.000 Cl
ATOM     21  C   UNL     1     -16.495  18.388 -42.572  0.00  0.00    +0.000 A 
ATOM     22  C   UNL     1     -18.296  16.989 -41.671  0.00  0.00    +0.000 A 
ATOM     23  C   UNL     1     -17.425  18.090 -41.561  0.00  0.00    +0.000 A 
ATOM     24  C   UNL     1     -16.440  17.562 -43.703  0.00  0.00    +0.000 A 
ATOM     25  C   UNL     1     -18.223  16.185 -42.814  0.00  0.00    +0.000 A 
ATOM     26  C   UNL     1     -17.299  16.467 -43.823  0.00  0.00    +0.000 A 
ATOM     27  C   UNL     1     -19.275  16.704 -40.564  0.00  0.00    +0.000 C 
ENDBRANCH  19  21
ENDBRANCH  18  19
ENDBRANCH  16  18
ENDBRANCH   4  17
TORSDOF 5
ENDMDL
MODEL 6
REMARK VINA RESULT:      -4.5     23.547     24.875
REMARK  Name = 130314408
REMARK  6 active torsions:
REMARK  status: ('A' for Active; 'I' for Inactive)
REMARK    1  A    between atoms: O_4  and  N_7
REMARK    2  A    between atoms: O_4  and  C_18
REMARK    3  A    between atoms: C_8  and  C_13
REMARK    4  A    between atoms: C_9  and  C_11
REMARK    5  A    between atoms: C_17  and  C_18
REMARK    6  A    between atoms: C_19  and  C_27
REMARK                            x       y       z     vdW  Elec       q    Type
REMARK                         _______ _______ _______ _____ _____    ______ ____
ROOT
ATOM      1  S   UNL     1     -26.394   4.461 -50.175  0.00  0.00    +0.000 S 
ATOM      2  N   UNL     1     -25.617   3.947 -52.570  0.00  0.00    +0.000 N 
ATOM      3  N   UNL     1     -24.949   6.009 -52.020  0.00  0.00    +0.000 NA
ATOM      4  C   UNL     1     -24.921   4.391 -53.664  0.00  0.00    +0.000 A 
ATOM      5  C   UNL     1     -24.549   5.695 -53.311  0.00  0.00    +0.000 A 
ATOM      6  C   UNL     1     -25.586   4.941 -51.638  0.00  0.00    +0.000 A 
ATOM      7  C   UNL     1     -26.260   2.794 -52.176  0.00  0.00    +0.000 A 
ATOM      8  C   UNL     1     -26.740   2.893 -50.923  0.00  0.00    +0.000 A 
ENDROOT
BRANCH   5  10
ATOM      9 CL   UNL     1     -21.717   9.873 -56.508  0.00  0.00    +0.000 Cl
ATOM     10  C   UNL     1     -23.808   6.631 -54.146  0.00  0.00    +0.000 A 
ATOM     11  C   UNL     1     -24.405   7.167 -55.296  0.00  0.00    +0.000 A 
ATOM     12  C   UNL     1     -22.504   7.034 -53.818  0.00  0.00    +0.000 A 
ATOM     13  C   UNL     1     -23.748   8.152 -56.044  0.00  0.00    +0.000 A 
ATOM     14  C   UNL     1     -21.859   8.035 -54.545  0.00  0.00    +0.000 A 
ATOM     15  C   UNL     1     -22.492   8.604 -55.646  0.00  0.00    +0.000 A 
ENDBRANCH   5  10
BRANCH   4  17
ATOM     16  N   UNL     1     -25.212   3.933 -55.981  0.00  0.00    +0.000 NA
ATOM     17  C   UNL     1     -24.642   3.646 -54.856  0.00  0.00    +0.000 C 
BRANCH  16  18
ATOM     18  O   UNL     1     -24.668   3.104 -56.985  0.00  0.00    +0.000 OA
BRANCH  18  19
ATOM     19  C   UNL     1     -23.277   2.901 -56.709  0.00  0.00    +0.000 C 
BRANCH  19  21
ATOM     20 CL   UNL     1     -19.992   7.635 -58.550  0.00  0.00    +0.000 Cl
ATOM     21  C   UNL     1     -22.473   4.109 -57.130  0.00  0.00    +0.000 A 
ATOM     22  C   UNL     1     -20.509   5.550 -56.853  0.00  0.00    +0.000 A 
ATOM     23  C   UNL     1     -21.299   4.460 -56.441  0.00  0.00    +0.000 A 
ATOM     24  C   UNL     1     -22.856   4.871 -58.241  0.00  0.00    +0.000 A 
ATOM     25  C   UNL     1     -20.912   6.291 -57.970  0.00  0.00    +0.000 A 
ATOM     26  C   UNL     1     -22.081   5.956 -58.659  0.00  0.00    +0.000 A 
ATOM     27  C   UNL     1     -19.260   5.893 -56.085  0.00  0.00    +0.000 C 
ENDBRANCH  19  21
ENDBRANCH  18  19
ENDBRANCH  16  18
ENDBRANCH   4  17
TORSDOF 5
ENDMDL
MODEL 7
REMARK VINA RESULT:      -4.5     18.245     20.192
REMARK  Name = 130314408
REMARK  6 active torsions:
REMARK  status: ('A' for Active; 'I' for Inactive)
REMARK    1  A    between atoms: O_4  and  N_7
REMARK    2  A    between atoms: O_4  and  C_18
REMARK    3  A    between atoms: C_8  and  C_13
REMARK    4  A    between atoms: C_9  and  C_11
REMARK    5  A    between atoms: C_17  and  C_18
REMARK    6  A    between atoms: C_19  and  C_27
REMARK                            x       y       z     vdW  Elec       q    Type
REMARK                         _______ _______ _______ _____ _____    ______ ____
ROOT
ATOM      1  S   UNL     1      -5.352  -5.433 -47.941  0.00  0.00    +0.000 S 
ATOM      2  N   UNL     1      -6.397  -4.048 -49.837  0.00  0.00    +0.000 N 
ATOM      3  N   UNL     1      -4.214  -3.579 -49.718  0.00  0.00    +0.000 NA
ATOM      4  C   UNL     1      -6.178  -3.154 -50.852  0.00  0.00    +0.000 A 
ATOM      5  C   UNL     1      -4.816  -2.847 -50.731  0.00  0.00    +0.000 A 
ATOM      6  C   UNL     1      -5.201  -4.262 -49.218  0.00  0.00    +0.000 A 
ATOM      7  C   UNL     1      -7.453  -4.784 -49.344  0.00  0.00    +0.000 A 
ATOM      8  C   UNL     1      -7.075  -5.577 -48.325  0.00  0.00    +0.000 A 
ENDROOT
BRANCH   5  10
ATOM      9 CL   UNL     1      -1.388   0.877 -53.907  0.00  0.00    +0.000 Cl
ATOM     10  C   UNL     1      -4.072  -1.907 -51.561  0.00  0.00    +0.000 A 
ATOM     11  C   UNL     1      -3.805  -0.615 -51.087  0.00  0.00    +0.000 A 
ATOM     12  C   UNL     1      -3.591  -2.270 -52.828  0.00  0.00    +0.000 A 
ATOM     13  C   UNL     1      -2.995   0.258 -51.824  0.00  0.00    +0.000 A 
ATOM     14  C   UNL     1      -2.761  -1.412 -53.553  0.00  0.00    +0.000 A 
ATOM     15  C   UNL     1      -2.452  -0.156 -53.038  0.00  0.00    +0.000 A 
ENDBRANCH   5  10
BRANCH   4  17
ATOM     16  N   UNL     1      -7.618  -1.492 -51.760  0.00  0.00    +0.000 NA
ATOM     17  C   UNL     1      -7.143  -2.694 -51.807  0.00  0.00    +0.000 C 
BRANCH  16  18
ATOM     18  O   UNL     1      -8.460  -1.299 -52.876  0.00  0.00    +0.000 OA
BRANCH  18  19
ATOM     19  C   UNL     1      -7.772  -1.739 -54.053  0.00  0.00    +0.000 C 
BRANCH  19  21
ATOM     20 CL   UNL     1      -3.713   2.365 -55.858  0.00  0.00    +0.000 Cl
ATOM     21  C   UNL     1      -6.795  -0.686 -54.520  0.00  0.00    +0.000 A 
ATOM     22  C   UNL     1      -5.704   1.487 -54.199  0.00  0.00    +0.000 A 
ATOM     23  C   UNL     1      -6.648   0.518 -53.809  0.00  0.00    +0.000 A 
ATOM     24  C   UNL     1      -5.985  -0.909 -55.642  0.00  0.00    +0.000 A 
ATOM     25  C   UNL     1      -4.905   1.234 -55.320  0.00  0.00    +0.000 A 
ATOM     26  C   UNL     1      -5.046   0.045 -56.039  0.00  0.00    +0.000 A 
ATOM     27  C   UNL     1      -5.581   2.763 -53.411  0.00  0.00    +0.000 C 
ENDBRANCH  19  21
ENDBRANCH  18  19
ENDBRANCH  16  18
ENDBRANCH   4  17
TORSDOF 5
ENDMDL
MODEL 8
REMARK VINA RESULT:      -4.4     21.782     23.881
REMARK  Name = 130314408
REMARK  6 active torsions:
REMARK  status: ('A' for Active; 'I' for Inactive)
REMARK    1  A    between atoms: O_4  and  N_7
REMARK    2  A    between atoms: O_4  and  C_18
REMARK    3  A    between atoms: C_8  and  C_13
REMARK    4  A    between atoms: C_9  and  C_11
REMARK    5  A    between atoms: C_17  and  C_18
REMARK    6  A    between atoms: C_19  and  C_27
REMARK                            x       y       z     vdW  Elec       q    Type
REMARK                         _______ _______ _______ _____ _____    ______ ____
ROOT
ATOM      1  S   UNL     1      -4.493   5.743 -54.263  0.00  0.00    +0.000 S 
ATOM      2  N   UNL     1      -4.341   3.395 -55.297  0.00  0.00    +0.000 N 
ATOM      3  N   UNL     1      -5.599   3.291 -53.452  0.00  0.00    +0.000 NA
ATOM      4  C   UNL     1      -4.740   2.086 -55.222  0.00  0.00    +0.000 A 
ATOM      5  C   UNL     1      -5.491   2.039 -54.039  0.00  0.00    +0.000 A 
ATOM      6  C   UNL     1      -4.889   4.049 -54.235  0.00  0.00    +0.000 A 
ATOM      7  C   UNL     1      -3.608   4.184 -56.158  0.00  0.00    +0.000 A 
ATOM      8  C   UNL     1      -3.582   5.467 -55.758  0.00  0.00    +0.000 A 
ENDROOT
BRANCH   5  10
ATOM      9 CL   UNL     1      -8.338  -2.532 -51.450  0.00  0.00    +0.000 Cl
ATOM     10  C   UNL     1      -6.125   0.856 -53.473  0.00  0.00    +0.000 A 
ATOM     11  C   UNL     1      -5.637   0.303 -52.281  0.00  0.00    +0.000 A 
ATOM     12  C   UNL     1      -7.239   0.258 -54.083  0.00  0.00    +0.000 A 
ATOM     13  C   UNL     1      -6.306  -0.763 -51.666  0.00  0.00    +0.000 A 
ATOM     14  C   UNL     1      -7.923  -0.787 -53.459  0.00  0.00    +0.000 A 
ATOM     15  C   UNL     1      -7.464  -1.281 -52.242  0.00  0.00    +0.000 A 
ENDBRANCH   5  10
BRANCH   4  17
ATOM     16  N   UNL     1      -4.562   1.252 -57.443  0.00  0.00    +0.000 NA
ATOM     17  C   UNL     1      -4.453   1.051 -56.170  0.00  0.00    +0.000 C 
BRANCH  16  18
ATOM     18  O   UNL     1      -4.120   0.095 -58.120  0.00  0.00    +0.000 OA
BRANCH  18  19
ATOM     19  C   UNL     1      -3.765   0.455 -59.460  0.00  0.00    +0.000 C 
BRANCH  19  21
ATOM     20 CL   UNL     1      -8.660   0.934 -62.980  0.00  0.00    +0.000 Cl
ATOM     21  C   UNL     1      -5.003   0.612 -60.312  0.00  0.00    +0.000 A 
ATOM     22  C   UNL     1      -6.240   1.814 -62.055  0.00  0.00    +0.000 A 
ATOM     23  C   UNL     1      -5.117   1.682 -61.215  0.00  0.00    +0.000 A 
ATOM     24  C   UNL     1      -6.038  -0.331 -60.249  0.00  0.00    +0.000 A 
ATOM     25  C   UNL     1      -7.256   0.854 -61.976  0.00  0.00    +0.000 A 
ATOM     26  C   UNL     1      -7.157  -0.210 -61.076  0.00  0.00    +0.000 A 
ATOM     27  C   UNL     1      -6.322   2.977 -63.007  0.00  0.00    +0.000 C 
ENDBRANCH  19  21
ENDBRANCH  18  19
ENDBRANCH  16  18
ENDBRANCH   4  17
TORSDOF 5
ENDMDL
MODEL 9
REMARK VINA RESULT:      -4.2     15.979     17.517
REMARK  Name = 130314408
REMARK  6 active torsions:
REMARK  status: ('A' for Active; 'I' for Inactive)
REMARK    1  A    between atoms: O_4  and  N_7
REMARK    2  A    between atoms: O_4  and  C_18
REMARK    3  A    between atoms: C_8  and  C_13
REMARK    4  A    between atoms: C_9  and  C_11
REMARK    5  A    between atoms: C_17  and  C_18
REMARK    6  A    between atoms: C_19  and  C_27
REMARK                            x       y       z     vdW  Elec       q    Type
REMARK                         _______ _______ _______ _____ _____    ______ ____
ROOT
ATOM      1  S   UNL     1     -11.411  20.766 -40.831  0.00  0.00    +0.000 S 
ATOM      2  N   UNL     1     -11.610  18.854 -42.536  0.00  0.00    +0.000 N 
ATOM      3  N   UNL     1      -9.454  19.399 -42.311  0.00  0.00    +0.000 NA
ATOM      4  C   UNL     1     -10.944  17.981 -43.356  0.00  0.00    +0.000 A 
ATOM      5  C   UNL     1      -9.603  18.369 -43.228  0.00  0.00    +0.000 A 
ATOM      6  C   UNL     1     -10.676  19.651 -41.945  0.00  0.00    +0.000 A 
ATOM      7  C   UNL     1     -12.911  19.082 -42.141  0.00  0.00    +0.000 A 
ATOM      8  C   UNL     1     -12.990  20.072 -41.234  0.00  0.00    +0.000 A 
ENDROOT
BRANCH   5  10
ATOM      9 CL   UNL     1      -5.202  15.551 -46.126  0.00  0.00    +0.000 Cl
ATOM     10  C   UNL     1      -8.469  17.775 -43.925  0.00  0.00    +0.000 A 
ATOM     11  C   UNL     1      -7.548  16.987 -43.219  0.00  0.00    +0.000 A 
ATOM     12  C   UNL     1      -8.280  17.953 -45.304  0.00  0.00    +0.000 A 
ATOM     13  C   UNL     1      -6.520  16.319 -43.895  0.00  0.00    +0.000 A 
ATOM     14  C   UNL     1      -7.273  17.266 -45.984  0.00  0.00    +0.000 A 
ATOM     15  C   UNL     1      -6.407  16.437 -45.279  0.00  0.00    +0.000 A 
ENDBRANCH   5  10
BRANCH   4  17
ATOM     16  N   UNL     1     -11.995  17.122 -45.310  0.00  0.00    +0.000 NA
ATOM     17  C   UNL     1     -11.524  16.919 -44.123  0.00  0.00    +0.000 C 
BRANCH  16  18
ATOM     18  O   UNL     1     -12.402  15.884 -45.850  0.00  0.00    +0.000 OA
BRANCH  18  19
ATOM     19  C   UNL     1     -13.532  15.409 -45.109  0.00  0.00    +0.000 C 
BRANCH  19  21
ATOM     20 CL   UNL     1     -18.468  15.562 -48.601  0.00  0.00    +0.000 Cl
ATOM     21  C   UNL     1     -14.769  15.398 -45.976  0.00  0.00    +0.000 A 
ATOM     22  C   UNL     1     -17.206  15.246 -46.193  0.00  0.00    +0.000 A 
ATOM     23  C   UNL     1     -16.039  15.206 -45.407  0.00  0.00    +0.000 A 
ATOM     24  C   UNL     1     -14.676  15.627 -47.356  0.00  0.00    +0.000 A 
ATOM     25  C   UNL     1     -17.084  15.483 -47.567  0.00  0.00    +0.000 A 
ATOM     26  C   UNL     1     -15.827  15.669 -48.146  0.00  0.00    +0.000 A 
ATOM     27  C   UNL     1     -18.547  15.033 -45.542  0.00  0.00    +0.000 C 
ENDBRANCH  19  21
ENDBRANCH  18  19
ENDBRANCH  16  18
ENDBRANCH   4  17
TORSDOF 5
ENDMDL
MODEL 10
REMARK VINA RESULT:      -4.2     26.165     28.084
REMARK  Name = 130314408
REMARK  6 active torsions:
REMARK  status: ('A' for Active; 'I' for Inactive)
REMARK    1  A    between atoms: O_4  and  N_7
REMARK    2  A    between atoms: O_4  and  C_18
REMARK    3  A    between atoms: C_8  and  C_13
REMARK    4  A    between atoms: C_9  and  C_11
REMARK    5  A    between atoms: C_17  and  C_18
REMARK    6  A    between atoms: C_19  and  C_27
REMARK                            x       y       z     vdW  Elec       q    Type
REMARK                         _______ _______ _______ _____ _____    ______ ____
ROOT
ATOM      1  S   UNL     1     -17.357  12.307 -59.409  0.00  0.00    +0.000 S 
ATOM      2  N   UNL     1     -14.919  12.289 -60.223  0.00  0.00    +0.000 N 
ATOM      3  N   UNL     1     -14.935  12.228 -57.988  0.00  0.00    +0.000 NA
ATOM      4  C   UNL     1     -13.597  12.219 -59.868  0.00  0.00    +0.000 A 
ATOM      5  C   UNL     1     -13.633  12.222 -58.467  0.00  0.00    +0.000 A 
ATOM      6  C   UNL     1     -15.651  12.280 -59.073  0.00  0.00    +0.000 A 
ATOM      7  C   UNL     1     -15.657  12.313 -61.387  0.00  0.00    +0.000 A 
ATOM      8  C   UNL     1     -16.979  12.327 -61.139  0.00  0.00    +0.000 A 
ENDROOT
BRANCH   5  10
ATOM      9 CL   UNL     1      -8.649  11.930 -55.183  0.00  0.00    +0.000 Cl
ATOM     10  C   UNL     1     -12.477  12.192 -57.580  0.00  0.00    +0.000 A 
ATOM     11  C   UNL     1     -12.142  11.008 -56.906  0.00  0.00    +0.000 A 
ATOM     12  C   UNL     1     -11.665  13.322 -57.396  0.00  0.00    +0.000 A 
ATOM     13  C   UNL     1     -10.971  10.933 -56.143  0.00  0.00    +0.000 A 
ATOM     14  C   UNL     1     -10.482  13.241 -56.657  0.00  0.00    +0.000 A 
ATOM     15  C   UNL     1     -10.131  12.041 -56.048  0.00  0.00    +0.000 A 
ENDBRANCH   5  10
BRANCH   4  17
ATOM     16  N   UNL     1     -11.752  11.068 -60.832  0.00  0.00    +0.000 NA
ATOM     17  C   UNL     1     -12.478  12.135 -60.759  0.00  0.00    +0.000 C 
BRANCH  16  18
ATOM     18  O   UNL     1     -10.798  11.243 -61.858  0.00  0.00    +0.000 OA
BRANCH  18  19
ATOM     19  C   UNL     1     -11.487  11.534 -63.080  0.00  0.00    +0.000 C 
BRANCH  19  21
ATOM     20 CL   UNL     1      -7.516  12.886 -67.438  0.00  0.00    +0.000 Cl
ATOM     21  C   UNL     1     -10.505  11.920 -64.161  0.00  0.00    +0.000 A 
ATOM     22  C   UNL     1      -8.316  12.806 -64.822  0.00  0.00    +0.000 A 
ATOM     23  C   UNL     1      -9.264  12.490 -63.830  0.00  0.00    +0.000 A 
ATOM     24  C   UNL     1     -10.794  11.672 -65.510  0.00  0.00    +0.000 A 
ATOM     25  C   UNL     1      -8.629  12.542 -66.160  0.00  0.00    +0.000 A 
ATOM     26  C   UNL     1      -9.862  11.981 -66.503  0.00  0.00    +0.000 A 
ATOM     27  C   UNL     1      -7.000  13.418 -64.422  0.00  0.00    +0.000 C 
ENDBRANCH  19  21
ENDBRANCH  18  19
ENDBRANCH  16  18
ENDBRANCH   4  17
TORSDOF 5
ENDMDL
