MODEL 1
REMARK VINA RESULT:      -6.1      0.000      0.000
REMARK  Name = 141519298
REMARK  4 active torsions:
REMARK  status: ('A' for Active; 'I' for Inactive)
REMARK    1  A    between atoms: O_5  and  N_8
REMARK    2  A    between atoms: O_5  and  C_21
REMARK    3  A    between atoms: C_9  and  C_14
REMARK    4  A    between atoms: C_10  and  C_12
REMARK                            x       y       z     vdW  Elec       q    Type
REMARK                         _______ _______ _______ _____ _____    ______ ____
ROOT
ATOM      1  S   UNL     1     -10.737   1.112 -32.957  0.00  0.00    +0.000 S 
ATOM      2  N   UNL     1     -11.408   2.947 -34.648  0.00  0.00    +0.000 N 
ATOM      3  N   UNL     1      -9.176   2.804 -34.531  0.00  0.00    +0.000 NA
ATOM      4  C   UNL     1     -10.949   3.921 -35.515  0.00  0.00    +0.000 A 
ATOM      5  C   UNL     1      -9.554   3.793 -35.418  0.00  0.00    +0.000 A 
ATOM      6  C   UNL     1     -10.310   2.363 -34.080  0.00  0.00    +0.000 A 
ATOM      7  C   UNL     1     -12.607   2.389 -34.243  0.00  0.00    +0.000 A 
ATOM      8  C   UNL     1     -12.431   1.410 -33.340  0.00  0.00    +0.000 A 
ENDROOT
BRANCH   5  10
ATOM      9 CL   UNL     1      -5.283   6.811 -38.316  0.00  0.00    +0.000 Cl
ATOM     10  C   UNL     1      -8.540   4.560 -36.128  0.00  0.00    +0.000 A 
ATOM     11  C   UNL     1      -7.816   3.943 -37.164  0.00  0.00    +0.000 A 
ATOM     12  C   UNL     1      -8.221   5.875 -35.774  0.00  0.00    +0.000 A 
ATOM     13  C   UNL     1      -6.812   4.638 -37.843  0.00  0.00    +0.000 A 
ATOM     14  C   UNL     1      -7.224   6.574 -36.460  0.00  0.00    +0.000 A 
ATOM     15  C   UNL     1      -6.524   5.952 -37.491  0.00  0.00    +0.000 A 
ENDBRANCH   5  10
BRANCH   4  17
ATOM     16  N   UNL     1     -12.460   5.813 -36.138  0.00  0.00    +0.000 NA
ATOM     17  C   UNL     1     -11.697   4.789 -36.394  0.00  0.00    +0.000 C 
BRANCH  16  18
ATOM     18  O   UNL     1     -12.470   6.154 -34.792  0.00  0.00    +0.000 OA
BRANCH  18  21
ATOM     19 CL   UNL     1     -16.836   8.467 -35.486  0.00  0.00    +0.000 Cl
ATOM     20 CL   UNL     1     -18.049   6.786 -32.977  0.00  0.00    +0.000 Cl
ATOM     21  C   UNL     1     -13.747   6.246 -34.287  0.00  0.00    +0.000 A 
ATOM     22  C   UNL     1     -14.573   7.136 -34.977  0.00  0.00    +0.000 A 
ATOM     23  C   UNL     1     -14.259   5.536 -33.195  0.00  0.00    +0.000 A 
ATOM     24  C   UNL     1     -15.897   7.329 -34.590  0.00  0.00    +0.000 A 
ATOM     25  C   UNL     1     -15.588   5.721 -32.804  0.00  0.00    +0.000 A 
ATOM     26  C   UNL     1     -16.411   6.613 -33.500  0.00  0.00    +0.000 A 
ENDBRANCH  18  21
ENDBRANCH  16  18
ENDBRANCH   4  17
TORSDOF 4
ENDMDL
MODEL 2
REMARK VINA RESULT:      -6.0     22.699     24.538
REMARK  Name = 141519298
REMARK  4 active torsions:
REMARK  status: ('A' for Active; 'I' for Inactive)
REMARK    1  A    between atoms: O_5  and  N_8
REMARK    2  A    between atoms: O_5  and  C_21
REMARK    3  A    between atoms: C_9  and  C_14
REMARK    4  A    between atoms: C_10  and  C_12
REMARK                            x       y       z     vdW  Elec       q    Type
REMARK                         _______ _______ _______ _____ _____    ______ ____
ROOT
ATOM      1  S   UNL     1     -21.403  11.639 -58.202  0.00  0.00    +0.000 S 
ATOM      2  N   UNL     1     -20.230   9.641 -57.058  0.00  0.00    +0.000 N 
ATOM      3  N   UNL     1     -22.334   9.814 -56.310  0.00  0.00    +0.000 NA
ATOM      4  C   UNL     1     -20.357   8.623 -56.132  0.00  0.00    +0.000 A 
ATOM      5  C   UNL     1     -21.684   8.761 -55.696  0.00  0.00    +0.000 A 
ATOM      6  C   UNL     1     -21.417  10.319 -57.077  0.00  0.00    +0.000 A 
ATOM      7  C   UNL     1     -19.301  10.122 -57.964  0.00  0.00    +0.000 A 
ATOM      8  C   UNL     1     -19.759  11.186 -58.644  0.00  0.00    +0.000 A 
ENDROOT
BRANCH   5  10
ATOM      9 CL   UNL     1     -24.722   5.428 -51.771  0.00  0.00    +0.000 Cl
ATOM     10  C   UNL     1     -22.388   7.941 -54.720  0.00  0.00    +0.000 A 
ATOM     11  C   UNL     1     -23.310   6.980 -55.172  0.00  0.00    +0.000 A 
ATOM     12  C   UNL     1     -22.222   8.119 -53.343  0.00  0.00    +0.000 A 
ATOM     13  C   UNL     1     -24.030   6.200 -54.263  0.00  0.00    +0.000 A 
ATOM     14  C   UNL     1     -22.933   7.332 -52.433  0.00  0.00    +0.000 A 
ATOM     15  C   UNL     1     -23.833   6.377 -52.897  0.00  0.00    +0.000 A 
ENDBRANCH   5  10
BRANCH   4  17
ATOM     16  N   UNL     1     -19.127   6.456 -56.335  0.00  0.00    +0.000 NA
ATOM     17  C   UNL     1     -19.410   7.594 -55.770  0.00  0.00    +0.000 C 
BRANCH  16  18
ATOM     18  O   UNL     1     -19.807   6.264 -57.531  0.00  0.00    +0.000 OA
BRANCH  18  21
ATOM     19 CL   UNL     1     -24.284   5.157 -59.434  0.00  0.00    +0.000 Cl
ATOM     20 CL   UNL     1     -24.502   2.696 -57.316  0.00  0.00    +0.000 Cl
ATOM     21  C   UNL     1     -20.864   5.394 -57.395  0.00  0.00    +0.000 A 
ATOM     22  C   UNL     1     -21.904   5.610 -58.302  0.00  0.00    +0.000 A 
ATOM     23  C   UNL     1     -20.963   4.350 -56.469  0.00  0.00    +0.000 A 
ATOM     24  C   UNL     1     -23.039   4.802 -58.294  0.00  0.00    +0.000 A 
ATOM     25  C   UNL     1     -22.096   3.532 -56.458  0.00  0.00    +0.000 A 
ATOM     26  C   UNL     1     -23.134   3.751 -57.370  0.00  0.00    +0.000 A 
ENDBRANCH  18  21
ENDBRANCH  16  18
ENDBRANCH   4  17
TORSDOF 4
ENDMDL
MODEL 3
REMARK VINA RESULT:      -5.8     22.504     25.780
REMARK  Name = 141519298
REMARK  4 active torsions:
REMARK  status: ('A' for Active; 'I' for Inactive)
REMARK    1  A    between atoms: O_5  and  N_8
REMARK    2  A    between atoms: O_5  and  C_21
REMARK    3  A    between atoms: C_9  and  C_14
REMARK    4  A    between atoms: C_10  and  C_12
REMARK                            x       y       z     vdW  Elec       q    Type
REMARK                         _______ _______ _______ _____ _____    ______ ____
ROOT
ATOM      1  S   UNL     1       1.874   7.904 -58.596  0.00  0.00    +0.000 S 
ATOM      2  N   UNL     1      -0.657   8.233 -59.000  0.00  0.00    +0.000 N 
ATOM      3  N   UNL     1      -0.340   6.816 -57.296  0.00  0.00    +0.000 NA
ATOM      4  C   UNL     1      -1.931   7.868 -58.607  0.00  0.00    +0.000 A 
ATOM      5  C   UNL     1      -1.688   6.991 -57.538  0.00  0.00    +0.000 A 
ATOM      6  C   UNL     1       0.222   7.545 -58.211  0.00  0.00    +0.000 A 
ATOM      7  C   UNL     1      -0.044   9.093 -59.895  0.00  0.00    +0.000 A 
ATOM      8  C   UNL     1       1.296   9.033 -59.819  0.00  0.00    +0.000 A 
ENDROOT
BRANCH   5  10
ATOM      9 CL   UNL     1      -5.632   4.191 -54.023  0.00  0.00    +0.000 Cl
ATOM     10  C   UNL     1      -2.672   6.300 -56.716  0.00  0.00    +0.000 A 
ATOM     11  C   UNL     1      -3.154   6.927 -55.554  0.00  0.00    +0.000 A 
ATOM     12  C   UNL     1      -3.108   5.005 -57.013  0.00  0.00    +0.000 A 
ATOM     13  C   UNL     1      -4.071   6.279 -54.722  0.00  0.00    +0.000 A 
ATOM     14  C   UNL     1      -4.034   4.359 -56.187  0.00  0.00    +0.000 A 
ATOM     15  C   UNL     1      -4.510   4.999 -55.047  0.00  0.00    +0.000 A 
ENDBRANCH   5  10
BRANCH   4  17
ATOM     16  N   UNL     1      -4.025   7.849 -59.972  0.00  0.00    +0.000 NA
ATOM     17  C   UNL     1      -3.207   8.344 -59.088  0.00  0.00    +0.000 C 
BRANCH  16  18
ATOM     18  O   UNL     1      -3.612   6.615 -60.457  0.00  0.00    +0.000 OA
BRANCH  18  21
ATOM     19 CL   UNL     1      -6.012   3.817 -63.820  0.00  0.00    +0.000 Cl
ATOM     20 CL   UNL     1      -7.963   2.752 -61.442  0.00  0.00    +0.000 Cl
ATOM     21  C   UNL     1      -4.659   5.732 -60.593  0.00  0.00    +0.000 A 
ATOM     22  C   UNL     1      -4.837   5.250 -61.891  0.00  0.00    +0.000 A 
ATOM     23  C   UNL     1      -5.509   5.292 -59.572  0.00  0.00    +0.000 A 
ATOM     24  C   UNL     1      -5.852   4.340 -62.184  0.00  0.00    +0.000 A 
ATOM     25  C   UNL     1      -6.525   4.376 -59.856  0.00  0.00    +0.000 A 
ATOM     26  C   UNL     1      -6.698   3.895 -61.158  0.00  0.00    +0.000 A 
ENDBRANCH  18  21
ENDBRANCH  16  18
ENDBRANCH   4  17
TORSDOF 4
ENDMDL
MODEL 4
REMARK VINA RESULT:      -5.7     13.666     15.386
REMARK  Name = 141519298
REMARK  4 active torsions:
REMARK  status: ('A' for Active; 'I' for Inactive)
REMARK    1  A    between atoms: O_5  and  N_8
REMARK    2  A    between atoms: O_5  and  C_21
REMARK    3  A    between atoms: C_9  and  C_14
REMARK    4  A    between atoms: C_10  and  C_12
REMARK                            x       y       z     vdW  Elec       q    Type
REMARK                         _______ _______ _______ _____ _____    ______ ____
ROOT
ATOM      1  S   UNL     1       3.249  12.474 -41.422  0.00  0.00    +0.000 S 
ATOM      2  N   UNL     1       0.872  11.469 -41.312  0.00  0.00    +0.000 N 
ATOM      3  N   UNL     1       0.752  13.704 -41.250  0.00  0.00    +0.000 NA
ATOM      4  C   UNL     1      -0.479  11.744 -41.202  0.00  0.00    +0.000 A 
ATOM      5  C   UNL     1      -0.509  13.148 -41.175  0.00  0.00    +0.000 A 
ATOM      6  C   UNL     1       1.530  12.666 -41.294  0.00  0.00    +0.000 A 
ATOM      7  C   UNL     1       1.707  10.377 -41.474  0.00  0.00    +0.000 A 
ATOM      8  C   UNL     1       3.000  10.734 -41.539  0.00  0.00    +0.000 A 
ENDROOT
BRANCH   5  10
ATOM      9 CL   UNL     1      -5.417  16.540 -40.788  0.00  0.00    +0.000 Cl
ATOM     10  C   UNL     1      -1.681  14.008 -41.083  0.00  0.00    +0.000 A 
ATOM     11  C   UNL     1      -2.636  13.758 -40.082  0.00  0.00    +0.000 A 
ATOM     12  C   UNL     1      -1.917  15.040 -41.997  0.00  0.00    +0.000 A 
ATOM     13  C   UNL     1      -3.790  14.542 -39.987  0.00  0.00    +0.000 A 
ATOM     14  C   UNL     1      -3.065  15.831 -41.896  0.00  0.00    +0.000 A 
ATOM     15  C   UNL     1      -3.995  15.578 -40.892  0.00  0.00    +0.000 A 
ENDBRANCH   5  10
BRANCH   4  17
ATOM     16  N   UNL     1      -2.451  10.549 -42.165  0.00  0.00    +0.000 NA
ATOM     17  C   UNL     1      -1.601  10.836 -41.222  0.00  0.00    +0.000 C 
BRANCH  16  18
ATOM     18  O   UNL     1      -2.155  11.176 -43.368  0.00  0.00    +0.000 OA
BRANCH  18  21
ATOM     19 CL   UNL     1      -3.023  14.935 -46.532  0.00  0.00    +0.000 Cl
ATOM     20 CL   UNL     1      -5.972  15.285 -45.201  0.00  0.00    +0.000 Cl
ATOM     21  C   UNL     1      -3.102  12.112 -43.715  0.00  0.00    +0.000 A 
ATOM     22  C   UNL     1      -2.725  12.945 -44.770  0.00  0.00    +0.000 A 
ATOM     23  C   UNL     1      -4.362  12.273 -43.127  0.00  0.00    +0.000 A 
ATOM     24  C   UNL     1      -3.583  13.936 -45.242  0.00  0.00    +0.000 A 
ATOM     25  C   UNL     1      -5.230  13.261 -43.597  0.00  0.00    +0.000 A 
ATOM     26  C   UNL     1      -4.847  14.092 -44.655  0.00  0.00    +0.000 A 
ENDBRANCH  18  21
ENDBRANCH  16  18
ENDBRANCH   4  17
TORSDOF 4
ENDMDL
MODEL 5
REMARK VINA RESULT:      -5.7      4.693      7.327
REMARK  Name = 141519298
REMARK  4 active torsions:
REMARK  status: ('A' for Active; 'I' for Inactive)
REMARK    1  A    between atoms: O_5  and  N_8
REMARK    2  A    between atoms: O_5  and  C_21
REMARK    3  A    between atoms: C_9  and  C_14
REMARK    4  A    between atoms: C_10  and  C_12
REMARK                            x       y       z     vdW  Elec       q    Type
REMARK                         _______ _______ _______ _____ _____    ______ ____
ROOT
ATOM      1  S   UNL     1     -12.263   6.425 -32.474  0.00  0.00    +0.000 S 
ATOM      2  N   UNL     1     -11.051   4.474 -33.659  0.00  0.00    +0.000 N 
ATOM      3  N   UNL     1      -9.934   6.382 -34.007  0.00  0.00    +0.000 NA
ATOM      4  C   UNL     1      -9.985   4.113 -34.461  0.00  0.00    +0.000 A 
ATOM      5  C   UNL     1      -9.310   5.330 -34.648  0.00  0.00    +0.000 A 
ATOM      6  C   UNL     1     -10.975   5.825 -33.469  0.00  0.00    +0.000 A 
ATOM      7  C   UNL     1     -12.103   3.877 -32.985  0.00  0.00    +0.000 A 
ATOM      8  C   UNL     1     -12.849   4.771 -32.317  0.00  0.00    +0.000 A 
ENDROOT
BRANCH   5  10
ATOM      9 CL   UNL     1      -4.207   6.293 -37.611  0.00  0.00    +0.000 Cl
ATOM     10  C   UNL     1      -8.088   5.560 -35.406  0.00  0.00    +0.000 A 
ATOM     11  C   UNL     1      -6.918   4.871 -35.042  0.00  0.00    +0.000 A 
ATOM     12  C   UNL     1      -8.025   6.490 -36.448  0.00  0.00    +0.000 A 
ATOM     13  C   UNL     1      -5.718   5.093 -35.724  0.00  0.00    +0.000 A 
ATOM     14  C   UNL     1      -6.829   6.705 -37.139  0.00  0.00    +0.000 A 
ATOM     15  C   UNL     1      -5.682   6.006 -36.773  0.00  0.00    +0.000 A 
ENDBRANCH   5  10
BRANCH   4  17
ATOM     16  N   UNL     1      -8.739   1.947 -34.414  0.00  0.00    +0.000 NA
ATOM     17  C   UNL     1      -9.584   2.801 -34.913  0.00  0.00    +0.000 C 
BRANCH  16  18
ATOM     18  O   UNL     1      -8.210   2.360 -33.198  0.00  0.00    +0.000 OA
BRANCH  18  21
ATOM     19 CL   UNL     1      -3.643   2.977 -31.285  0.00  0.00    +0.000 Cl
ATOM     20 CL   UNL     1      -3.155  -0.225 -31.590  0.00  0.00    +0.000 Cl
ATOM     21  C   UNL     1      -7.064   1.673 -32.868  0.00  0.00    +0.000 A 
ATOM     22  C   UNL     1      -6.056   2.469 -32.321  0.00  0.00    +0.000 A 
ATOM     23  C   UNL     1      -6.850   0.298 -33.020  0.00  0.00    +0.000 A 
ATOM     24  C   UNL     1      -4.840   1.914 -31.928  0.00  0.00    +0.000 A 
ATOM     25  C   UNL     1      -5.635  -0.266 -32.624  0.00  0.00    +0.000 A 
ATOM     26  C   UNL     1      -4.629   0.535 -32.075  0.00  0.00    +0.000 A 
ENDBRANCH  18  21
ENDBRANCH  16  18
ENDBRANCH   4  17
TORSDOF 4
ENDMDL
MODEL 6
REMARK VINA RESULT:      -5.7     15.562     17.247
REMARK  Name = 141519298
REMARK  4 active torsions:
REMARK  status: ('A' for Active; 'I' for Inactive)
REMARK    1  A    between atoms: O_5  and  N_8
REMARK    2  A    between atoms: O_5  and  C_21
REMARK    3  A    between atoms: C_9  and  C_14
REMARK    4  A    between atoms: C_10  and  C_12
REMARK                            x       y       z     vdW  Elec       q    Type
REMARK                         _______ _______ _______ _____ _____    ______ ____
ROOT
ATOM      1  S   UNL     1     -18.380  17.710 -41.535  0.00  0.00    +0.000 S 
ATOM      2  N   UNL     1     -17.650  16.009 -43.338  0.00  0.00    +0.000 N 
ATOM      3  N   UNL     1     -16.131  17.647 -43.183  0.00  0.00    +0.000 NA
ATOM      4  C   UNL     1     -16.698  15.696 -44.290  0.00  0.00    +0.000 A 
ATOM      5  C   UNL     1     -15.766  16.737 -44.155  0.00  0.00    +0.000 A 
ATOM      6  C   UNL     1     -17.268  17.187 -42.759  0.00  0.00    +0.000 A 
ATOM      7  C   UNL     1     -18.804  15.472 -42.797  0.00  0.00    +0.000 A 
ATOM      8  C   UNL     1     -19.325  16.254 -41.836  0.00  0.00    +0.000 A 
ENDROOT
BRANCH   5  10
ATOM      9 CL   UNL     1     -10.779  17.539 -47.354  0.00  0.00    +0.000 Cl
ATOM     10  C   UNL     1     -14.529  16.924 -44.900  0.00  0.00    +0.000 A 
ATOM     11  C   UNL     1     -14.385  18.063 -45.711  0.00  0.00    +0.000 A 
ATOM     12  C   UNL     1     -13.501  15.975 -44.881  0.00  0.00    +0.000 A 
ATOM     13  C   UNL     1     -13.225  18.257 -46.468  0.00  0.00    +0.000 A 
ATOM     14  C   UNL     1     -12.337  16.173 -45.629  0.00  0.00    +0.000 A 
ATOM     15  C   UNL     1     -12.205  17.312 -46.418  0.00  0.00    +0.000 A 
ENDBRANCH   5  10
BRANCH   4  17
ATOM     16  N   UNL     1     -16.811  14.396 -46.422  0.00  0.00    +0.000 NA
ATOM     17  C   UNL     1     -16.607  14.534 -45.144  0.00  0.00    +0.000 C 
BRANCH  16  18
ATOM     18  O   UNL     1     -17.078  15.600 -47.059  0.00  0.00    +0.000 OA
BRANCH  18  21
ATOM     19 CL   UNL     1     -12.913  16.094 -49.761  0.00  0.00    +0.000 Cl
ATOM     20 CL   UNL     1     -14.690  15.673 -52.455  0.00  0.00    +0.000 Cl
ATOM     21  C   UNL     1     -16.615  15.618 -48.355  0.00  0.00    +0.000 A 
ATOM     22  C   UNL     1     -15.236  15.804 -48.468  0.00  0.00    +0.000 A 
ATOM     23  C   UNL     1     -17.386  15.457 -49.512  0.00  0.00    +0.000 A 
ATOM     24  C   UNL     1     -14.618  15.835 -49.717  0.00  0.00    +0.000 A 
ATOM     25  C   UNL     1     -16.772  15.482 -50.767  0.00  0.00    +0.000 A 
ATOM     26  C   UNL     1     -15.390  15.667 -50.875  0.00  0.00    +0.000 A 
ENDBRANCH  18  21
ENDBRANCH  16  18
ENDBRANCH   4  17
TORSDOF 4
ENDMDL
MODEL 7
REMARK VINA RESULT:      -5.6      6.904      8.759
REMARK  Name = 141519298
REMARK  4 active torsions:
REMARK  status: ('A' for Active; 'I' for Inactive)
REMARK    1  A    between atoms: O_5  and  N_8
REMARK    2  A    between atoms: O_5  and  C_21
REMARK    3  A    between atoms: C_9  and  C_14
REMARK    4  A    between atoms: C_10  and  C_12
REMARK                            x       y       z     vdW  Elec       q    Type
REMARK                         _______ _______ _______ _____ _____    ______ ____
ROOT
ATOM      1  S   UNL     1     -10.891  13.385 -33.775  0.00  0.00    +0.000 S 
ATOM      2  N   UNL     1     -10.709  11.142 -32.505  0.00  0.00    +0.000 N 
ATOM      3  N   UNL     1     -10.603  10.774 -34.711  0.00  0.00    +0.000 NA
ATOM      4  C   UNL     1     -10.597   9.770 -32.625  0.00  0.00    +0.000 A 
ATOM      5  C   UNL     1     -10.525   9.584 -34.015  0.00  0.00    +0.000 A 
ATOM      6  C   UNL     1     -10.746  11.656 -33.771  0.00  0.00    +0.000 A 
ATOM      7  C   UNL     1     -10.749  12.105 -31.512  0.00  0.00    +0.000 A 
ATOM      8  C   UNL     1     -10.855  13.347 -32.014  0.00  0.00    +0.000 A 
ENDROOT
BRANCH   5  10
ATOM      9 CL   UNL     1      -9.791   4.482 -37.045  0.00  0.00    +0.000 Cl
ATOM     10  C   UNL     1     -10.382   8.326 -34.736  0.00  0.00    +0.000 A 
ATOM     11  C   UNL     1      -9.136   7.674 -34.731  0.00  0.00    +0.000 A 
ATOM     12  C   UNL     1     -11.428   7.776 -35.483  0.00  0.00    +0.000 A 
ATOM     13  C   UNL     1      -8.952   6.484 -35.442  0.00  0.00    +0.000 A 
ATOM     14  C   UNL     1     -11.249   6.580 -36.185  0.00  0.00    +0.000 A 
ATOM     15  C   UNL     1     -10.012   5.941 -36.161  0.00  0.00    +0.000 A 
ENDBRANCH   5  10
BRANCH   4  17
ATOM     16  N   UNL     1      -9.437   8.379 -30.903  0.00  0.00    +0.000 NA
ATOM     17  C   UNL     1     -10.470   8.769 -31.591  0.00  0.00    +0.000 C 
BRANCH  16  18
ATOM     18  O   UNL     1      -8.296   9.124 -31.172  0.00  0.00    +0.000 OA
BRANCH  18  21
ATOM     19 CL   UNL     1      -7.753   7.599 -26.452  0.00  0.00    +0.000 Cl
ATOM     20 CL   UNL     1      -4.682   8.673 -26.529  0.00  0.00    +0.000 Cl
ATOM     21  C   UNL     1      -7.388   9.078 -30.139  0.00  0.00    +0.000 A 
ATOM     22  C   UNL     1      -7.871   8.471 -28.978  0.00  0.00    +0.000 A 
ATOM     23  C   UNL     1      -6.075   9.559 -30.169  0.00  0.00    +0.000 A 
ATOM     24  C   UNL     1      -7.064   8.341 -27.849  0.00  0.00    +0.000 A 
ATOM     25  C   UNL     1      -5.258   9.429 -29.043  0.00  0.00    +0.000 A 
ATOM     26  C   UNL     1      -5.746   8.818 -27.883  0.00  0.00    +0.000 A 
ENDBRANCH  18  21
ENDBRANCH  16  18
ENDBRANCH   4  17
TORSDOF 4
ENDMDL
MODEL 8
REMARK VINA RESULT:      -5.6     20.078     23.287
REMARK  Name = 141519298
REMARK  4 active torsions:
REMARK  status: ('A' for Active; 'I' for Inactive)
REMARK    1  A    between atoms: O_5  and  N_8
REMARK    2  A    between atoms: O_5  and  C_21
REMARK    3  A    between atoms: C_9  and  C_14
REMARK    4  A    between atoms: C_10  and  C_12
REMARK                            x       y       z     vdW  Elec       q    Type
REMARK                         _______ _______ _______ _____ _____    ______ ____
ROOT
ATOM      1  S   UNL     1      -4.523   5.600 -54.389  0.00  0.00    +0.000 S 
ATOM      2  N   UNL     1      -4.202   3.218 -55.337  0.00  0.00    +0.000 N 
ATOM      3  N   UNL     1      -5.625   3.159 -53.610  0.00  0.00    +0.000 NA
ATOM      4  C   UNL     1      -4.532   1.882 -55.201  0.00  0.00    +0.000 A 
ATOM      5  C   UNL     1      -5.427   1.891 -54.120  0.00  0.00    +0.000 A 
ATOM      6  C   UNL     1      -4.850   3.897 -54.344  0.00  0.00    +0.000 A 
ATOM      7  C   UNL     1      -3.469   4.033 -56.182  0.00  0.00    +0.000 A 
ATOM      8  C   UNL     1      -3.525   5.324 -55.814  0.00  0.00    +0.000 A 
ENDROOT
BRANCH   5  10
ATOM      9 CL   UNL     1      -8.421  -2.697 -51.725  0.00  0.00    +0.000 Cl
ATOM     10  C   UNL     1      -6.120   0.753 -53.531  0.00  0.00    +0.000 A 
ATOM     11  C   UNL     1      -7.260   0.240 -54.174  0.00  0.00    +0.000 A 
ATOM     12  C   UNL     1      -5.722   0.190 -52.314  0.00  0.00    +0.000 A 
ATOM     13  C   UNL     1      -7.971  -0.828 -53.620  0.00  0.00    +0.000 A 
ATOM     14  C   UNL     1      -6.426  -0.885 -51.764  0.00  0.00    +0.000 A 
ATOM     15  C   UNL     1      -7.546  -1.388 -52.419  0.00  0.00    +0.000 A 
ENDBRANCH   5  10
BRANCH   4  17
ATOM     16  N   UNL     1      -4.217   0.583 -57.313  0.00  0.00    +0.000 NA
ATOM     17  C   UNL     1      -4.152   0.758 -56.025  0.00  0.00    +0.000 C 
BRANCH  16  18
ATOM     18  O   UNL     1      -4.653   1.714 -57.990  0.00  0.00    +0.000 OA
BRANCH  18  21
ATOM     19 CL   UNL     1      -6.848   3.696 -62.009  0.00  0.00    +0.000 Cl
ATOM     20 CL   UNL     1      -8.107   0.772 -62.681  0.00  0.00    +0.000 Cl
ATOM     21  C   UNL     1      -5.479   1.403 -59.046  0.00  0.00    +0.000 A 
ATOM     22  C   UNL     1      -5.744   2.474 -59.902  0.00  0.00    +0.000 A 
ATOM     23  C   UNL     1      -6.035   0.148 -59.320  0.00  0.00    +0.000 A 
ATOM     24  C   UNL     1      -6.556   2.311 -61.022  0.00  0.00    +0.000 A 
ATOM     25  C   UNL     1      -6.847  -0.024 -60.445  0.00  0.00    +0.000 A 
ATOM     26  C   UNL     1      -7.108   1.052 -61.299  0.00  0.00    +0.000 A 
ENDBRANCH  18  21
ENDBRANCH  16  18
ENDBRANCH   4  17
TORSDOF 4
ENDMDL
MODEL 9
REMARK VINA RESULT:      -5.5      5.117      6.578
REMARK  Name = 141519298
REMARK  4 active torsions:
REMARK  status: ('A' for Active; 'I' for Inactive)
REMARK    1  A    between atoms: O_5  and  N_8
REMARK    2  A    between atoms: O_5  and  C_21
REMARK    3  A    between atoms: C_9  and  C_14
REMARK    4  A    between atoms: C_10  and  C_12
REMARK                            x       y       z     vdW  Elec       q    Type
REMARK                         _______ _______ _______ _____ _____    ______ ____
ROOT
ATOM      1  S   UNL     1     -10.949  13.275 -33.646  0.00  0.00    +0.000 S 
ATOM      2  N   UNL     1     -10.442  10.978 -32.577  0.00  0.00    +0.000 N 
ATOM      3  N   UNL     1     -10.882  10.718 -34.756  0.00  0.00    +0.000 NA
ATOM      4  C   UNL     1     -10.353   9.615 -32.792  0.00  0.00    +0.000 A 
ATOM      5  C   UNL     1     -10.626   9.498 -34.164  0.00  0.00    +0.000 A 
ATOM      6  C   UNL     1     -10.795  11.552 -33.766  0.00  0.00    +0.000 A 
ATOM      7  C   UNL     1     -10.242  11.891 -31.557  0.00  0.00    +0.000 A 
ATOM      8  C   UNL     1     -10.478  13.153 -31.953  0.00  0.00    +0.000 A 
ENDROOT
BRANCH   5  10
ATOM      9 CL   UNL     1     -10.881   4.440 -37.342  0.00  0.00    +0.000 Cl
ATOM     10  C   UNL     1     -10.656   8.279 -34.961  0.00  0.00    +0.000 A 
ATOM     11  C   UNL     1     -11.890   7.811 -35.447  0.00  0.00    +0.000 A 
ATOM     12  C   UNL     1      -9.505   7.526 -35.210  0.00  0.00    +0.000 A 
ATOM     13  C   UNL     1     -11.961   6.626 -36.186  0.00  0.00    +0.000 A 
ATOM     14  C   UNL     1      -9.573   6.347 -35.958  0.00  0.00    +0.000 A 
ATOM     15  C   UNL     1     -10.800   5.903 -36.442  0.00  0.00    +0.000 A 
ENDBRANCH   5  10
BRANCH   4  17
ATOM     16  N   UNL     1     -10.672   7.649 -31.282  0.00  0.00    +0.000 NA
ATOM     17  C   UNL     1      -9.966   8.569 -31.874  0.00  0.00    +0.000 C 
BRANCH  16  18
ATOM     18  O   UNL     1     -12.002   7.648 -31.682  0.00  0.00    +0.000 OA
BRANCH  18  21
ATOM     19 CL   UNL     1     -10.128   3.384 -33.471  0.00  0.00    +0.000 Cl
ATOM     20 CL   UNL     1     -13.159   2.417 -34.156  0.00  0.00    +0.000 Cl
ATOM     21  C   UNL     1     -12.367   6.459 -32.272  0.00  0.00    +0.000 A 
ATOM     22  C   UNL     1     -11.297   5.606 -32.551  0.00  0.00    +0.000 A 
ATOM     23  C   UNL     1     -13.670   6.055 -32.583  0.00  0.00    +0.000 A 
ATOM     24  C   UNL     1     -11.510   4.361 -33.139  0.00  0.00    +0.000 A 
ATOM     25  C   UNL     1     -13.892   4.806 -33.168  0.00  0.00    +0.000 A 
ATOM     26  C   UNL     1     -12.817   3.955 -33.445  0.00  0.00    +0.000 A 
ENDBRANCH  18  21
ENDBRANCH  16  18
ENDBRANCH   4  17
TORSDOF 4
ENDMDL
MODEL 10
REMARK VINA RESULT:      -5.5     17.831     21.019
REMARK  Name = 141519298
REMARK  4 active torsions:
REMARK  status: ('A' for Active; 'I' for Inactive)
REMARK    1  A    between atoms: O_5  and  N_8
REMARK    2  A    between atoms: O_5  and  C_21
REMARK    3  A    between atoms: C_9  and  C_14
REMARK    4  A    between atoms: C_10  and  C_12
REMARK                            x       y       z     vdW  Elec       q    Type
REMARK                         _______ _______ _______ _____ _____    ______ ____
ROOT
ATOM      1  S   UNL     1      -4.357   2.096 -51.806  0.00  0.00    +0.000 S 
ATOM      2  N   UNL     1      -6.207   0.677 -52.920  0.00  0.00    +0.000 N 
ATOM      3  N   UNL     1      -5.770  -0.120 -50.875  0.00  0.00    +0.000 NA
ATOM      4  C   UNL     1      -7.044  -0.415 -52.784  0.00  0.00    +0.000 A 
ATOM      5  C   UNL     1      -6.745  -0.877 -51.493  0.00  0.00    +0.000 A 
ATOM      6  C   UNL     1      -5.464   0.761 -51.776  0.00  0.00    +0.000 A 
ATOM      7  C   UNL     1      -5.950   1.692 -53.826  0.00  0.00    +0.000 A 
ATOM      8  C   UNL     1      -4.988   2.524 -53.394  0.00  0.00    +0.000 A 
ENDROOT
BRANCH   5  10
ATOM      9 CL   UNL     1      -9.194  -5.430 -48.490  0.00  0.00    +0.000 Cl
ATOM     10  C   UNL     1      -7.340  -2.010 -50.796  0.00  0.00    +0.000 A 
ATOM     11  C   UNL     1      -8.494  -1.805 -50.019  0.00  0.00    +0.000 A 
ATOM     12  C   UNL     1      -6.765  -3.284 -50.827  0.00  0.00    +0.000 A 
ATOM     13  C   UNL     1      -9.070  -2.862 -49.309  0.00  0.00    +0.000 A 
ATOM     14  C   UNL     1      -7.347  -4.344 -50.125  0.00  0.00    +0.000 A 
ATOM     15  C   UNL     1      -8.496  -4.127 -49.369  0.00  0.00    +0.000 A 
ENDBRANCH   5  10
BRANCH   4  17
ATOM     16  N   UNL     1      -7.961  -1.592 -54.790  0.00  0.00    +0.000 NA
ATOM     17  C   UNL     1      -8.058  -0.907 -53.687  0.00  0.00    +0.000 C 
BRANCH  16  18
ATOM     18  O   UNL     1      -6.655  -1.968 -55.077  0.00  0.00    +0.000 OA
BRANCH  18  21
ATOM     19 CL   UNL     1      -5.469  -6.277 -52.860  0.00  0.00    +0.000 Cl
ATOM     20 CL   UNL     1      -6.114  -7.815 -55.654  0.00  0.00    +0.000 Cl
ATOM     21  C   UNL     1      -6.542  -3.319 -55.312  0.00  0.00    +0.000 A 
ATOM     22  C   UNL     1      -6.141  -4.062 -54.199  0.00  0.00    +0.000 A 
ATOM     23  C   UNL     1      -6.801  -3.974 -56.521  0.00  0.00    +0.000 A 
ATOM     24  C   UNL     1      -5.992  -5.445 -54.278  0.00  0.00    +0.000 A 
ATOM     25  C   UNL     1      -6.658  -5.362 -56.606  0.00  0.00    +0.000 A 
ATOM     26  C   UNL     1      -6.258  -6.101 -55.488  0.00  0.00    +0.000 A 
ENDBRANCH  18  21
ENDBRANCH  16  18
ENDBRANCH   4  17
TORSDOF 4
ENDMDL
