REMARK  Name = 141519298
REMARK  4 active torsions:
REMARK  status: ('A' for Active; 'I' for Inactive)
REMARK    1  A    between atoms: O_5  and  N_8
REMARK    2  A    between atoms: O_5  and  C_21
REMARK    3  A    between atoms: C_9  and  C_14
REMARK    4  A    between atoms: C_10  and  C_12
REMARK                            x       y       z     vdW  Elec       q    Type
REMARK                         _______ _______ _______ _____ _____    ______ ____
ROOT
ATOM      1  S   UNL     1       7.322   0.710   1.592  0.00  0.00    +0.000 S 
ATOM      2  N   UNL     1       6.063  -0.259  -0.446  0.00  0.00    +0.000 N 
ATOM      3  N   UNL     1       4.592   0.479   1.072  0.00  0.00    +0.000 NA
ATOM      4  C   UNL     1       4.825  -0.542  -0.992  0.00  0.00    +0.000 A 
ATOM      5  C   UNL     1       3.937  -0.059  -0.018  0.00  0.00    +0.000 A 
ATOM      6  C   UNL     1       5.844   0.302   0.781  0.00  0.00    +0.000 A 
ATOM      7  C   UNL     1       7.401  -0.337  -0.791  0.00  0.00    +0.000 A 
ATOM      8  C   UNL     1       8.203   0.125   0.183  0.00  0.00    +0.000 A 
ENDROOT
BRANCH   5  10
ATOM      9 CL   UNL     1      -2.042  -0.082  -0.017  0.00  0.00    +0.000 Cl
ATOM     10  C   UNL     1       2.481  -0.073  -0.059  0.00  0.00    +0.000 A 
ATOM     11  C   UNL     1       1.770   0.975   0.552  0.00  0.00    +0.000 A 
ATOM     12  C   UNL     1       1.765  -1.127  -0.635  0.00  0.00    +0.000 A 
ATOM     13  C   UNL     1       0.372   0.976   0.563  0.00  0.00    +0.000 A 
ATOM     14  C   UNL     1       0.367  -1.122  -0.634  0.00  0.00    +0.000 A 
ATOM     15  C   UNL     1      -0.322  -0.071  -0.035  0.00  0.00    +0.000 A 
ENDBRANCH   5  10
BRANCH   4  17
ATOM     16  N   UNL     1       5.111  -1.989  -3.010  0.00  0.00    +0.000 NA
ATOM     17  C   UNL     1       4.502  -1.094  -2.287  0.00  0.00    +0.000 C 
BRANCH  16  18
ATOM     18  O   UNL     1       6.207  -2.548  -2.366  0.00  0.00    +0.000 OA
BRANCH  18  21
ATOM     19 CL   UNL     1      10.287  -5.416  -2.513  0.00  0.00    +0.000 Cl
ATOM     20 CL   UNL     1       9.410  -6.395  -5.490  0.00  0.00    +0.000 Cl
ATOM     21  C   UNL     1       6.895  -3.424  -3.174  0.00  0.00    +0.000 A 
ATOM     22  C   UNL     1       8.058  -3.941  -2.599  0.00  0.00    +0.000 A 
ATOM     23  C   UNL     1       6.525  -3.827  -4.462  0.00  0.00    +0.000 A 
ATOM     24  C   UNL     1       8.856  -4.849  -3.292  0.00  0.00    +0.000 A 
ATOM     25  C   UNL     1       7.318  -4.741  -5.161  0.00  0.00    +0.000 A 
ATOM     26  C   UNL     1       8.481  -5.257  -4.580  0.00  0.00    +0.000 A 
ENDBRANCH  18  21
ENDBRANCH  16  18
ENDBRANCH   4  17
TORSDOF 4
