MODEL 1
REMARK VINA RESULT:      -6.3      0.000      0.000
REMARK  Name = 141519298
REMARK  4 active torsions:
REMARK  status: ('A' for Active; 'I' for Inactive)
REMARK    1  A    between atoms: O_5  and  N_8
REMARK    2  A    between atoms: O_5  and  C_21
REMARK    3  A    between atoms: C_9  and  C_14
REMARK    4  A    between atoms: C_10  and  C_12
REMARK                            x       y       z     vdW  Elec       q    Type
REMARK                         _______ _______ _______ _____ _____    ______ ____
ROOT
ATOM      1  S   UNL     1     -11.253  -6.432  16.210  0.00  0.00    +0.000 S 
ATOM      2  N   UNL     1     -10.189  -8.529  15.139  0.00  0.00    +0.000 N 
ATOM      3  N   UNL     1      -9.103  -8.008  17.027  0.00  0.00    +0.000 NA
ATOM      4  C   UNL     1      -9.184  -9.474  15.237  0.00  0.00    +0.000 A 
ATOM      5  C   UNL     1      -8.537  -9.117  16.430  0.00  0.00    +0.000 A 
ATOM      6  C   UNL     1     -10.051  -7.682  16.203  0.00  0.00    +0.000 A 
ATOM      7  C   UNL     1     -11.274  -8.236  14.332  0.00  0.00    +0.000 A 
ATOM      8  C   UNL     1     -11.939  -7.147  14.753  0.00  0.00    +0.000 A 
ENDROOT
BRANCH   5  10
ATOM      9 CL   UNL     1      -3.901 -11.751  19.136  0.00  0.00    +0.000 Cl
ATOM     10  C   UNL     1      -7.397  -9.777  17.053  0.00  0.00    +0.000 A 
ATOM     11  C   UNL     1      -7.580 -10.451  18.274  0.00  0.00    +0.000 A 
ATOM     12  C   UNL     1      -6.112  -9.712  16.506  0.00  0.00    +0.000 A 
ATOM     13  C   UNL     1      -6.501 -11.065  18.917  0.00  0.00    +0.000 A 
ATOM     14  C   UNL     1      -5.034 -10.334  17.143  0.00  0.00    +0.000 A 
ATOM     15  C   UNL     1      -5.235 -11.007  18.345  0.00  0.00    +0.000 A 
ENDBRANCH   5  10
BRANCH   4  17
ATOM     16  N   UNL     1      -8.484 -10.690  13.169  0.00  0.00    +0.000 NA
ATOM     17  C   UNL     1      -8.919 -10.616  14.394  0.00  0.00    +0.000 C 
BRANCH  16  18
ATOM     18  O   UNL     1      -8.152  -9.451  12.638  0.00  0.00    +0.000 OA
BRANCH  18  21
ATOM     19 CL   UNL     1      -3.419 -10.719  13.580  0.00  0.00    +0.000 Cl
ATOM     20 CL   UNL     1      -2.613  -9.654  10.612  0.00  0.00    +0.000 Cl
ATOM     21  C   UNL     1      -6.891  -9.442  12.088  0.00  0.00    +0.000 A 
ATOM     22  C   UNL     1      -5.902  -9.985  12.911  0.00  0.00    +0.000 A 
ATOM     23  C   UNL     1      -6.545  -8.964  10.818  0.00  0.00    +0.000 A 
ATOM     24  C   UNL     1      -4.576 -10.054  12.487  0.00  0.00    +0.000 A 
ATOM     25  C   UNL     1      -5.218  -9.035  10.385  0.00  0.00    +0.000 A 
ATOM     26  C   UNL     1      -4.232  -9.582  11.213  0.00  0.00    +0.000 A 
ENDBRANCH  18  21
ENDBRANCH  16  18
ENDBRANCH   4  17
TORSDOF 4
ENDMDL
MODEL 2
REMARK VINA RESULT:      -6.2      4.885      7.755
REMARK  Name = 141519298
REMARK  4 active torsions:
REMARK  status: ('A' for Active; 'I' for Inactive)
REMARK    1  A    between atoms: O_5  and  N_8
REMARK    2  A    between atoms: O_5  and  C_21
REMARK    3  A    between atoms: C_9  and  C_14
REMARK    4  A    between atoms: C_10  and  C_12
REMARK                            x       y       z     vdW  Elec       q    Type
REMARK                         _______ _______ _______ _____ _____    ______ ____
ROOT
ATOM      1  S   UNL     1      -4.109 -11.584   9.408  0.00  0.00    +0.000 S 
ATOM      2  N   UNL     1      -3.035 -11.311  11.742  0.00  0.00    +0.000 N 
ATOM      3  N   UNL     1      -3.332 -13.485  11.294  0.00  0.00    +0.000 NA
ATOM      4  C   UNL     1      -2.579 -11.966  12.871  0.00  0.00    +0.000 A 
ATOM      5  C   UNL     1      -2.774 -13.318  12.547  0.00  0.00    +0.000 A 
ATOM      6  C   UNL     1      -3.497 -12.266  10.880  0.00  0.00    +0.000 A 
ATOM      7  C   UNL     1      -3.114 -10.024  11.240  0.00  0.00    +0.000 A 
ATOM      8  C   UNL     1      -3.668  -9.990  10.017  0.00  0.00    +0.000 A 
ENDROOT
BRANCH   5  10
ATOM      9 CL   UNL     1      -1.520 -18.007  16.039  0.00  0.00    +0.000 Cl
ATOM     10  C   UNL     1      -2.456 -14.482  13.363  0.00  0.00    +0.000 A 
ATOM     11  C   UNL     1      -3.394 -14.928  14.311  0.00  0.00    +0.000 A 
ATOM     12  C   UNL     1      -1.223 -15.134  13.277  0.00  0.00    +0.000 A 
ATOM     13  C   UNL     1      -3.108 -16.020  15.136  0.00  0.00    +0.000 A 
ATOM     14  C   UNL     1      -0.940 -16.232  14.095  0.00  0.00    +0.000 A 
ATOM     15  C   UNL     1      -1.884 -16.669  15.020  0.00  0.00    +0.000 A 
ENDBRANCH   5  10
BRANCH   4  17
ATOM     16  N   UNL     1      -2.423 -10.656  14.994  0.00  0.00    +0.000 NA
ATOM     17  C   UNL     1      -1.952 -11.422  14.053  0.00  0.00    +0.000 C 
BRANCH  16  18
ATOM     18  O   UNL     1      -3.782 -10.404  14.855  0.00  0.00    +0.000 OA
BRANCH  18  21
ATOM     19 CL   UNL     1      -3.370 -12.234  19.478  0.00  0.00    +0.000 Cl
ATOM     20 CL   UNL     1      -6.310 -11.012  20.151  0.00  0.00    +0.000 Cl
ATOM     21  C   UNL     1      -4.456 -10.509  16.049  0.00  0.00    +0.000 A 
ATOM     22  C   UNL     1      -3.752 -11.186  17.047  0.00  0.00    +0.000 A 
ATOM     23  C   UNL     1      -5.729 -10.000  16.329  0.00  0.00    +0.000 A 
ATOM     24  C   UNL     1      -4.302 -11.364  18.315  0.00  0.00    +0.000 A 
ATOM     25  C   UNL     1      -6.285 -10.170  17.600  0.00  0.00    +0.000 A 
ATOM     26  C   UNL     1      -5.574 -10.848  18.596  0.00  0.00    +0.000 A 
ENDBRANCH  18  21
ENDBRANCH  16  18
ENDBRANCH   4  17
TORSDOF 4
ENDMDL
MODEL 3
REMARK VINA RESULT:      -5.9     22.075     25.214
REMARK  Name = 141519298
REMARK  4 active torsions:
REMARK  status: ('A' for Active; 'I' for Inactive)
REMARK    1  A    between atoms: O_5  and  N_8
REMARK    2  A    between atoms: O_5  and  C_21
REMARK    3  A    between atoms: C_9  and  C_14
REMARK    4  A    between atoms: C_10  and  C_12
REMARK                            x       y       z     vdW  Elec       q    Type
REMARK                         _______ _______ _______ _____ _____    ______ ____
ROOT
ATOM      1  S   UNL     1       9.074  -5.028  38.581  0.00  0.00    +0.000 S 
ATOM      2  N   UNL     1       8.032  -5.043  36.216  0.00  0.00    +0.000 N 
ATOM      3  N   UNL     1      10.215  -5.520  36.085  0.00  0.00    +0.000 NA
ATOM      4  C   UNL     1       8.274  -5.203  34.865  0.00  0.00    +0.000 A 
ATOM      5  C   UNL     1       9.644  -5.507  34.828  0.00  0.00    +0.000 A 
ATOM      6  C   UNL     1       9.225  -5.205  36.862  0.00  0.00    +0.000 A 
ATOM      7  C   UNL     1       6.964  -4.820  37.068  0.00  0.00    +0.000 A 
ATOM      8  C   UNL     1       7.345  -4.773  38.356  0.00  0.00    +0.000 A 
ENDROOT
BRANCH   5  10
ATOM      9 CL   UNL     1      13.047  -6.824  30.091  0.00  0.00    +0.000 Cl
ATOM     10  C   UNL     1      10.459  -5.793  33.655  0.00  0.00    +0.000 A 
ATOM     11  C   UNL     1      10.455  -7.094  33.121  0.00  0.00    +0.000 A 
ATOM     12  C   UNL     1      11.292  -4.830  33.076  0.00  0.00    +0.000 A 
ATOM     13  C   UNL     1      11.251  -7.414  32.018  0.00  0.00    +0.000 A 
ATOM     14  C   UNL     1      12.081  -5.146  31.967  0.00  0.00    +0.000 A 
ATOM     15  C   UNL     1      12.057  -6.436  31.443  0.00  0.00    +0.000 A 
ENDBRANCH   5  10
BRANCH   4  17
ATOM     16  N   UNL     1       6.745  -6.144  33.126  0.00  0.00    +0.000 NA
ATOM     17  C   UNL     1       7.344  -5.177  33.760  0.00  0.00    +0.000 C 
BRANCH  16  18
ATOM     18  O   UNL     1       6.999  -7.391  33.680  0.00  0.00    +0.000 OA
BRANCH  18  21
ATOM     19 CL   UNL     1       6.934 -12.359  33.215  0.00  0.00    +0.000 Cl
ATOM     20 CL   UNL     1       6.721 -11.987  29.989  0.00  0.00    +0.000 Cl
ATOM     21  C   UNL     1       6.947  -8.398  32.743  0.00  0.00    +0.000 A 
ATOM     22  C   UNL     1       6.954  -9.685  33.284  0.00  0.00    +0.000 A 
ATOM     23  C   UNL     1       6.876  -8.234  31.355  0.00  0.00    +0.000 A 
ATOM     24  C   UNL     1       6.895 -10.808  32.460  0.00  0.00    +0.000 A 
ATOM     25  C   UNL     1       6.812  -9.355  30.523  0.00  0.00    +0.000 A 
ATOM     26  C   UNL     1       6.818 -10.642  31.070  0.00  0.00    +0.000 A 
ENDBRANCH  18  21
ENDBRANCH  16  18
ENDBRANCH   4  17
TORSDOF 4
ENDMDL
MODEL 4
REMARK VINA RESULT:      -5.9      4.462      6.978
REMARK  Name = 141519298
REMARK  4 active torsions:
REMARK  status: ('A' for Active; 'I' for Inactive)
REMARK    1  A    between atoms: O_5  and  N_8
REMARK    2  A    between atoms: O_5  and  C_21
REMARK    3  A    between atoms: C_9  and  C_14
REMARK    4  A    between atoms: C_10  and  C_12
REMARK                            x       y       z     vdW  Elec       q    Type
REMARK                         _______ _______ _______ _____ _____    ______ ____
ROOT
ATOM      1  S   UNL     1      -3.604 -10.209  10.753  0.00  0.00    +0.000 S 
ATOM      2  N   UNL     1      -3.213 -10.869  13.221  0.00  0.00    +0.000 N 
ATOM      3  N   UNL     1      -5.294 -11.424  12.609  0.00  0.00    +0.000 NA
ATOM      4  C   UNL     1      -3.779 -11.414  14.359  0.00  0.00    +0.000 A 
ATOM      5  C   UNL     1      -5.072 -11.754  13.931  0.00  0.00    +0.000 A 
ATOM      6  C   UNL     1      -4.176 -10.873  12.250  0.00  0.00    +0.000 A 
ATOM      7  C   UNL     1      -1.991 -10.382  12.790  0.00  0.00    +0.000 A 
ATOM      8  C   UNL     1      -2.029  -9.980  11.509  0.00  0.00    +0.000 A 
ENDROOT
BRANCH   5  10
ATOM      9 CL   UNL     1      -9.453 -14.192  17.189  0.00  0.00    +0.000 Cl
ATOM     10  C   UNL     1      -6.127 -12.386  14.712  0.00  0.00    +0.000 A 
ATOM     11  C   UNL     1      -7.434 -11.872  14.637  0.00  0.00    +0.000 A 
ATOM     12  C   UNL     1      -5.871 -13.452  15.580  0.00  0.00    +0.000 A 
ATOM     13  C   UNL     1      -8.464 -12.431  15.400  0.00  0.00    +0.000 A 
ATOM     14  C   UNL     1      -6.902 -14.019  16.335  0.00  0.00    +0.000 A 
ATOM     15  C   UNL     1      -8.193 -13.505  16.241  0.00  0.00    +0.000 A 
ENDBRANCH   5  10
BRANCH   4  17
ATOM     16  N   UNL     1      -3.278 -11.056  16.781  0.00  0.00    +0.000 NA
ATOM     17  C   UNL     1      -3.173 -11.679  15.643  0.00  0.00    +0.000 C 
BRANCH  16  18
ATOM     18  O   UNL     1      -4.195 -10.014  16.744  0.00  0.00    +0.000 OA
BRANCH  18  21
ATOM     19 CL   UNL     1      -8.994  -8.734  17.217  0.00  0.00    +0.000 Cl
ATOM     20 CL   UNL     1      -9.290 -10.969  19.563  0.00  0.00    +0.000 Cl
ATOM     21  C   UNL     1      -5.332 -10.295  17.466  0.00  0.00    +0.000 A 
ATOM     22  C   UNL     1      -6.449  -9.544  17.093  0.00  0.00    +0.000 A 
ATOM     23  C   UNL     1      -5.450 -11.243  18.489  0.00  0.00    +0.000 A 
ATOM     24  C   UNL     1      -7.676  -9.723  17.727  0.00  0.00    +0.000 A 
ATOM     25  C   UNL     1      -6.679 -11.432  19.126  0.00  0.00    +0.000 A 
ATOM     26  C   UNL     1      -7.795 -10.678  18.747  0.00  0.00    +0.000 A 
ENDBRANCH  18  21
ENDBRANCH  16  18
ENDBRANCH   4  17
TORSDOF 4
ENDMDL
MODEL 5
REMARK VINA RESULT:      -5.9     28.859     30.117
REMARK  Name = 141519298
REMARK  4 active torsions:
REMARK  status: ('A' for Active; 'I' for Inactive)
REMARK    1  A    between atoms: O_5  and  N_8
REMARK    2  A    between atoms: O_5  and  C_21
REMARK    3  A    between atoms: C_9  and  C_14
REMARK    4  A    between atoms: C_10  and  C_12
REMARK                            x       y       z     vdW  Elec       q    Type
REMARK                         _______ _______ _______ _____ _____    ______ ____
ROOT
ATOM      1  S   UNL     1      10.262  13.738  24.325  0.00  0.00    +0.000 S 
ATOM      2  N   UNL     1      12.484  13.421  23.045  0.00  0.00    +0.000 N 
ATOM      3  N   UNL     1      10.973  11.937  22.319  0.00  0.00    +0.000 NA
ATOM      4  C   UNL     1      13.153  12.679  22.090  0.00  0.00    +0.000 A 
ATOM      5  C   UNL     1      12.174  11.771  21.658  0.00  0.00    +0.000 A 
ATOM      6  C   UNL     1      11.225  12.900  23.150  0.00  0.00    +0.000 A 
ATOM      7  C   UNL     1      12.701  14.521  23.856  0.00  0.00    +0.000 A 
ATOM      8  C   UNL     1      11.627  14.816  24.608  0.00  0.00    +0.000 A 
ENDROOT
BRANCH   5  10
ATOM      9 CL   UNL     1      12.770   7.430  17.590  0.00  0.00    +0.000 Cl
ATOM     10  C   UNL     1      12.307  10.741  20.637  0.00  0.00    +0.000 A 
ATOM     11  C   UNL     1      11.738   9.475  20.864  0.00  0.00    +0.000 A 
ATOM     12  C   UNL     1      13.036  10.950  19.462  0.00  0.00    +0.000 A 
ATOM     13  C   UNL     1      11.876   8.452  19.922  0.00  0.00    +0.000 A 
ATOM     14  C   UNL     1      13.166   9.931  18.514  0.00  0.00    +0.000 A 
ATOM     15  C   UNL     1      12.586   8.687  18.749  0.00  0.00    +0.000 A 
ENDBRANCH   5  10
BRANCH   4  17
ATOM     16  N   UNL     1      15.554  12.108  21.690  0.00  0.00    +0.000 NA
ATOM     17  C   UNL     1      14.491  12.850  21.572  0.00  0.00    +0.000 C 
BRANCH  16  18
ATOM     18  O   UNL     1      15.310  10.919  22.365  0.00  0.00    +0.000 OA
BRANCH  18  21
ATOM     19 CL   UNL     1      14.887   6.304  20.516  0.00  0.00    +0.000 Cl
ATOM     20 CL   UNL     1      18.114   6.248  20.100  0.00  0.00    +0.000 Cl
ATOM     21  C   UNL     1      16.051   9.874  21.863  0.00  0.00    +0.000 A 
ATOM     22  C   UNL     1      15.292   8.766  21.478  0.00  0.00    +0.000 A 
ATOM     23  C   UNL     1      17.441   9.846  21.705  0.00  0.00    +0.000 A 
ATOM     24  C   UNL     1      15.901   7.634  20.942  0.00  0.00    +0.000 A 
ATOM     25  C   UNL     1      18.058   8.715  21.163  0.00  0.00    +0.000 A 
ATOM     26  C   UNL     1      17.293   7.609  20.777  0.00  0.00    +0.000 A 
ENDBRANCH  18  21
ENDBRANCH  16  18
ENDBRANCH   4  17
TORSDOF 4
ENDMDL
MODEL 6
REMARK VINA RESULT:      -5.8     18.489     19.898
REMARK  Name = 141519298
REMARK  4 active torsions:
REMARK  status: ('A' for Active; 'I' for Inactive)
REMARK    1  A    between atoms: O_5  and  N_8
REMARK    2  A    between atoms: O_5  and  C_21
REMARK    3  A    between atoms: C_9  and  C_14
REMARK    4  A    between atoms: C_10  and  C_12
REMARK                            x       y       z     vdW  Elec       q    Type
REMARK                         _______ _______ _______ _____ _____    ______ ____
ROOT
ATOM      1  S   UNL     1     -18.149   7.770  27.470  0.00  0.00    +0.000 S 
ATOM      2  N   UNL     1     -17.557   5.548  26.291  0.00  0.00    +0.000 N 
ATOM      3  N   UNL     1     -17.110   5.387  28.479  0.00  0.00    +0.000 NA
ATOM      4  C   UNL     1     -17.041   4.275  26.450  0.00  0.00    +0.000 A 
ATOM      5  C   UNL     1     -16.783   4.213  27.828  0.00  0.00    +0.000 A 
ATOM      6  C   UNL     1     -17.528   6.151  27.517  0.00  0.00    +0.000 A 
ATOM      7  C   UNL     1     -18.111   6.335  25.297  0.00  0.00    +0.000 A 
ATOM      8  C   UNL     1     -18.468   7.548  25.752  0.00  0.00    +0.000 A 
ENDROOT
BRANCH   5  10
ATOM      9 CL   UNL     1     -14.401  -0.370  30.839  0.00  0.00    +0.000 Cl
ATOM     10  C   UNL     1     -16.240   3.090  28.580  0.00  0.00    +0.000 A 
ATOM     11  C   UNL     1     -15.016   3.247  29.254  0.00  0.00    +0.000 A 
ATOM     12  C   UNL     1     -16.867   1.841  28.604  0.00  0.00    +0.000 A 
ATOM     13  C   UNL     1     -14.447   2.180  29.956  0.00  0.00    +0.000 A 
ATOM     14  C   UNL     1     -16.305   0.776  29.314  0.00  0.00    +0.000 A 
ATOM     15  C   UNL     1     -15.098   0.951  29.986  0.00  0.00    +0.000 A 
ENDBRANCH   5  10
BRANCH   4  17
ATOM     16  N   UNL     1     -16.032   3.052  24.517  0.00  0.00    +0.000 NA
ATOM     17  C   UNL     1     -16.898   3.219  25.475  0.00  0.00    +0.000 C 
BRANCH  16  18
ATOM     18  O   UNL     1     -15.043   4.028  24.507  0.00  0.00    +0.000 OA
BRANCH  18  21
ATOM     19 CL   UNL     1     -12.086   6.356  21.233  0.00  0.00    +0.000 Cl
ATOM     20 CL   UNL     1     -14.738   7.242  19.569  0.00  0.00    +0.000 Cl
ATOM     21  C   UNL     1     -15.073   4.788  23.361  0.00  0.00    +0.000 A 
ATOM     22  C   UNL     1     -13.813   5.160  22.887  0.00  0.00    +0.000 A 
ATOM     23  C   UNL     1     -16.217   5.184  22.659  0.00  0.00    +0.000 A 
ATOM     24  C   UNL     1     -13.680   5.923  21.729  0.00  0.00    +0.000 A 
ATOM     25  C   UNL     1     -16.091   5.945  21.494  0.00  0.00    +0.000 A 
ATOM     26  C   UNL     1     -14.827   6.314  21.023  0.00  0.00    +0.000 A 
ENDBRANCH  18  21
ENDBRANCH  16  18
ENDBRANCH   4  17
TORSDOF 4
ENDMDL
MODEL 7
REMARK VINA RESULT:      -5.7     29.894     31.120
REMARK  Name = 141519298
REMARK  4 active torsions:
REMARK  status: ('A' for Active; 'I' for Inactive)
REMARK    1  A    between atoms: O_5  and  N_8
REMARK    2  A    between atoms: O_5  and  C_21
REMARK    3  A    between atoms: C_9  and  C_14
REMARK    4  A    between atoms: C_10  and  C_12
REMARK                            x       y       z     vdW  Elec       q    Type
REMARK                         _______ _______ _______ _____ _____    ______ ____
ROOT
ATOM      1  S   UNL     1      13.876  17.204  25.990  0.00  0.00    +0.000 S 
ATOM      2  N   UNL     1      12.269  15.180  25.977  0.00  0.00    +0.000 N 
ATOM      3  N   UNL     1      11.647  16.652  24.409  0.00  0.00    +0.000 NA
ATOM      4  C   UNL     1      11.139  14.626  25.406  0.00  0.00    +0.000 A 
ATOM      5  C   UNL     1      10.788  15.570  24.429  0.00  0.00    +0.000 A 
ATOM      6  C   UNL     1      12.480  16.385  25.367  0.00  0.00    +0.000 A 
ATOM      7  C   UNL     1      13.232  14.858  26.918  0.00  0.00    +0.000 A 
ATOM      8  C   UNL     1      14.151  15.828  27.055  0.00  0.00    +0.000 A 
ENDROOT
BRANCH   5  10
ATOM      9 CL   UNL     1       6.317  15.360  20.465  0.00  0.00    +0.000 Cl
ATOM     10  C   UNL     1       9.673  15.509  23.494  0.00  0.00    +0.000 A 
ATOM     11  C   UNL     1       9.831  14.807  22.286  0.00  0.00    +0.000 A 
ATOM     12  C   UNL     1       8.467  16.176  23.733  0.00  0.00    +0.000 A 
ATOM     13  C   UNL     1       8.794  14.757  21.350  0.00  0.00    +0.000 A 
ATOM     14  C   UNL     1       7.425  16.118  22.803  0.00  0.00    +0.000 A 
ATOM     15  C   UNL     1       7.594  15.409  21.616  0.00  0.00    +0.000 A 
ENDBRANCH   5  10
BRANCH   4  17
ATOM     16  N   UNL     1      10.707  12.183  25.102  0.00  0.00    +0.000 NA
ATOM     17  C   UNL     1      10.522  13.345  25.659  0.00  0.00    +0.000 C 
BRANCH  16  18
ATOM     18  O   UNL     1      11.733  12.190  24.166  0.00  0.00    +0.000 OA
BRANCH  18  21
ATOM     19 CL   UNL     1      12.927  11.128  19.440  0.00  0.00    +0.000 Cl
ATOM     20 CL   UNL     1      11.229   8.365  19.702  0.00  0.00    +0.000 Cl
ATOM     21  C   UNL     1      11.546  11.249  23.180  0.00  0.00    +0.000 A 
ATOM     22  C   UNL     1      12.197  11.540  21.979  0.00  0.00    +0.000 A 
ATOM     23  C   UNL     1      10.798  10.072  23.290  0.00  0.00    +0.000 A 
ATOM     24  C   UNL     1      12.109  10.676  20.890  0.00  0.00    +0.000 A 
ATOM     25  C   UNL     1      10.709   9.198  22.203  0.00  0.00    +0.000 A 
ATOM     26  C   UNL     1      11.365   9.493  21.004  0.00  0.00    +0.000 A 
ENDBRANCH  18  21
ENDBRANCH  16  18
ENDBRANCH   4  17
TORSDOF 4
ENDMDL
MODEL 8
REMARK VINA RESULT:      -5.7     28.652     29.626
REMARK  Name = 141519298
REMARK  4 active torsions:
REMARK  status: ('A' for Active; 'I' for Inactive)
REMARK    1  A    between atoms: O_5  and  N_8
REMARK    2  A    between atoms: O_5  and  C_21
REMARK    3  A    between atoms: C_9  and  C_14
REMARK    4  A    between atoms: C_10  and  C_12
REMARK                            x       y       z     vdW  Elec       q    Type
REMARK                         _______ _______ _______ _____ _____    ______ ____
ROOT
ATOM      1  S   UNL     1      -1.720  19.726  22.508  0.00  0.00    +0.000 S 
ATOM      2  N   UNL     1      -0.388  17.589  23.089  0.00  0.00    +0.000 N 
ATOM      3  N   UNL     1       0.248  18.356  21.084  0.00  0.00    +0.000 NA
ATOM      4  C   UNL     1       0.562  16.684  22.653  0.00  0.00    +0.000 A 
ATOM      5  C   UNL     1       0.937  17.203  21.404  0.00  0.00    +0.000 A 
ATOM      6  C   UNL     1      -0.545  18.517  22.098  0.00  0.00    +0.000 A 
ATOM      7  C   UNL     1      -1.158  17.839  24.212  0.00  0.00    +0.000 A 
ATOM      8  C   UNL     1      -1.929  18.929  24.064  0.00  0.00    +0.000 A 
ENDROOT
BRANCH   5  10
ATOM      9 CL   UNL     1       5.061  15.162  17.586  0.00  0.00    +0.000 Cl
ATOM     10  C   UNL     1       1.929  16.667  20.482  0.00  0.00    +0.000 A 
ATOM     11  C   UNL     1       3.259  17.112  20.573  0.00  0.00    +0.000 A 
ATOM     12  C   UNL     1       1.588  15.766  19.467  0.00  0.00    +0.000 A 
ATOM     13  C   UNL     1       4.230  16.646  19.681  0.00  0.00    +0.000 A 
ATOM     14  C   UNL     1       2.559  15.291  18.582  0.00  0.00    +0.000 A 
ATOM     15  C   UNL     1       3.875  15.733  18.693  0.00  0.00    +0.000 A 
ENDBRANCH   5  10
BRANCH   4  17
ATOM     16  N   UNL     1       2.189  15.433  24.079  0.00  0.00    +0.000 NA
ATOM     17  C   UNL     1       1.122  15.545  23.342  0.00  0.00    +0.000 C 
BRANCH  16  18
ATOM     18  O   UNL     1       2.831  16.647  24.287  0.00  0.00    +0.000 OA
BRANCH  18  21
ATOM     19 CL   UNL     1       7.154  19.048  24.951  0.00  0.00    +0.000 Cl
ATOM     20 CL   UNL     1       8.633  16.725  23.218  0.00  0.00    +0.000 Cl
ATOM     21  C   UNL     1       4.169  16.589  23.973  0.00  0.00    +0.000 A 
ATOM     22  C   UNL     1       4.928  17.635  24.503  0.00  0.00    +0.000 A 
ATOM     23  C   UNL     1       4.799  15.599  23.210  0.00  0.00    +0.000 A 
ATOM     24  C   UNL     1       6.301  17.707  24.279  0.00  0.00    +0.000 A 
ATOM     25  C   UNL     1       6.176  15.662  22.985  0.00  0.00    +0.000 A 
ATOM     26  C   UNL     1       6.932  16.711  23.519  0.00  0.00    +0.000 A 
ENDBRANCH  18  21
ENDBRANCH  16  18
ENDBRANCH   4  17
TORSDOF 4
ENDMDL
MODEL 9
REMARK VINA RESULT:      -5.7      3.267      5.259
REMARK  Name = 141519298
REMARK  4 active torsions:
REMARK  status: ('A' for Active; 'I' for Inactive)
REMARK    1  A    between atoms: O_5  and  N_8
REMARK    2  A    between atoms: O_5  and  C_21
REMARK    3  A    between atoms: C_9  and  C_14
REMARK    4  A    between atoms: C_10  and  C_12
REMARK                            x       y       z     vdW  Elec       q    Type
REMARK                         _______ _______ _______ _____ _____    ______ ____
ROOT
ATOM      1  S   UNL     1     -10.087 -13.295  19.242  0.00  0.00    +0.000 S 
ATOM      2  N   UNL     1      -8.562 -11.380  18.412  0.00  0.00    +0.000 N 
ATOM      3  N   UNL     1     -10.672 -11.002  17.765  0.00  0.00    +0.000 NA
ATOM      4  C   UNL     1      -8.502 -10.201  17.694  0.00  0.00    +0.000 A 
ATOM      5  C   UNL     1      -9.838  -9.997  17.316  0.00  0.00    +0.000 A 
ATOM      6  C   UNL     1      -9.859 -11.809  18.376  0.00  0.00    +0.000 A 
ATOM      7  C   UNL     1      -7.729 -12.192  19.162  0.00  0.00    +0.000 A 
ATOM      8  C   UNL     1      -8.377 -13.257  19.664  0.00  0.00    +0.000 A 
ENDROOT
BRANCH   5  10
ATOM      9 CL   UNL     1     -12.188  -5.413  14.280  0.00  0.00    +0.000 Cl
ATOM     10  C   UNL     1     -10.384  -8.888  16.545  0.00  0.00    +0.000 A 
ATOM     11  C   UNL     1     -10.564  -7.643  17.172  0.00  0.00    +0.000 A 
ATOM     12  C   UNL     1     -10.791  -9.038  15.216  0.00  0.00    +0.000 A 
ATOM     13  C   UNL     1     -11.118  -6.567  16.473  0.00  0.00    +0.000 A 
ATOM     14  C   UNL     1     -11.336  -7.960  14.512  0.00  0.00    +0.000 A 
ATOM     15  C   UNL     1     -11.496  -6.730  15.144  0.00  0.00    +0.000 A 
ENDBRANCH   5  10
BRANCH   4  17
ATOM     16  N   UNL     1      -6.318  -9.465  16.725  0.00  0.00    +0.000 NA
ATOM     17  C   UNL     1      -7.376  -9.324  17.470  0.00  0.00    +0.000 C 
BRANCH  16  18
ATOM     18  O   UNL     1      -6.343 -10.628  15.967  0.00  0.00    +0.000 OA
BRANCH  18  21
ATOM     19 CL   UNL     1      -1.392 -10.875  15.401  0.00  0.00    +0.000 Cl
ATOM     20 CL   UNL     1      -1.825 -10.805  12.176  0.00  0.00    +0.000 Cl
ATOM     21  C   UNL     1      -5.355 -10.647  15.009  0.00  0.00    +0.000 A 
ATOM     22  C   UNL     1      -4.061 -10.742  15.524  0.00  0.00    +0.000 A 
ATOM     23  C   UNL     1      -5.545 -10.596  13.624  0.00  0.00    +0.000 A 
ATOM     24  C   UNL     1      -2.955 -10.783  14.676  0.00  0.00    +0.000 A 
ATOM     25  C   UNL     1      -4.441 -10.641  12.768  0.00  0.00    +0.000 A 
ATOM     26  C   UNL     1      -3.146 -10.738  13.288  0.00  0.00    +0.000 A 
ENDBRANCH  18  21
ENDBRANCH  16  18
ENDBRANCH   4  17
TORSDOF 4
ENDMDL
MODEL 10
REMARK VINA RESULT:      -5.5     29.316     30.587
REMARK  Name = 141519298
REMARK  4 active torsions:
REMARK  status: ('A' for Active; 'I' for Inactive)
REMARK    1  A    between atoms: O_5  and  N_8
REMARK    2  A    between atoms: O_5  and  C_21
REMARK    3  A    between atoms: C_9  and  C_14
REMARK    4  A    between atoms: C_10  and  C_12
REMARK                            x       y       z     vdW  Elec       q    Type
REMARK                         _______ _______ _______ _____ _____    ______ ____
ROOT
ATOM      1  S   UNL     1      14.417  15.135  26.202  0.00  0.00    +0.000 S 
ATOM      2  N   UNL     1      12.768  13.280  25.485  0.00  0.00    +0.000 N 
ATOM      3  N   UNL     1      12.226  15.205  24.478  0.00  0.00    +0.000 NA
ATOM      4  C   UNL     1      11.645  12.980  24.737  0.00  0.00    +0.000 A 
ATOM      5  C   UNL     1      11.345  14.204  24.120  0.00  0.00    +0.000 A 
ATOM      6  C   UNL     1      13.024  14.611  25.312  0.00  0.00    +0.000 A 
ATOM      7  C   UNL     1      13.694  12.635  26.286  0.00  0.00    +0.000 A 
ATOM      8  C   UNL     1      14.629  13.477  26.757  0.00  0.00    +0.000 A 
ENDROOT
BRANCH   5  10
ATOM      9 CL   UNL     1       6.990  15.466  20.222  0.00  0.00    +0.000 Cl
ATOM     10  C   UNL     1      10.257  14.488  23.194  0.00  0.00    +0.000 A 
ATOM     11  C   UNL     1      10.480  14.343  21.813  0.00  0.00    +0.000 A 
ATOM     12  C   UNL     1       9.015  14.959  23.630  0.00  0.00    +0.000 A 
ATOM     13  C   UNL     1       9.470  14.641  20.893  0.00  0.00    +0.000 A 
ATOM     14  C   UNL     1       8.001  15.248  22.712  0.00  0.00    +0.000 A 
ATOM     15  C   UNL     1       8.234  15.088  21.348  0.00  0.00    +0.000 A 
ENDBRANCH   5  10
BRANCH   4  17
ATOM     16  N   UNL     1      11.091  10.837  23.575  0.00  0.00    +0.000 NA
ATOM     17  C   UNL     1      10.992  11.706  24.539  0.00  0.00    +0.000 C 
BRANCH  16  18
ATOM     18  O   UNL     1      12.054  11.181  22.635  0.00  0.00    +0.000 OA
BRANCH  18  21
ATOM     19 CL   UNL     1      11.884   6.368  21.330  0.00  0.00    +0.000 Cl
ATOM     20 CL   UNL     1      15.128   6.393  21.073  0.00  0.00    +0.000 Cl
ATOM     21  C   UNL     1      12.855  10.115  22.296  0.00  0.00    +0.000 A 
ATOM     22  C   UNL     1      12.155   8.940  22.010  0.00  0.00    +0.000 A 
ATOM     23  C   UNL     1      14.251  10.124  22.206  0.00  0.00    +0.000 A 
ATOM     24  C   UNL     1      12.829   7.778  21.641  0.00  0.00    +0.000 A 
ATOM     25  C   UNL     1      14.933   8.963  21.831  0.00  0.00    +0.000 A 
ATOM     26  C   UNL     1      14.227   7.790  21.545  0.00  0.00    +0.000 A 
ENDBRANCH  18  21
ENDBRANCH  16  18
ENDBRANCH   4  17
TORSDOF 4
ENDMDL
