MODEL 1
REMARK VINA RESULT:      -4.7      0.000      0.000
REMARK  Name = 142505366
REMARK  6 active torsions:
REMARK  status: ('A' for Active; 'I' for Inactive)
REMARK    1  A    between atoms: O_4  and  N_7
REMARK    2  A    between atoms: O_4  and  C_22
REMARK    3  A    between atoms: C_8  and  C_10
REMARK    4  A    between atoms: C_9  and  C_15
REMARK    5  A    between atoms: C_16  and  C_20
REMARK    6  A    between atoms: C_21  and  C_22
REMARK                            x       y       z     vdW  Elec       q    Type
REMARK                         _______ _______ _______ _____ _____    ______ ____
ROOT
ATOM      1  S   UNL     1      -1.801 -16.886   6.910  0.00  0.00    +0.000 S 
ATOM      2  N   UNL     1       0.440 -17.409   5.768  0.00  0.00    +0.000 N 
ATOM      3  N   UNL     1      -0.706 -15.982   4.487  0.00  0.00    +0.000 NA
ATOM      4  C   UNL     1       0.504 -16.309   3.891  0.00  0.00    +0.000 A 
ATOM      5  C   UNL     1       1.262 -17.165   4.697  0.00  0.00    +0.000 A 
ATOM      6  C   UNL     1      -0.693 -16.672   5.589  0.00  0.00    +0.000 A 
ATOM      7  C   UNL     1       0.477 -18.150   6.931  0.00  0.00    +0.000 A 
ATOM      8  C   UNL     1      -0.640 -17.993   7.660  0.00  0.00    +0.000 A 
ENDROOT
BRANCH   4   9
ATOM      9  C   UNL     1       0.862 -15.815   2.566  0.00  0.00    +0.000 A 
ATOM     10  C   UNL     1       1.533 -14.593   2.439  0.00  0.00    +0.000 A 
ATOM     11  C   UNL     1       0.504 -16.504   1.397  0.00  0.00    +0.000 A 
ATOM     12  C   UNL     1       1.546 -14.802   0.019  0.00  0.00    +0.000 A 
ATOM     13  C   UNL     1       1.869 -14.088   1.178  0.00  0.00    +0.000 A 
ATOM     14  C   UNL     1       0.853 -16.010   0.139  0.00  0.00    +0.000 A 
ATOM     15  C   UNL     1       1.855 -14.251  -1.341  0.00  0.00    +0.000 C 
ENDBRANCH   4   9
BRANCH   5  17
ATOM     16  N   UNL     1       2.773 -18.668   3.673  0.00  0.00    +0.000 NA
ATOM     17  C   UNL     1       2.574 -17.696   4.503  0.00  0.00    +0.000 C 
BRANCH  16  18
ATOM     18  O   UNL     1       4.151 -18.938   3.605  0.00  0.00    +0.000 OA
BRANCH  18  19
ATOM     19  C   UNL     1       4.483 -19.209   2.240  0.00  0.00    +0.000 C 
BRANCH  19  22
ATOM     20 CL   UNL     1       4.488 -16.622  -2.292  0.00  0.00    +0.000 Cl
ATOM     21 CL   UNL     1       5.306 -13.950  -0.625  0.00  0.00    +0.000 Cl
ATOM     22  C   UNL     1       4.788 -17.943   1.474  0.00  0.00    +0.000 A 
ATOM     23  C   UNL     1       4.587 -17.857   0.088  0.00  0.00    +0.000 A 
ATOM     24  C   UNL     1       5.178 -16.791   2.173  0.00  0.00    +0.000 A 
ATOM     25  C   UNL     1       4.762 -16.642  -0.586  0.00  0.00    +0.000 A 
ATOM     26  C   UNL     1       5.349 -15.577   1.503  0.00  0.00    +0.000 A 
ATOM     27  C   UNL     1       5.130 -15.496   0.127  0.00  0.00    +0.000 A 
ENDBRANCH  19  22
ENDBRANCH  18  19
ENDBRANCH  16  18
ENDBRANCH   5  17
TORSDOF 5
ENDMDL
MODEL 2
REMARK VINA RESULT:      -4.6     36.591     38.112
REMARK  Name = 142505366
REMARK  6 active torsions:
REMARK  status: ('A' for Active; 'I' for Inactive)
REMARK    1  A    between atoms: O_4  and  N_7
REMARK    2  A    between atoms: O_4  and  C_22
REMARK    3  A    between atoms: C_8  and  C_10
REMARK    4  A    between atoms: C_9  and  C_15
REMARK    5  A    between atoms: C_16  and  C_20
REMARK    6  A    between atoms: C_21  and  C_22
REMARK                            x       y       z     vdW  Elec       q    Type
REMARK                         _______ _______ _______ _____ _____    ______ ____
ROOT
ATOM      1  S   UNL     1      11.878  12.939  23.126  0.00  0.00    +0.000 S 
ATOM      2  N   UNL     1      10.424  14.331  21.530  0.00  0.00    +0.000 N 
ATOM      3  N   UNL     1       9.579  14.483  23.592  0.00  0.00    +0.000 NA
ATOM      4  C   UNL     1       8.805  15.204  22.693  0.00  0.00    +0.000 A 
ATOM      5  C   UNL     1       9.341  15.164  21.403  0.00  0.00    +0.000 A 
ATOM      6  C   UNL     1      10.516  13.979  22.844  0.00  0.00    +0.000 A 
ATOM      7  C   UNL     1      11.407  13.809  20.715  0.00  0.00    +0.000 A 
ATOM      8  C   UNL     1      12.267  13.038  21.401  0.00  0.00    +0.000 A 
ENDROOT
BRANCH   4   9
ATOM      9  C   UNL     1       7.573  15.868  23.106  0.00  0.00    +0.000 A 
ATOM     10  C   UNL     1       6.337  15.270  22.829  0.00  0.00    +0.000 A 
ATOM     11  C   UNL     1       7.582  17.125  23.728  0.00  0.00    +0.000 A 
ATOM     12  C   UNL     1       5.160  17.132  23.854  0.00  0.00    +0.000 A 
ATOM     13  C   UNL     1       5.141  15.898  23.196  0.00  0.00    +0.000 A 
ATOM     14  C   UNL     1       6.390  17.744  24.109  0.00  0.00    +0.000 A 
ATOM     15  C   UNL     1       3.886  17.839  24.209  0.00  0.00    +0.000 C 
ENDBRANCH   4   9
BRANCH   5  17
ATOM     16  N   UNL     1       9.033  17.085  20.057  0.00  0.00    +0.000 NA
ATOM     17  C   UNL     1       8.908  15.805  20.202  0.00  0.00    +0.000 C 
BRANCH  16  18
ATOM     18  O   UNL     1       8.617  17.444  18.763  0.00  0.00    +0.000 OA
BRANCH  18  19
ATOM     19  C   UNL     1       7.326  18.051  18.865  0.00  0.00    +0.000 C 
BRANCH  19  22
ATOM     20 CL   UNL     1       2.776  16.161  20.586  0.00  0.00    +0.000 Cl
ATOM     21 CL   UNL     1       2.724  14.235  17.964  0.00  0.00    +0.000 Cl
ATOM     22  C   UNL     1       6.216  17.034  18.736  0.00  0.00    +0.000 A 
ATOM     23  C   UNL     1       5.140  17.002  19.636  0.00  0.00    +0.000 A 
ATOM     24  C   UNL     1       6.198  16.170  17.631  0.00  0.00    +0.000 A 
ATOM     25  C   UNL     1       4.062  16.132  19.432  0.00  0.00    +0.000 A 
ATOM     26  C   UNL     1       5.120  15.305  17.422  0.00  0.00    +0.000 A 
ATOM     27  C   UNL     1       4.047  15.291  18.315  0.00  0.00    +0.000 A 
ENDBRANCH  19  22
ENDBRANCH  18  19
ENDBRANCH  16  18
ENDBRANCH   5  17
TORSDOF 5
ENDMDL
MODEL 3
REMARK VINA RESULT:      -4.5     43.413     44.839
REMARK  Name = 142505366
REMARK  6 active torsions:
REMARK  status: ('A' for Active; 'I' for Inactive)
REMARK    1  A    between atoms: O_4  and  N_7
REMARK    2  A    between atoms: O_4  and  C_22
REMARK    3  A    between atoms: C_8  and  C_10
REMARK    4  A    between atoms: C_9  and  C_15
REMARK    5  A    between atoms: C_16  and  C_20
REMARK    6  A    between atoms: C_21  and  C_22
REMARK                            x       y       z     vdW  Elec       q    Type
REMARK                         _______ _______ _______ _____ _____    ______ ____
ROOT
ATOM      1  S   UNL     1      -6.620   5.731  43.394  0.00  0.00    +0.000 S 
ATOM      2  N   UNL     1      -5.153   7.103  41.792  0.00  0.00    +0.000 N 
ATOM      3  N   UNL     1      -3.993   5.325  42.489  0.00  0.00    +0.000 NA
ATOM      4  C   UNL     1      -3.224   6.107  41.638  0.00  0.00    +0.000 A 
ATOM      5  C   UNL     1      -3.945   7.202  41.150  0.00  0.00    +0.000 A 
ATOM      6  C   UNL     1      -5.120   5.971  42.552  0.00  0.00    +0.000 A 
ATOM      7  C   UNL     1      -6.339   7.805  41.843  0.00  0.00    +0.000 A 
ATOM      8  C   UNL     1      -7.234   7.217  42.654  0.00  0.00    +0.000 A 
ENDROOT
BRANCH   4   9
ATOM      9  C   UNL     1      -1.828   5.789  41.359  0.00  0.00    +0.000 A 
ATOM     10  C   UNL     1      -1.476   5.240  40.120  0.00  0.00    +0.000 A 
ATOM     11  C   UNL     1      -0.822   5.964  42.321  0.00  0.00    +0.000 A 
ATOM     12  C   UNL     1       0.858   5.124  40.786  0.00  0.00    +0.000 A 
ATOM     13  C   UNL     1      -0.146   4.907  39.837  0.00  0.00    +0.000 A 
ATOM     14  C   UNL     1       0.507   5.648  42.034  0.00  0.00    +0.000 A 
ATOM     15  C   UNL     1       2.278   4.727  40.516  0.00  0.00    +0.000 C 
ENDBRANCH   4   9
BRANCH   5  17
ATOM     16  N   UNL     1      -3.574   7.972  38.945  0.00  0.00    +0.000 NA
ATOM     17  C   UNL     1      -3.568   8.215  40.216  0.00  0.00    +0.000 C 
BRANCH  16  18
ATOM     18  O   UNL     1      -3.252   9.152  38.251  0.00  0.00    +0.000 OA
BRANCH  18  19
ATOM     19  C   UNL     1      -2.088   8.898  37.459  0.00  0.00    +0.000 C 
BRANCH  19  22
ATOM     20 CL   UNL     1      -3.644  13.312  35.151  0.00  0.00    +0.000 Cl
ATOM     21 CL   UNL     1      -0.600  13.669  34.058  0.00  0.00    +0.000 Cl
ATOM     22  C   UNL     1      -1.786  10.042  36.521  0.00  0.00    +0.000 A 
ATOM     23  C   UNL     1      -2.742  11.027  36.231  0.00  0.00    +0.000 A 
ATOM     24  C   UNL     1      -0.488  10.191  36.010  0.00  0.00    +0.000 A 
ATOM     25  C   UNL     1      -2.407  12.144  35.455  0.00  0.00    +0.000 A 
ATOM     26  C   UNL     1      -0.150  11.307  35.240  0.00  0.00    +0.000 A 
ATOM     27  C   UNL     1      -1.104  12.290  34.970  0.00  0.00    +0.000 A 
ENDBRANCH  19  22
ENDBRANCH  18  19
ENDBRANCH  16  18
ENDBRANCH   5  17
TORSDOF 5
ENDMDL
MODEL 4
REMARK VINA RESULT:      -4.5     27.548     29.469
REMARK  Name = 142505366
REMARK  6 active torsions:
REMARK  status: ('A' for Active; 'I' for Inactive)
REMARK    1  A    between atoms: O_4  and  N_7
REMARK    2  A    between atoms: O_4  and  C_22
REMARK    3  A    between atoms: C_8  and  C_10
REMARK    4  A    between atoms: C_9  and  C_15
REMARK    5  A    between atoms: C_16  and  C_20
REMARK    6  A    between atoms: C_21  and  C_22
REMARK                            x       y       z     vdW  Elec       q    Type
REMARK                         _______ _______ _______ _____ _____    ______ ____
ROOT
ATOM      1  S   UNL     1      16.780  13.555   7.443  0.00  0.00    +0.000 S 
ATOM      2  N   UNL     1      16.120  11.237   6.555  0.00  0.00    +0.000 N 
ATOM      3  N   UNL     1      18.348  11.370   6.636  0.00  0.00    +0.000 NA
ATOM      4  C   UNL     1      17.951  10.137   6.137  0.00  0.00    +0.000 A 
ATOM      5  C   UNL     1      16.558  10.011   6.121  0.00  0.00    +0.000 A 
ATOM      6  C   UNL     1      17.222  11.981   6.854  0.00  0.00    +0.000 A 
ATOM      7  C   UNL     1      14.912  11.864   6.778  0.00  0.00    +0.000 A 
ATOM      8  C   UNL     1      15.077  13.111   7.249  0.00  0.00    +0.000 A 
ENDROOT
BRANCH   4   9
ATOM      9  C   UNL     1      18.921   9.153   5.667  0.00  0.00    +0.000 A 
ATOM     10  C   UNL     1      19.869   8.635   6.558  0.00  0.00    +0.000 A 
ATOM     11  C   UNL     1      18.971   8.745   4.327  0.00  0.00    +0.000 A 
ATOM     12  C   UNL     1      20.840   7.272   4.797  0.00  0.00    +0.000 A 
ATOM     13  C   UNL     1      20.823   7.706   6.126  0.00  0.00    +0.000 A 
ATOM     14  C   UNL     1      19.912   7.805   3.899  0.00  0.00    +0.000 A 
ATOM     15  C   UNL     1      21.886   6.315   4.309  0.00  0.00    +0.000 C 
ENDBRANCH   4   9
BRANCH   5  17
ATOM     16  N   UNL     1      15.580   7.900   6.548  0.00  0.00    +0.000 NA
ATOM     17  C   UNL     1      15.735   8.905   5.748  0.00  0.00    +0.000 C 
BRANCH  16  18
ATOM     18  O   UNL     1      14.659   7.000   5.983  0.00  0.00    +0.000 OA
BRANCH  18  19
ATOM     19  C   UNL     1      13.805   7.734   5.101  0.00  0.00    +0.000 C 
BRANCH  19  22
ATOM     20 CL   UNL     1       9.957   5.515   7.839  0.00  0.00    +0.000 Cl
ATOM     21 CL   UNL     1       7.959   6.223   5.371  0.00  0.00    +0.000 Cl
ATOM     22  C   UNL     1      12.379   7.241   5.161  0.00  0.00    +0.000 A 
ATOM     23  C   UNL     1      11.864   6.617   6.307  0.00  0.00    +0.000 A 
ATOM     24  C   UNL     1      11.513   7.504   4.089  0.00  0.00    +0.000 A 
ATOM     25  C   UNL     1      10.509   6.273   6.388  0.00  0.00    +0.000 A 
ATOM     26  C   UNL     1      10.159   7.167   4.169  0.00  0.00    +0.000 A 
ATOM     27  C   UNL     1       9.652   6.562   5.321  0.00  0.00    +0.000 A 
ENDBRANCH  19  22
ENDBRANCH  18  19
ENDBRANCH  16  18
ENDBRANCH   5  17
TORSDOF 5
ENDMDL
MODEL 5
REMARK VINA RESULT:      -4.3     36.760     38.307
REMARK  Name = 142505366
REMARK  6 active torsions:
REMARK  status: ('A' for Active; 'I' for Inactive)
REMARK    1  A    between atoms: O_4  and  N_7
REMARK    2  A    between atoms: O_4  and  C_22
REMARK    3  A    between atoms: C_8  and  C_10
REMARK    4  A    between atoms: C_9  and  C_15
REMARK    5  A    between atoms: C_16  and  C_20
REMARK    6  A    between atoms: C_21  and  C_22
REMARK                            x       y       z     vdW  Elec       q    Type
REMARK                         _______ _______ _______ _____ _____    ______ ____
ROOT
ATOM      1  S   UNL     1      -3.763  20.876  21.270  0.00  0.00    +0.000 S 
ATOM      2  N   UNL     1      -2.713  18.558  20.921  0.00  0.00    +0.000 N 
ATOM      3  N   UNL     1      -4.492  18.752  19.583  0.00  0.00    +0.000 NA
ATOM      4  C   UNL     1      -3.910  17.500  19.442  0.00  0.00    +0.000 A 
ATOM      5  C   UNL     1      -2.764  17.371  20.234  0.00  0.00    +0.000 A 
ATOM      6  C   UNL     1      -3.748  19.329  20.481  0.00  0.00    +0.000 A 
ATOM      7  C   UNL     1      -1.908  19.148  21.873  0.00  0.00    +0.000 A 
ATOM      8  C   UNL     1      -2.326  20.387  22.181  0.00  0.00    +0.000 A 
ENDROOT
BRANCH   4   9
ATOM      9  C   UNL     1      -4.495  16.477  18.582  0.00  0.00    +0.000 A 
ATOM     10  C   UNL     1      -3.905  16.191  17.345  0.00  0.00    +0.000 A 
ATOM     11  C   UNL     1      -5.674  15.802  18.932  0.00  0.00    +0.000 A 
ATOM     12  C   UNL     1      -5.613  14.529  16.868  0.00  0.00    +0.000 A 
ATOM     13  C   UNL     1      -4.461  15.229  16.493  0.00  0.00    +0.000 A 
ATOM     14  C   UNL     1      -6.219  14.830  18.091  0.00  0.00    +0.000 A 
ATOM     15  C   UNL     1      -6.246  13.532  15.946  0.00  0.00    +0.000 C 
ENDBRANCH   4   9
BRANCH   5  17
ATOM     16  N   UNL     1      -1.439  15.887  21.513  0.00  0.00    +0.000 NA
ATOM     17  C   UNL     1      -1.838  16.289  20.350  0.00  0.00    +0.000 C 
BRANCH  16  18
ATOM     18  O   UNL     1      -0.610  14.763  21.350  0.00  0.00    +0.000 OA
BRANCH  18  19
ATOM     19  C   UNL     1       0.526  15.158  20.575  0.00  0.00    +0.000 C 
BRANCH  19  22
ATOM     20 CL   UNL     1       4.591  18.333  21.367  0.00  0.00    +0.000 Cl
ATOM     21 CL   UNL     1       4.822  17.089  24.365  0.00  0.00    +0.000 Cl
ATOM     22  C   UNL     1       1.680  15.587  21.450  0.00  0.00    +0.000 A 
ATOM     23  C   UNL     1       2.562  16.606  21.056  0.00  0.00    +0.000 A 
ATOM     24  C   UNL     1       1.818  15.033  22.731  0.00  0.00    +0.000 A 
ATOM     25  C   UNL     1       3.553  17.071  21.929  0.00  0.00    +0.000 A 
ATOM     26  C   UNL     1       2.803  15.500  23.606  0.00  0.00    +0.000 A 
ATOM     27  C   UNL     1       3.664  16.525  23.212  0.00  0.00    +0.000 A 
ENDBRANCH  19  22
ENDBRANCH  18  19
ENDBRANCH  16  18
ENDBRANCH   5  17
TORSDOF 5
ENDMDL
MODEL 6
REMARK VINA RESULT:      -4.1     41.452     42.747
REMARK  Name = 142505366
REMARK  6 active torsions:
REMARK  status: ('A' for Active; 'I' for Inactive)
REMARK    1  A    between atoms: O_4  and  N_7
REMARK    2  A    between atoms: O_4  and  C_22
REMARK    3  A    between atoms: C_8  and  C_10
REMARK    4  A    between atoms: C_9  and  C_15
REMARK    5  A    between atoms: C_16  and  C_20
REMARK    6  A    between atoms: C_21  and  C_22
REMARK                            x       y       z     vdW  Elec       q    Type
REMARK                         _______ _______ _______ _____ _____    ______ ____
ROOT
ATOM      1  S   UNL     1      -8.485  11.744  32.765  0.00  0.00    +0.000 S 
ATOM      2  N   UNL     1     -10.897  11.309  31.997  0.00  0.00    +0.000 N 
ATOM      3  N   UNL     1     -10.335   9.770  33.516  0.00  0.00    +0.000 NA
ATOM      4  C   UNL     1     -11.627   9.553  33.057  0.00  0.00    +0.000 A 
ATOM      5  C   UNL     1     -12.020  10.533  32.140  0.00  0.00    +0.000 A 
ATOM      6  C   UNL     1      -9.950  10.815  32.844  0.00  0.00    +0.000 A 
ATOM      7  C   UNL     1     -10.512  12.418  31.273  0.00  0.00    +0.000 A 
ATOM      8  C   UNL     1      -9.251  12.785  31.555  0.00  0.00    +0.000 A 
ENDROOT
BRANCH   4   9
ATOM      9  C   UNL     1     -12.410   8.402  33.492  0.00  0.00    +0.000 A 
ATOM     10  C   UNL     1     -12.667   8.214  34.856  0.00  0.00    +0.000 A 
ATOM     11  C   UNL     1     -12.873   7.436  32.586  0.00  0.00    +0.000 A 
ATOM     12  C   UNL     1     -13.893   6.169  34.386  0.00  0.00    +0.000 A 
ATOM     13  C   UNL     1     -13.398   7.105  35.300  0.00  0.00    +0.000 A 
ATOM     14  C   UNL     1     -13.616   6.339  33.027  0.00  0.00    +0.000 A 
ATOM     15  C   UNL     1     -14.634   4.952  34.850  0.00  0.00    +0.000 C 
ENDBRANCH   4   9
BRANCH   5  17
ATOM     16  N   UNL     1     -13.642   9.924  30.530  0.00  0.00    +0.000 NA
ATOM     17  C   UNL     1     -13.269  10.727  31.473  0.00  0.00    +0.000 C 
BRANCH  16  18
ATOM     18  O   UNL     1     -14.936  10.281  30.109  0.00  0.00    +0.000 OA
BRANCH  18  19
ATOM     19  C   UNL     1     -15.796  10.256  31.252  0.00  0.00    +0.000 C 
BRANCH  19  22
ATOM     20 CL   UNL     1     -16.683   5.401  29.557  0.00  0.00    +0.000 Cl
ATOM     21 CL   UNL     1     -17.539   4.627  32.599  0.00  0.00    +0.000 Cl
ATOM     22  C   UNL     1     -16.332   8.870  31.522  0.00  0.00    +0.000 A 
ATOM     23  C   UNL     1     -16.331   7.876  30.532  0.00  0.00    +0.000 A 
ATOM     24  C   UNL     1     -16.741   8.530  32.820  0.00  0.00    +0.000 A 
ATOM     25  C   UNL     1     -16.720   6.565  30.834  0.00  0.00    +0.000 A 
ATOM     26  C   UNL     1     -17.125   7.221  33.125  0.00  0.00    +0.000 A 
ATOM     27  C   UNL     1     -17.105   6.235  32.137  0.00  0.00    +0.000 A 
ENDBRANCH  19  22
ENDBRANCH  18  19
ENDBRANCH  16  18
ENDBRANCH   5  17
TORSDOF 5
ENDMDL
MODEL 7
REMARK VINA RESULT:      -4.1     37.407     38.984
REMARK  Name = 142505366
REMARK  6 active torsions:
REMARK  status: ('A' for Active; 'I' for Inactive)
REMARK    1  A    between atoms: O_4  and  N_7
REMARK    2  A    between atoms: O_4  and  C_22
REMARK    3  A    between atoms: C_8  and  C_10
REMARK    4  A    between atoms: C_9  and  C_15
REMARK    5  A    between atoms: C_16  and  C_20
REMARK    6  A    between atoms: C_21  and  C_22
REMARK                            x       y       z     vdW  Elec       q    Type
REMARK                         _______ _______ _______ _____ _____    ______ ____
ROOT
ATOM      1  S   UNL     1      -2.894  20.088  18.514  0.00  0.00    +0.000 S 
ATOM      2  N   UNL     1      -1.717  18.778  20.384  0.00  0.00    +0.000 N 
ATOM      3  N   UNL     1      -0.407  18.786  18.574  0.00  0.00    +0.000 NA
ATOM      4  C   UNL     1       0.185  18.064  19.601  0.00  0.00    +0.000 A 
ATOM      5  C   UNL     1      -0.594  18.085  20.762  0.00  0.00    +0.000 A 
ATOM      6  C   UNL     1      -1.535  19.173  19.091  0.00  0.00    +0.000 A 
ATOM      7  C   UNL     1      -2.907  19.177  20.955  0.00  0.00    +0.000 A 
ATOM      8  C   UNL     1      -3.661  19.884  20.097  0.00  0.00    +0.000 A 
ENDROOT
BRANCH   4   9
ATOM      9  C   UNL     1       1.451  17.363  19.413  0.00  0.00    +0.000 A 
ATOM     10  C   UNL     1       1.461  16.104  18.800  0.00  0.00    +0.000 A 
ATOM     11  C   UNL     1       2.665  17.888  19.880  0.00  0.00    +0.000 A 
ATOM     12  C   UNL     1       3.873  15.952  19.058  0.00  0.00    +0.000 A 
ATOM     13  C   UNL     1       2.660  15.402  18.628  0.00  0.00    +0.000 A 
ATOM     14  C   UNL     1       3.863  17.197  19.693  0.00  0.00    +0.000 A 
ATOM     15  C   UNL     1       5.157  15.191  18.924  0.00  0.00    +0.000 C 
ENDBRANCH   4   9
BRANCH   5  17
ATOM     16  N   UNL     1      -0.339  16.250  22.232  0.00  0.00    +0.000 NA
ATOM     17  C   UNL     1      -0.341  17.531  22.055  0.00  0.00    +0.000 C 
BRANCH  16  18
ATOM     18  O   UNL     1       0.022  15.971  23.562  0.00  0.00    +0.000 OA
BRANCH  18  19
ATOM     19  C   UNL     1       1.124  15.060  23.541  0.00  0.00    +0.000 C 
BRANCH  19  22
ATOM     20 CL   UNL     1       6.251  15.483  22.665  0.00  0.00    +0.000 Cl
ATOM     21 CL   UNL     1       6.204  18.213  24.436  0.00  0.00    +0.000 Cl
ATOM     22  C   UNL     1       2.433  15.756  23.833  0.00  0.00    +0.000 A 
ATOM     23  C   UNL     1       3.636  15.337  23.244  0.00  0.00    +0.000 A 
ATOM     24  C   UNL     1       2.437  16.913  24.626  0.00  0.00    +0.000 A 
ATOM     25  C   UNL     1       4.816  16.065  23.433  0.00  0.00    +0.000 A 
ATOM     26  C   UNL     1       3.613  17.644  24.812  0.00  0.00    +0.000 A 
ATOM     27  C   UNL     1       4.802  17.229  24.208  0.00  0.00    +0.000 A 
ENDBRANCH  19  22
ENDBRANCH  18  19
ENDBRANCH  16  18
ENDBRANCH   5  17
TORSDOF 5
ENDMDL
MODEL 8
REMARK VINA RESULT:      -4.0     40.282     43.717
REMARK  Name = 142505366
REMARK  6 active torsions:
REMARK  status: ('A' for Active; 'I' for Inactive)
REMARK    1  A    between atoms: O_4  and  N_7
REMARK    2  A    between atoms: O_4  and  C_22
REMARK    3  A    between atoms: C_8  and  C_10
REMARK    4  A    between atoms: C_9  and  C_15
REMARK    5  A    between atoms: C_16  and  C_20
REMARK    6  A    between atoms: C_21  and  C_22
REMARK                            x       y       z     vdW  Elec       q    Type
REMARK                         _______ _______ _______ _____ _____    ______ ____
ROOT
ATOM      1  S   UNL     1      -0.759  -1.594  47.817  0.00  0.00    +0.000 S 
ATOM      2  N   UNL     1      -2.782  -1.625  46.234  0.00  0.00    +0.000 N 
ATOM      3  N   UNL     1      -1.150  -2.867  45.345  0.00  0.00    +0.000 NA
ATOM      4  C   UNL     1      -2.255  -2.838  44.505  0.00  0.00    +0.000 A 
ATOM      5  C   UNL     1      -3.308  -2.106  45.062  0.00  0.00    +0.000 A 
ATOM      6  C   UNL     1      -1.516  -2.121  46.346  0.00  0.00    +0.000 A 
ATOM      7  C   UNL     1      -3.193  -0.832  47.284  0.00  0.00    +0.000 A 
ATOM      8  C   UNL     1      -2.237  -0.704  48.218  0.00  0.00    +0.000 A 
ENDROOT
BRANCH   4   9
ATOM      9  C   UNL     1      -2.237  -3.484  43.196  0.00  0.00    +0.000 A 
ATOM     10  C   UNL     1      -2.978  -4.655  42.991  0.00  0.00    +0.000 A 
ATOM     11  C   UNL     1      -1.452  -2.998  42.141  0.00  0.00    +0.000 A 
ATOM     12  C   UNL     1      -2.207  -4.789  40.691  0.00  0.00    +0.000 A 
ATOM     13  C   UNL     1      -2.960  -5.304  41.751  0.00  0.00    +0.000 A 
ATOM     14  C   UNL     1      -1.447  -3.635  40.899  0.00  0.00    +0.000 A 
ATOM     15  C   UNL     1      -2.139  -5.500  39.373  0.00  0.00    +0.000 C 
ENDBRANCH   4   9
BRANCH   5  17
ATOM     16  N   UNL     1      -5.583  -2.711  44.828  0.00  0.00    +0.000 NA
ATOM     17  C   UNL     1      -4.631  -1.873  44.573  0.00  0.00    +0.000 C 
BRANCH  16  18
ATOM     18  O   UNL     1      -6.790  -2.204  44.314  0.00  0.00    +0.000 OA
BRANCH  18  19
ATOM     19  C   UNL     1      -7.754  -3.262  44.322  0.00  0.00    +0.000 C 
BRANCH  19  22
ATOM     20 CL   UNL     1      -9.505  -4.007  39.464  0.00  0.00    +0.000 Cl
ATOM     21 CL   UNL     1      -7.183  -6.259  39.104  0.00  0.00    +0.000 Cl
ATOM     22  C   UNL     1      -7.717  -4.065  43.044  0.00  0.00    +0.000 A 
ATOM     23  C   UNL     1      -8.560  -3.765  41.963  0.00  0.00    +0.000 A 
ATOM     24  C   UNL     1      -6.746  -5.065  42.886  0.00  0.00    +0.000 A 
ATOM     25  C   UNL     1      -8.430  -4.443  40.745  0.00  0.00    +0.000 A 
ATOM     26  C   UNL     1      -6.611  -5.740  41.669  0.00  0.00    +0.000 A 
ATOM     27  C   UNL     1      -7.444  -5.423  40.594  0.00  0.00    +0.000 A 
ENDBRANCH  19  22
ENDBRANCH  18  19
ENDBRANCH  16  18
ENDBRANCH   5  17
TORSDOF 5
ENDMDL
MODEL 9
REMARK VINA RESULT:      -4.0     12.361     15.899
REMARK  Name = 142505366
REMARK  6 active torsions:
REMARK  status: ('A' for Active; 'I' for Inactive)
REMARK    1  A    between atoms: O_4  and  N_7
REMARK    2  A    between atoms: O_4  and  C_22
REMARK    3  A    between atoms: C_8  and  C_10
REMARK    4  A    between atoms: C_9  and  C_15
REMARK    5  A    between atoms: C_16  and  C_20
REMARK    6  A    between atoms: C_21  and  C_22
REMARK                            x       y       z     vdW  Elec       q    Type
REMARK                         _______ _______ _______ _____ _____    ______ ____
ROOT
ATOM      1  S   UNL     1      -1.919 -10.672  16.062  0.00  0.00    +0.000 S 
ATOM      2  N   UNL     1      -4.042 -10.525  14.624  0.00  0.00    +0.000 N 
ATOM      3  N   UNL     1      -4.622 -10.418  16.779  0.00  0.00    +0.000 NA
ATOM      4  C   UNL     1      -5.747 -10.366  15.967  0.00  0.00    +0.000 A 
ATOM      5  C   UNL     1      -5.406 -10.383  14.611  0.00  0.00    +0.000 A 
ATOM      6  C   UNL     1      -3.644 -10.524  15.928  0.00  0.00    +0.000 A 
ATOM      7  C   UNL     1      -3.022 -10.636  13.701  0.00  0.00    +0.000 A 
ATOM      8  C   UNL     1      -1.820 -10.729  14.295  0.00  0.00    +0.000 A 
ENDROOT
BRANCH   4   9
ATOM      9  C   UNL     1      -7.094 -10.337  16.528  0.00  0.00    +0.000 A 
ATOM     10  C   UNL     1      -7.809 -11.532  16.677  0.00  0.00    +0.000 A 
ATOM     11  C   UNL     1      -7.725  -9.134  16.875  0.00  0.00    +0.000 A 
ATOM     12  C   UNL     1      -9.717 -10.326  17.577  0.00  0.00    +0.000 A 
ATOM     13  C   UNL     1      -9.110 -11.527  17.193  0.00  0.00    +0.000 A 
ATOM     14  C   UNL     1      -9.016  -9.129  17.405  0.00  0.00    +0.000 A 
ATOM     15  C   UNL     1     -11.127 -10.300  18.084  0.00  0.00    +0.000 C 
ENDBRANCH   4   9
BRANCH   5  17
ATOM     16  N   UNL     1      -6.234  -9.213  12.729  0.00  0.00    +0.000 NA
ATOM     17  C   UNL     1      -6.233 -10.287  13.449  0.00  0.00    +0.000 C 
BRANCH  16  18
ATOM     18  O   UNL     1      -7.057  -9.412  11.607  0.00  0.00    +0.000 OA
BRANCH  18  19
ATOM     19  C   UNL     1      -6.899 -10.767  11.177  0.00  0.00    +0.000 C 
BRANCH  19  22
ATOM     20 CL   UNL     1      -8.378 -12.442   6.461  0.00  0.00    +0.000 Cl
ATOM     21 CL   UNL     1      -5.958 -10.665   5.206  0.00  0.00    +0.000 Cl
ATOM     22  C   UNL     1      -6.629 -10.858   9.693  0.00  0.00    +0.000 A 
ATOM     23  C   UNL     1      -7.480 -11.569   8.833  0.00  0.00    +0.000 A 
ATOM     24  C   UNL     1      -5.567 -10.128   9.140  0.00  0.00    +0.000 A 
ATOM     25  C   UNL     1      -7.280 -11.543   7.447  0.00  0.00    +0.000 A 
ATOM     26  C   UNL     1      -5.369 -10.096   7.757  0.00  0.00    +0.000 A 
ATOM     27  C   UNL     1      -6.230 -10.794   6.908  0.00  0.00    +0.000 A 
ENDBRANCH  19  22
ENDBRANCH  18  19
ENDBRANCH  16  18
ENDBRANCH   5  17
TORSDOF 5
ENDMDL
MODEL 10
REMARK VINA RESULT:      -3.9     38.315     40.409
REMARK  Name = 142505366
REMARK  6 active torsions:
REMARK  status: ('A' for Active; 'I' for Inactive)
REMARK    1  A    between atoms: O_4  and  N_7
REMARK    2  A    between atoms: O_4  and  C_22
REMARK    3  A    between atoms: C_8  and  C_10
REMARK    4  A    between atoms: C_9  and  C_15
REMARK    5  A    between atoms: C_16  and  C_20
REMARK    6  A    between atoms: C_21  and  C_22
REMARK                            x       y       z     vdW  Elec       q    Type
REMARK                         _______ _______ _______ _____ _____    ______ ____
ROOT
ATOM      1  S   UNL     1     -10.091 -10.986  38.364  0.00  0.00    +0.000 S 
ATOM      2  N   UNL     1      -8.637  -8.992  39.075  0.00  0.00    +0.000 N 
ATOM      3  N   UNL     1     -10.787  -8.445  39.336  0.00  0.00    +0.000 NA
ATOM      4  C   UNL     1      -9.967  -7.382  39.688  0.00  0.00    +0.000 A 
ATOM      5  C   UNL     1      -8.613  -7.716  39.579  0.00  0.00    +0.000 A 
ATOM      6  C   UNL     1      -9.944  -9.365  38.971  0.00  0.00    +0.000 A 
ATOM      7  C   UNL     1      -7.722  -9.951  38.694  0.00  0.00    +0.000 A 
ATOM      8  C   UNL     1      -8.325 -11.079  38.281  0.00  0.00    +0.000 A 
ENDROOT
BRANCH   4   9
ATOM      9  C   UNL     1     -10.517  -6.088  40.079  0.00  0.00    +0.000 A 
ATOM     10  C   UNL     1     -11.479  -6.022  41.094  0.00  0.00    +0.000 A 
ATOM     11  C   UNL     1     -10.152  -4.901  39.427  0.00  0.00    +0.000 A 
ATOM     12  C   UNL     1     -11.637  -3.610  40.846  0.00  0.00    +0.000 A 
ATOM     13  C   UNL     1     -12.037  -4.795  41.472  0.00  0.00    +0.000 A 
ATOM     14  C   UNL     1     -10.696  -3.675  39.815  0.00  0.00    +0.000 A 
ATOM     15  C   UNL     1     -12.261  -2.296  41.206  0.00  0.00    +0.000 C 
ENDBRANCH   4   9
BRANCH   5  17
ATOM     16  N   UNL     1      -6.652  -6.551  38.953  0.00  0.00    +0.000 NA
ATOM     17  C   UNL     1      -7.446  -6.954  39.892  0.00  0.00    +0.000 C 
BRANCH  16  18
ATOM     18  O   UNL     1      -5.640  -5.754  39.518  0.00  0.00    +0.000 OA
BRANCH  18  19
ATOM     19  C   UNL     1      -4.663  -6.623  40.097  0.00  0.00    +0.000 C 
BRANCH  19  22
ATOM     20 CL   UNL     1      -2.009  -3.587  43.409  0.00  0.00    +0.000 Cl
ATOM     21 CL   UNL     1       0.630  -4.108  41.579  0.00  0.00    +0.000 Cl
ATOM     22  C   UNL     1      -3.389  -5.888  40.438  0.00  0.00    +0.000 A 
ATOM     23  C   UNL     1      -3.280  -5.106  41.599  0.00  0.00    +0.000 A 
ATOM     24  C   UNL     1      -2.251  -6.071  39.639  0.00  0.00    +0.000 A 
ATOM     25  C   UNL     1      -2.057  -4.528  41.960  0.00  0.00    +0.000 A 
ATOM     26  C   UNL     1      -1.028  -5.500  40.000  0.00  0.00    +0.000 A 
ATOM     27  C   UNL     1      -0.925  -4.738  41.166  0.00  0.00    +0.000 A 
ENDBRANCH  19  22
ENDBRANCH  18  19
ENDBRANCH  16  18
ENDBRANCH   5  17
TORSDOF 5
ENDMDL
