REMARK  Name = 142505466
REMARK  8 active torsions:
REMARK  status: ('A' for Active; 'I' for Inactive)
REMARK    1  A    between atoms: N_5  and  C_8
REMARK    2  A    between atoms: N_5  and  C_10
REMARK    3  A    between atoms: N_5  and  C_11
REMARK    4  A    between atoms: C_8  and  C_9
REMARK    5  A    between atoms: C_10  and  C_12
REMARK    6  A    between atoms: C_11  and  C_17
REMARK    7  A    between atoms: C_12  and  C_15
REMARK    8  A    between atoms: C_13  and  C_16
REMARK                            x       y       z     vdW  Elec       q    Type
REMARK                         _______ _______ _______ _____ _____    ______ ____
ROOT
ATOM      1  S   UNL     1      -5.156   3.112  -5.851  0.00  0.00    +0.000 S 
ATOM      2  N   UNL     1      -5.581   1.183  -4.204  0.00  0.00    +0.000 N 
ATOM      3  N   UNL     1      -4.209   0.471  -5.805  0.00  0.00    +0.000 NA
ATOM      4  C   UNL     1      -5.245  -0.099  -3.818  0.00  0.00    +0.000 A 
ATOM      5  C   UNL     1      -4.469  -0.554  -4.900  0.00  0.00    +0.000 A 
ATOM      6  C   UNL     1      -4.877   1.478  -5.331  0.00  0.00    +0.000 A 
ATOM      7  C   UNL     1      -6.401   2.202  -3.759  0.00  0.00    +0.000 A 
ATOM      8  C   UNL     1      -6.277   3.313  -4.500  0.00  0.00    +0.000 A 
ENDROOT
BRANCH   5  10
ATOM      9 CL   UNL     1      -2.362  -6.001  -6.278  0.00  0.00    +0.000 Cl
ATOM     10  C   UNL     1      -3.939  -1.894  -5.162  0.00  0.00    +0.000 A 
ATOM     11  C   UNL     1      -2.801  -2.038  -5.980  0.00  0.00    +0.000 A 
ATOM     12  C   UNL     1      -4.569  -3.059  -4.708  0.00  0.00    +0.000 A 
ATOM     13  C   UNL     1      -2.306  -3.299  -6.320  0.00  0.00    +0.000 A 
ATOM     14  C   UNL     1      -4.061  -4.325  -5.025  0.00  0.00    +0.000 A 
ATOM     15  C   UNL     1      -2.942  -4.444  -5.840  0.00  0.00    +0.000 A 
ENDBRANCH   5  10
BRANCH   4  16
ATOM     16  C   UNL     1      -5.746  -0.688  -2.537  0.00  0.00    +0.000 C 
BRANCH  16  17
ATOM     17  N   UNL     1      -4.805  -0.694  -1.397  0.00  0.00    +0.000 NA
BRANCH  17  18
ATOM     18  C   UNL     1      -3.683  -1.625  -1.610  0.00  0.00    +0.000 C 
ATOM     19  C   UNL     1      -2.697  -1.755  -0.450  0.00  0.00    +0.000 C 
ENDBRANCH  17  18
BRANCH  17  20
ATOM     20  C   UNL     1      -4.391   0.620  -0.885  0.00  0.00    +0.000 C 
BRANCH  20  21
ATOM     21  C   UNL     1      -5.471   1.605  -0.384  0.00  0.00    +0.000 C 
BRANCH  21  24
ATOM     22 CL   UNL     1      -8.303  -1.897   2.295  0.00  0.00    +0.000 Cl
ATOM     23 CL   UNL     1      -9.893   0.619   3.609  0.00  0.00    +0.000 Cl
ATOM     24  C   UNL     1      -6.422   1.275   0.746  0.00  0.00    +0.000 A 
ATOM     25  C   UNL     1      -6.811  -0.027   1.077  0.00  0.00    +0.000 A 
ATOM     26  C   UNL     1      -7.074   2.347   1.385  0.00  0.00    +0.000 A 
ATOM     27  C   UNL     1      -7.859  -0.255   1.982  0.00  0.00    +0.000 A 
ATOM     28  C   UNL     1      -8.116   2.125   2.287  0.00  0.00    +0.000 A 
ATOM     29  C   UNL     1      -8.527   0.824   2.569  0.00  0.00    +0.000 A 
ENDBRANCH  21  24
ENDBRANCH  20  21
ENDBRANCH  17  20
ENDBRANCH  16  17
ENDBRANCH   4  16
TORSDOF 7
