MODEL 1
REMARK VINA RESULT:      -6.2      0.000      0.000
REMARK  Name = 142505361
REMARK  5 active torsions:
REMARK  status: ('A' for Active; 'I' for Inactive)
REMARK    1  A    between atoms: O_5  and  N_8
REMARK    2  A    between atoms: O_5  and  C_21
REMARK    3  A    between atoms: C_9  and  C_14
REMARK    4  A    between atoms: C_10  and  C_12
REMARK    5  A    between atoms: C_20  and  C_21
REMARK                            x       y       z     vdW  Elec       q    Type
REMARK                         _______ _______ _______ _____ _____    ______ ____
ROOT
ATOM      1  S   UNL     1     -11.516 -12.028  20.165  0.00  0.00    +0.000 S 
ATOM      2  N   UNL     1     -10.639 -10.037  18.799  0.00  0.00    +0.000 N 
ATOM      3  N   UNL     1      -9.036 -11.588  18.921  0.00  0.00    +0.000 NA
ATOM      4  C   UNL     1      -9.594  -9.517  18.078  0.00  0.00    +0.000 A 
ATOM      5  C   UNL     1      -8.593 -10.483  18.209  0.00  0.00    +0.000 A 
ATOM      6  C   UNL     1     -10.251 -11.261  19.254  0.00  0.00    +0.000 A 
ATOM      7  C   UNL     1     -11.923  -9.665  19.143  0.00  0.00    +0.000 A 
ATOM      8  C   UNL     1     -12.536 -10.609  19.876  0.00  0.00    +0.000 A 
ENDROOT
BRANCH   5  10
ATOM      9  F   UNL     1      -3.298 -10.107  16.437  0.00  0.00    +0.000 F 
ATOM     10  C   UNL     1      -7.221 -10.396  17.719  0.00  0.00    +0.000 A 
ATOM     11  C   UNL     1      -6.167 -10.814  18.547  0.00  0.00    +0.000 A 
ATOM     12  C   UNL     1      -6.915  -9.851  16.461  0.00  0.00    +0.000 A 
ATOM     13  C   UNL     1      -4.841 -10.718  18.113  0.00  0.00    +0.000 A 
ATOM     14  C   UNL     1      -5.591  -9.769  16.023  0.00  0.00    +0.000 A 
ATOM     15  C   UNL     1      -4.567 -10.203  16.853  0.00  0.00    +0.000 A 
ENDBRANCH   5  10
BRANCH   4  17
ATOM     16  N   UNL     1     -10.133  -8.173  16.205  0.00  0.00    +0.000 NA
ATOM     17  C   UNL     1      -9.596  -8.268  17.378  0.00  0.00    +0.000 C 
BRANCH  16  18
ATOM     18  O   UNL     1     -10.069  -6.833  15.784  0.00  0.00    +0.000 OA
BRANCH  18  19
ATOM     19  C   UNL     1     -11.194  -6.139  16.332  0.00  0.00    +0.000 C 
BRANCH  19  22
ATOM     20 CL   UNL     1     -16.211  -7.052  15.214  0.00  0.00    +0.000 Cl
ATOM     21 CL   UNL     1     -15.728  -5.544  12.371  0.00  0.00    +0.000 Cl
ATOM     22  C   UNL     1     -12.332  -6.069  15.342  0.00  0.00    +0.000 A 
ATOM     23  C   UNL     1     -13.611  -6.554  15.656  0.00  0.00    +0.000 A 
ATOM     24  C   UNL     1     -12.139  -5.428  14.109  0.00  0.00    +0.000 A 
ATOM     25  C   UNL     1     -14.671  -6.417  14.751  0.00  0.00    +0.000 A 
ATOM     26  C   UNL     1     -13.195  -5.285  13.206  0.00  0.00    +0.000 A 
ATOM     27  C   UNL     1     -14.464  -5.776  13.525  0.00  0.00    +0.000 A 
ENDBRANCH  19  22
ENDBRANCH  18  19
ENDBRANCH  16  18
ENDBRANCH   4  17
TORSDOF 5
ENDMDL
MODEL 2
REMARK VINA RESULT:      -6.2     22.724     25.328
REMARK  Name = 142505361
REMARK  5 active torsions:
REMARK  status: ('A' for Active; 'I' for Inactive)
REMARK    1  A    between atoms: O_5  and  N_8
REMARK    2  A    between atoms: O_5  and  C_21
REMARK    3  A    between atoms: C_9  and  C_14
REMARK    4  A    between atoms: C_10  and  C_12
REMARK    5  A    between atoms: C_20  and  C_21
REMARK                            x       y       z     vdW  Elec       q    Type
REMARK                         _______ _______ _______ _____ _____    ______ ____
ROOT
ATOM      1  S   UNL     1       0.800  12.627   7.445  0.00  0.00    +0.000 S 
ATOM      2  N   UNL     1       0.345  11.598   5.136  0.00  0.00    +0.000 N 
ATOM      3  N   UNL     1      -1.290  10.988   6.530  0.00  0.00    +0.000 NA
ATOM      4  C   UNL     1      -0.501  10.838   4.369  0.00  0.00    +0.000 A 
ATOM      5  C   UNL     1      -1.487  10.433   5.274  0.00  0.00    +0.000 A 
ATOM      6  C   UNL     1      -0.183  11.659   6.389  0.00  0.00    +0.000 A 
ATOM      7  C   UNL     1       1.522  12.299   4.962  0.00  0.00    +0.000 A 
ATOM      8  C   UNL     1       1.912  12.907   6.095  0.00  0.00    +0.000 A 
ENDROOT
BRANCH   5  10
ATOM      9  F   UNL     1      -5.796   6.996   4.304  0.00  0.00    +0.000 F 
ATOM     10  C   UNL     1      -2.590   9.514   5.014  0.00  0.00    +0.000 A 
ATOM     11  C   UNL     1      -3.709   9.968   4.296  0.00  0.00    +0.000 A 
ATOM     12  C   UNL     1      -2.596   8.200   5.511  0.00  0.00    +0.000 A 
ATOM     13  C   UNL     1      -4.791   9.116   4.054  0.00  0.00    +0.000 A 
ATOM     14  C   UNL     1      -3.671   7.347   5.257  0.00  0.00    +0.000 A 
ATOM     15  C   UNL     1      -4.759   7.813   4.532  0.00  0.00    +0.000 A 
ENDBRANCH   5  10
BRANCH   4  17
ATOM     16  N   UNL     1      -0.537  11.495   2.095  0.00  0.00    +0.000 NA
ATOM     17  C   UNL     1      -0.351  10.563   2.973  0.00  0.00    +0.000 C 
BRANCH  16  18
ATOM     18  O   UNL     1      -0.250  10.982   0.819  0.00  0.00    +0.000 OA
BRANCH  18  19
ATOM     19  C   UNL     1      -0.901   9.713   0.692  0.00  0.00    +0.000 C 
BRANCH  19  22
ATOM     20 CL   UNL     1      -6.088  10.157   0.305  0.00  0.00    +0.000 Cl
ATOM     21 CL   UNL     1      -5.710  10.376  -2.919  0.00  0.00    +0.000 Cl
ATOM     22  C   UNL     1      -2.130   9.811  -0.181  0.00  0.00    +0.000 A 
ATOM     23  C   UNL     1      -3.418   9.903   0.369  0.00  0.00    +0.000 A 
ATOM     24  C   UNL     1      -1.985   9.900  -1.574  0.00  0.00    +0.000 A 
ATOM     25  C   UNL     1      -4.539  10.063  -0.454  0.00  0.00    +0.000 A 
ATOM     26  C   UNL     1      -3.100  10.065  -2.398  0.00  0.00    +0.000 A 
ATOM     27  C   UNL     1      -4.379  10.149  -1.841  0.00  0.00    +0.000 A 
ENDBRANCH  19  22
ENDBRANCH  18  19
ENDBRANCH  16  18
ENDBRANCH   4  17
TORSDOF 5
ENDMDL
MODEL 3
REMARK VINA RESULT:      -5.9      1.744      2.139
REMARK  Name = 142505361
REMARK  5 active torsions:
REMARK  status: ('A' for Active; 'I' for Inactive)
REMARK    1  A    between atoms: O_5  and  N_8
REMARK    2  A    between atoms: O_5  and  C_21
REMARK    3  A    between atoms: C_9  and  C_14
REMARK    4  A    between atoms: C_10  and  C_12
REMARK    5  A    between atoms: C_20  and  C_21
REMARK                            x       y       z     vdW  Elec       q    Type
REMARK                         _______ _______ _______ _____ _____    ______ ____
ROOT
ATOM      1  S   UNL     1     -11.403 -14.028  21.526  0.00  0.00    +0.000 S 
ATOM      2  N   UNL     1     -10.687 -11.961  20.180  0.00  0.00    +0.000 N 
ATOM      3  N   UNL     1      -8.987 -13.410  20.232  0.00  0.00    +0.000 NA
ATOM      4  C   UNL     1      -9.695 -11.362  19.445  0.00  0.00    +0.000 A 
ATOM      5  C   UNL     1      -8.632 -12.266  19.532  0.00  0.00    +0.000 A 
ATOM      6  C   UNL     1     -10.212 -13.166  20.601  0.00  0.00    +0.000 A 
ATOM      7  C   UNL     1     -11.983 -11.677  20.562  0.00  0.00    +0.000 A 
ATOM      8  C   UNL     1     -12.517 -12.671  21.290  0.00  0.00    +0.000 A 
ENDROOT
BRANCH   5  10
ATOM      9  F   UNL     1      -3.449 -11.456  17.583  0.00  0.00    +0.000 F 
ATOM     10  C   UNL     1      -7.281 -12.083  19.012  0.00  0.00    +0.000 A 
ATOM     11  C   UNL     1      -6.309 -11.472  19.820  0.00  0.00    +0.000 A 
ATOM     12  C   UNL     1      -6.934 -12.449  17.700  0.00  0.00    +0.000 A 
ATOM     13  C   UNL     1      -5.013 -11.262  19.338  0.00  0.00    +0.000 A 
ATOM     14  C   UNL     1      -5.636 -12.251  17.225  0.00  0.00    +0.000 A 
ATOM     15  C   UNL     1      -4.688 -11.659  18.048  0.00  0.00    +0.000 A 
ENDBRANCH   5  10
BRANCH   4  17
ATOM     16  N   UNL     1      -9.693 -10.037  17.482  0.00  0.00    +0.000 NA
ATOM     17  C   UNL     1      -9.793 -10.103  18.771  0.00  0.00    +0.000 C 
BRANCH  16  18
ATOM     18  O   UNL     1      -9.903  -8.708  17.078  0.00  0.00    +0.000 OA
BRANCH  18  19
ATOM     19  C   UNL     1     -11.243  -8.343  17.423  0.00  0.00    +0.000 C 
BRANCH  19  22
ATOM     20 CL   UNL     1     -15.503  -6.580  14.974  0.00  0.00    +0.000 Cl
ATOM     21 CL   UNL     1     -13.581  -4.487  13.390  0.00  0.00    +0.000 Cl
ATOM     22  C   UNL     1     -11.854  -7.442  16.376  0.00  0.00    +0.000 A 
ATOM     23  C   UNL     1     -13.237  -7.422  16.138  0.00  0.00    +0.000 A 
ATOM     24  C   UNL     1     -11.038  -6.538  15.679  0.00  0.00    +0.000 A 
ATOM     25  C   UNL     1     -13.792  -6.531  15.212  0.00  0.00    +0.000 A 
ATOM     26  C   UNL     1     -11.589  -5.644  14.758  0.00  0.00    +0.000 A 
ATOM     27  C   UNL     1     -12.967  -5.636  14.524  0.00  0.00    +0.000 A 
ENDBRANCH  19  22
ENDBRANCH  18  19
ENDBRANCH  16  18
ENDBRANCH   4  17
TORSDOF 5
ENDMDL
MODEL 4
REMARK VINA RESULT:      -5.8     28.980     30.368
REMARK  Name = 142505361
REMARK  5 active torsions:
REMARK  status: ('A' for Active; 'I' for Inactive)
REMARK    1  A    between atoms: O_5  and  N_8
REMARK    2  A    between atoms: O_5  and  C_21
REMARK    3  A    between atoms: C_9  and  C_14
REMARK    4  A    between atoms: C_10  and  C_12
REMARK    5  A    between atoms: C_20  and  C_21
REMARK                            x       y       z     vdW  Elec       q    Type
REMARK                         _______ _______ _______ _____ _____    ______ ____
ROOT
ATOM      1  S   UNL     1       2.081  17.540  32.232  0.00  0.00    +0.000 S 
ATOM      2  N   UNL     1       1.045  15.443  33.294  0.00  0.00    +0.000 N 
ATOM      3  N   UNL     1      -0.508  16.465  32.056  0.00  0.00    +0.000 NA
ATOM      4  C   UNL     1      -0.070  14.652  33.410  0.00  0.00    +0.000 A 
ATOM      5  C   UNL     1      -1.036  15.337  32.667  0.00  0.00    +0.000 A 
ATOM      6  C   UNL     1       0.725  16.482  32.474  0.00  0.00    +0.000 A 
ATOM      7  C   UNL     1       2.347  15.441  33.754  0.00  0.00    +0.000 A 
ATOM      8  C   UNL     1       3.042  16.491  33.288  0.00  0.00    +0.000 A 
ENDROOT
BRANCH   5  10
ATOM      9  F   UNL     1      -6.458  14.009  32.274  0.00  0.00    +0.000 F 
ATOM     10  C   UNL     1      -2.447  14.991  32.534  0.00  0.00    +0.000 A 
ATOM     11  C   UNL     1      -3.388  15.603  33.378  0.00  0.00    +0.000 A 
ATOM     12  C   UNL     1      -2.891  14.020  31.621  0.00  0.00    +0.000 A 
ATOM     13  C   UNL     1      -4.744  15.273  33.289  0.00  0.00    +0.000 A 
ATOM     14  C   UNL     1      -4.247  13.701  31.524  0.00  0.00    +0.000 A 
ATOM     15  C   UNL     1      -5.161  14.330  32.359  0.00  0.00    +0.000 A 
ENDBRANCH   5  10
BRANCH   4  17
ATOM     16  N   UNL     1       0.499  12.379  33.749  0.00  0.00    +0.000 NA
ATOM     17  C   UNL     1      -0.156  13.424  34.140  0.00  0.00    +0.000 C 
BRANCH  16  18
ATOM     18  O   UNL     1       0.302  11.345  34.679  0.00  0.00    +0.000 OA
BRANCH  18  19
ATOM     19  C   UNL     1      -0.914  11.607  35.387  0.00  0.00    +0.000 C 
BRANCH  19  22
ATOM     20 CL   UNL     1      -4.576   8.717  37.731  0.00  0.00    +0.000 Cl
ATOM     21 CL   UNL     1      -2.183   6.848  38.901  0.00  0.00    +0.000 Cl
ATOM     22  C   UNL     1      -1.266  10.468  36.314  0.00  0.00    +0.000 A 
ATOM     23  C   UNL     1      -2.600  10.142  36.606  0.00  0.00    +0.000 A 
ATOM     24  C   UNL     1      -0.246   9.656  36.833  0.00  0.00    +0.000 A 
ATOM     25  C   UNL     1      -2.908   9.040  37.413  0.00  0.00    +0.000 A 
ATOM     26  C   UNL     1      -0.549   8.553  37.633  0.00  0.00    +0.000 A 
ATOM     27  C   UNL     1      -1.880   8.240  37.924  0.00  0.00    +0.000 A 
ENDBRANCH  19  22
ENDBRANCH  18  19
ENDBRANCH  16  18
ENDBRANCH   4  17
TORSDOF 5
ENDMDL
MODEL 5
REMARK VINA RESULT:      -5.7     30.462     32.312
REMARK  Name = 142505361
REMARK  5 active torsions:
REMARK  status: ('A' for Active; 'I' for Inactive)
REMARK    1  A    between atoms: O_5  and  N_8
REMARK    2  A    between atoms: O_5  and  C_21
REMARK    3  A    between atoms: C_9  and  C_14
REMARK    4  A    between atoms: C_10  and  C_12
REMARK    5  A    between atoms: C_20  and  C_21
REMARK                            x       y       z     vdW  Elec       q    Type
REMARK                         _______ _______ _______ _____ _____    ______ ____
ROOT
ATOM      1  S   UNL     1      11.683  19.767  22.714  0.00  0.00    +0.000 S 
ATOM      2  N   UNL     1      10.876  17.354  23.061  0.00  0.00    +0.000 N 
ATOM      3  N   UNL     1       9.096  18.699  22.948  0.00  0.00    +0.000 NA
ATOM      4  C   UNL     1       9.797  16.516  23.186  0.00  0.00    +0.000 A 
ATOM      5  C   UNL     1       8.702  17.385  23.159  0.00  0.00    +0.000 A 
ATOM      6  C   UNL     1      10.395  18.619  22.909  0.00  0.00    +0.000 A 
ATOM      7  C   UNL     1      12.252  17.244  23.028  0.00  0.00    +0.000 A 
ATOM      8  C   UNL     1      12.843  18.437  22.852  0.00  0.00    +0.000 A 
ENDROOT
BRANCH   5  10
ATOM      9  F   UNL     1       3.335  16.067  24.034  0.00  0.00    +0.000 F 
ATOM     10  C   UNL     1       7.300  17.035  23.357  0.00  0.00    +0.000 A 
ATOM     11  C   UNL     1       6.501  17.838  24.188  0.00  0.00    +0.000 A 
ATOM     12  C   UNL     1       6.734  15.883  22.786  0.00  0.00    +0.000 A 
ATOM     13  C   UNL     1       5.160  17.512  24.415  0.00  0.00    +0.000 A 
ATOM     14  C   UNL     1       5.392  15.566  23.003  0.00  0.00    +0.000 A 
ATOM     15  C   UNL     1       4.618  16.383  23.815  0.00  0.00    +0.000 A 
ENDBRANCH   5  10
BRANCH   4  17
ATOM     16  N   UNL     1       9.928  14.537  24.479  0.00  0.00    +0.000 NA
ATOM     17  C   UNL     1       9.850  15.092  23.313  0.00  0.00    +0.000 C 
BRANCH  16  18
ATOM     18  O   UNL     1       9.885  13.141  24.322  0.00  0.00    +0.000 OA
BRANCH  18  19
ATOM     19  C   UNL     1      11.230  12.652  24.309  0.00  0.00    +0.000 C 
BRANCH  19  22
ATOM     20 CL   UNL     1      10.486   7.893  22.297  0.00  0.00    +0.000 Cl
ATOM     21 CL   UNL     1      11.944   8.942  19.584  0.00  0.00    +0.000 Cl
ATOM     22  C   UNL     1      11.449  11.678  23.176  0.00  0.00    +0.000 A 
ATOM     23  C   UNL     1      10.959  10.364  23.230  0.00  0.00    +0.000 A 
ATOM     24  C   UNL     1      12.082  12.112  22.001  0.00  0.00    +0.000 A 
ATOM     25  C   UNL     1      11.111   9.497  22.141  0.00  0.00    +0.000 A 
ATOM     26  C   UNL     1      12.232  11.252  20.912  0.00  0.00    +0.000 A 
ATOM     27  C   UNL     1      11.745   9.943  20.977  0.00  0.00    +0.000 A 
ENDBRANCH  19  22
ENDBRANCH  18  19
ENDBRANCH  16  18
ENDBRANCH   4  17
TORSDOF 5
ENDMDL
MODEL 6
REMARK VINA RESULT:      -5.7     31.076     33.391
REMARK  Name = 142505361
REMARK  5 active torsions:
REMARK  status: ('A' for Active; 'I' for Inactive)
REMARK    1  A    between atoms: O_5  and  N_8
REMARK    2  A    between atoms: O_5  and  C_21
REMARK    3  A    between atoms: C_9  and  C_14
REMARK    4  A    between atoms: C_10  and  C_12
REMARK    5  A    between atoms: C_20  and  C_21
REMARK                            x       y       z     vdW  Elec       q    Type
REMARK                         _______ _______ _______ _____ _____    ______ ____
ROOT
ATOM      1  S   UNL     1      17.621  13.410   7.639  0.00  0.00    +0.000 S 
ATOM      2  N   UNL     1      16.721  11.171   6.760  0.00  0.00    +0.000 N 
ATOM      3  N   UNL     1      18.953  11.129   6.683  0.00  0.00    +0.000 NA
ATOM      4  C   UNL     1      17.030   9.925   6.275  0.00  0.00    +0.000 A 
ATOM      5  C   UNL     1      18.426   9.943   6.193  0.00  0.00    +0.000 A 
ATOM      6  C   UNL     1      17.895  11.821   6.993  0.00  0.00    +0.000 A 
ATOM      7  C   UNL     1      15.583  11.885   7.077  0.00  0.00    +0.000 A 
ATOM      8  C   UNL     1      15.878  13.104   7.558  0.00  0.00    +0.000 A 
ENDROOT
BRANCH   5  10
ATOM      9  F   UNL     1      21.813   5.995   4.130  0.00  0.00    +0.000 F 
ATOM     10  C   UNL     1      19.285   8.901   5.641  0.00  0.00    +0.000 A 
ATOM     11  C   UNL     1      20.257   8.305   6.460  0.00  0.00    +0.000 A 
ATOM     12  C   UNL     1      19.208   8.512   4.293  0.00  0.00    +0.000 A 
ATOM     13  C   UNL     1      21.110   7.321   5.950  0.00  0.00    +0.000 A 
ATOM     14  C   UNL     1      20.052   7.520   3.789  0.00  0.00    +0.000 A 
ATOM     15  C   UNL     1      20.995   6.935   4.621  0.00  0.00    +0.000 A 
ENDBRANCH   5  10
BRANCH   4  17
ATOM     16  N   UNL     1      15.527   8.865   4.784  0.00  0.00    +0.000 NA
ATOM     17  C   UNL     1      16.093   8.895   5.948  0.00  0.00    +0.000 C 
BRANCH  16  18
ATOM     18  O   UNL     1      14.721   7.717   4.700  0.00  0.00    +0.000 OA
BRANCH  18  19
ATOM     19  C   UNL     1      14.180   7.455   5.999  0.00  0.00    +0.000 C 
BRANCH  19  22
ATOM     20 CL   UNL     1       9.799   6.002   8.438  0.00  0.00    +0.000 Cl
ATOM     21 CL   UNL     1       8.313   6.053   5.544  0.00  0.00    +0.000 Cl
ATOM     22  C   UNL     1      12.732   7.035   5.917  0.00  0.00    +0.000 A 
ATOM     23  C   UNL     1      11.992   6.714   7.065  0.00  0.00    +0.000 A 
ATOM     24  C   UNL     1      12.078   7.045   4.675  0.00  0.00    +0.000 A 
ATOM     25  C   UNL     1      10.632   6.394   6.975  0.00  0.00    +0.000 A 
ATOM     26  C   UNL     1      10.720   6.731   4.582  0.00  0.00    +0.000 A 
ATOM     27  C   UNL     1       9.993   6.408   5.731  0.00  0.00    +0.000 A 
ENDBRANCH  19  22
ENDBRANCH  18  19
ENDBRANCH  16  18
ENDBRANCH   4  17
TORSDOF 5
ENDMDL
MODEL 7
REMARK VINA RESULT:      -5.6     28.757     29.865
REMARK  Name = 142505361
REMARK  5 active torsions:
REMARK  status: ('A' for Active; 'I' for Inactive)
REMARK    1  A    between atoms: O_5  and  N_8
REMARK    2  A    between atoms: O_5  and  C_21
REMARK    3  A    between atoms: C_9  and  C_14
REMARK    4  A    between atoms: C_10  and  C_12
REMARK    5  A    between atoms: C_20  and  C_21
REMARK                            x       y       z     vdW  Elec       q    Type
REMARK                         _______ _______ _______ _____ _____    ______ ____
ROOT
ATOM      1  S   UNL     1       3.816  21.221  26.460  0.00  0.00    +0.000 S 
ATOM      2  N   UNL     1       3.172  18.887  25.605  0.00  0.00    +0.000 N 
ATOM      3  N   UNL     1       5.328  19.252  25.146  0.00  0.00    +0.000 NA
ATOM      4  C   UNL     1       3.599  17.734  24.994  0.00  0.00    +0.000 A 
ATOM      5  C   UNL     1       4.934  18.007  24.678  0.00  0.00    +0.000 A 
ATOM      6  C   UNL     1       4.239  19.730  25.676  0.00  0.00    +0.000 A 
ATOM      7  C   UNL     1       2.004  19.373  26.156  0.00  0.00    +0.000 A 
ATOM      8  C   UNL     1       2.166  20.608  26.657  0.00  0.00    +0.000 A 
ENDROOT
BRANCH   5  10
ATOM      9  F   UNL     1       8.374  14.651  21.810  0.00  0.00    +0.000 F 
ATOM     10  C   UNL     1       5.846  17.157  23.921  0.00  0.00    +0.000 A 
ATOM     11  C   UNL     1       5.328  16.093  23.164  0.00  0.00    +0.000 A 
ATOM     12  C   UNL     1       7.239  17.334  23.970  0.00  0.00    +0.000 A 
ATOM     13  C   UNL     1       6.182  15.248  22.449  0.00  0.00    +0.000 A 
ATOM     14  C   UNL     1       8.090  16.498  23.244  0.00  0.00    +0.000 A 
ATOM     15  C   UNL     1       7.553  15.462  22.491  0.00  0.00    +0.000 A 
ENDBRANCH   5  10
BRANCH   4  17
ATOM     16  N   UNL     1       1.839  16.580  23.911  0.00  0.00    +0.000 NA
ATOM     17  C   UNL     1       2.810  16.563  24.766  0.00  0.00    +0.000 C 
BRANCH  16  18
ATOM     18  O   UNL     1       1.287  15.290  23.825  0.00  0.00    +0.000 OA
BRANCH  18  19
ATOM     19  C   UNL     1      -0.050  15.410  23.328  0.00  0.00    +0.000 C 
BRANCH  19  22
ATOM     20 CL   UNL     1       2.285  14.999  18.677  0.00  0.00    +0.000 Cl
ATOM     21 CL   UNL     1      -0.355  16.375  17.363  0.00  0.00    +0.000 Cl
ATOM     22  C   UNL     1      -0.061  15.695  21.845  0.00  0.00    +0.000 A 
ATOM     23  C   UNL     1       0.995  15.298  21.011  0.00  0.00    +0.000 A 
ATOM     24  C   UNL     1      -1.189  16.294  21.264  0.00  0.00    +0.000 A 
ATOM     25  C   UNL     1       0.935  15.510  19.628  0.00  0.00    +0.000 A 
ATOM     26  C   UNL     1      -1.255  16.502  19.885  0.00  0.00    +0.000 A 
ATOM     27  C   UNL     1      -0.195  16.108  19.063  0.00  0.00    +0.000 A 
ENDBRANCH  19  22
ENDBRANCH  18  19
ENDBRANCH  16  18
ENDBRANCH   4  17
TORSDOF 5
ENDMDL
MODEL 8
REMARK VINA RESULT:      -5.5      8.862     12.035
REMARK  Name = 142505361
REMARK  5 active torsions:
REMARK  status: ('A' for Active; 'I' for Inactive)
REMARK    1  A    between atoms: O_5  and  N_8
REMARK    2  A    between atoms: O_5  and  C_21
REMARK    3  A    between atoms: C_9  and  C_14
REMARK    4  A    between atoms: C_10  and  C_12
REMARK    5  A    between atoms: C_20  and  C_21
REMARK                            x       y       z     vdW  Elec       q    Type
REMARK                         _______ _______ _______ _____ _____    ______ ____
ROOT
ATOM      1  S   UNL     1      -5.516 -10.806  18.346  0.00  0.00    +0.000 S 
ATOM      2  N   UNL     1      -4.648 -12.360  16.495  0.00  0.00    +0.000 N 
ATOM      3  N   UNL     1      -4.616 -10.257  15.742  0.00  0.00    +0.000 NA
ATOM      4  C   UNL     1      -4.141 -12.452  15.223  0.00  0.00    +0.000 A 
ATOM      5  C   UNL     1      -4.175 -11.133  14.761  0.00  0.00    +0.000 A 
ATOM      6  C   UNL     1      -4.892 -11.043  16.743  0.00  0.00    +0.000 A 
ATOM      7  C   UNL     1      -4.937 -13.215  17.539  0.00  0.00    +0.000 A 
ATOM      8  C   UNL     1      -5.413 -12.555  18.607  0.00  0.00    +0.000 A 
ENDROOT
BRANCH   5  10
ATOM      9  F   UNL     1      -2.811  -9.271   9.663  0.00  0.00    +0.000 F 
ATOM     10  C   UNL     1      -3.841 -10.665  13.420  0.00  0.00    +0.000 A 
ATOM     11  C   UNL     1      -2.492 -10.539  13.051  0.00  0.00    +0.000 A 
ATOM     12  C   UNL     1      -4.831 -10.281  12.500  0.00  0.00    +0.000 A 
ATOM     13  C   UNL     1      -2.144 -10.070  11.781  0.00  0.00    +0.000 A 
ATOM     14  C   UNL     1      -4.482  -9.826  11.227  0.00  0.00    +0.000 A 
ATOM     15  C   UNL     1      -3.142  -9.723  10.879  0.00  0.00    +0.000 A 
ENDBRANCH   5  10
BRANCH   4  17
ATOM     16  N   UNL     1      -2.440 -13.851  14.354  0.00  0.00    +0.000 NA
ATOM     17  C   UNL     1      -3.699 -13.651  14.580  0.00  0.00    +0.000 C 
BRANCH  16  18
ATOM     18  O   UNL     1      -2.277 -15.128  13.790  0.00  0.00    +0.000 OA
BRANCH  18  19
ATOM     19  C   UNL     1      -2.618 -16.100  14.783  0.00  0.00    +0.000 C 
BRANCH  19  22
ATOM     20 CL   UNL     1       0.130 -20.004  16.896  0.00  0.00    +0.000 Cl
ATOM     21 CL   UNL     1       0.287 -21.339  13.933  0.00  0.00    +0.000 Cl
ATOM     22  C   UNL     1      -1.828 -17.374  14.598  0.00  0.00    +0.000 A 
ATOM     23  C   UNL     1      -1.242 -18.040  15.686  0.00  0.00    +0.000 A 
ATOM     24  C   UNL     1      -1.744 -17.960  13.326  0.00  0.00    +0.000 A 
ATOM     25  C   UNL     1      -0.572 -19.257  15.504  0.00  0.00    +0.000 A 
ATOM     26  C   UNL     1      -1.081 -19.175  13.142  0.00  0.00    +0.000 A 
ATOM     27  C   UNL     1      -0.496 -19.828  14.230  0.00  0.00    +0.000 A 
ENDBRANCH  19  22
ENDBRANCH  18  19
ENDBRANCH  16  18
ENDBRANCH   4  17
TORSDOF 5
ENDMDL
MODEL 9
REMARK VINA RESULT:      -5.4     15.536     16.323
REMARK  Name = 142505361
REMARK  5 active torsions:
REMARK  status: ('A' for Active; 'I' for Inactive)
REMARK    1  A    between atoms: O_5  and  N_8
REMARK    2  A    between atoms: O_5  and  C_21
REMARK    3  A    between atoms: C_9  and  C_14
REMARK    4  A    between atoms: C_10  and  C_12
REMARK    5  A    between atoms: C_20  and  C_21
REMARK                            x       y       z     vdW  Elec       q    Type
REMARK                         _______ _______ _______ _____ _____    ______ ____
ROOT
ATOM      1  S   UNL     1     -16.722   1.757  26.188  0.00  0.00    +0.000 S 
ATOM      2  N   UNL     1     -17.278   2.799  23.907  0.00  0.00    +0.000 N 
ATOM      3  N   UNL     1     -15.377   3.697  24.664  0.00  0.00    +0.000 NA
ATOM      4  C   UNL     1     -16.888   3.672  22.923  0.00  0.00    +0.000 A 
ATOM      5  C   UNL     1     -15.726   4.251  23.441  0.00  0.00    +0.000 A 
ATOM      6  C   UNL     1     -16.340   2.851  24.893  0.00  0.00    +0.000 A 
ATOM      7  C   UNL     1     -18.312   1.912  24.129  0.00  0.00    +0.000 A 
ATOM      8  C   UNL     1     -18.176   1.272  25.302  0.00  0.00    +0.000 A 
ENDROOT
BRANCH   5  10
ATOM      9  F   UNL     1     -12.834   8.452  21.138  0.00  0.00    +0.000 F 
ATOM     10  C   UNL     1     -14.946   5.332  22.848  0.00  0.00    +0.000 A 
ATOM     11  C   UNL     1     -15.329   6.664  23.076  0.00  0.00    +0.000 A 
ATOM     12  C   UNL     1     -13.850   5.081  22.005  0.00  0.00    +0.000 A 
ATOM     13  C   UNL     1     -14.615   7.718  22.500  0.00  0.00    +0.000 A 
ATOM     14  C   UNL     1     -13.129   6.136  21.441  0.00  0.00    +0.000 A 
ATOM     15  C   UNL     1     -13.518   7.444  21.694  0.00  0.00    +0.000 A 
ENDBRANCH   5  10
BRANCH   4  17
ATOM     16  N   UNL     1     -18.564   4.705  21.608  0.00  0.00    +0.000 NA
ATOM     17  C   UNL     1     -17.561   3.890  21.679  0.00  0.00    +0.000 C 
BRANCH  16  18
ATOM     18  O   UNL     1     -18.983   4.793  20.269  0.00  0.00    +0.000 OA
BRANCH  18  19
ATOM     19  C   UNL     1     -17.898   4.379  19.433  0.00  0.00    +0.000 C 
BRANCH  19  22
ATOM     20 CL   UNL     1     -17.411   7.272  15.115  0.00  0.00    +0.000 Cl
ATOM     21 CL   UNL     1     -15.508   9.285  16.821  0.00  0.00    +0.000 Cl
ATOM     22  C   UNL     1     -17.266   5.556  18.729  0.00  0.00    +0.000 A 
ATOM     23  C   UNL     1     -17.554   5.853  17.388  0.00  0.00    +0.000 A 
ATOM     24  C   UNL     1     -16.437   6.431  19.449  0.00  0.00    +0.000 A 
ATOM     25  C   UNL     1     -17.013   6.988  16.773  0.00  0.00    +0.000 A 
ATOM     26  C   UNL     1     -15.900   7.566  18.840  0.00  0.00    +0.000 A 
ATOM     27  C   UNL     1     -16.188   7.850  17.502  0.00  0.00    +0.000 A 
ENDBRANCH  19  22
ENDBRANCH  18  19
ENDBRANCH  16  18
ENDBRANCH   4  17
TORSDOF 5
ENDMDL
MODEL 10
REMARK VINA RESULT:      -5.3     18.163     20.575
REMARK  Name = 142505361
REMARK  5 active torsions:
REMARK  status: ('A' for Active; 'I' for Inactive)
REMARK    1  A    between atoms: O_5  and  N_8
REMARK    2  A    between atoms: O_5  and  C_21
REMARK    3  A    between atoms: C_9  and  C_14
REMARK    4  A    between atoms: C_10  and  C_12
REMARK    5  A    between atoms: C_20  and  C_21
REMARK                            x       y       z     vdW  Elec       q    Type
REMARK                         _______ _______ _______ _____ _____    ______ ____
ROOT
ATOM      1  S   UNL     1     -13.334  15.116  15.196  0.00  0.00    +0.000 S 
ATOM      2  N   UNL     1     -13.253  13.902  17.458  0.00  0.00    +0.000 N 
ATOM      3  N   UNL     1     -12.334  12.588  15.902  0.00  0.00    +0.000 NA
ATOM      4  C   UNL     1     -12.858  12.778  18.139  0.00  0.00    +0.000 A 
ATOM      5  C   UNL     1     -12.331  11.957  17.138  0.00  0.00    +0.000 A 
ATOM      6  C   UNL     1     -12.903  13.732  16.153  0.00  0.00    +0.000 A 
ATOM      7  C   UNL     1     -13.861  15.107  17.748  0.00  0.00    +0.000 A 
ATOM      8  C   UNL     1     -13.987  15.878  16.656  0.00  0.00    +0.000 A 
ENDROOT
BRANCH   5  10
ATOM      9  F   UNL     1     -10.408   6.727  17.653  0.00  0.00    +0.000 F 
ATOM     10  C   UNL     1     -11.854  10.586  17.289  0.00  0.00    +0.000 A 
ATOM     11  C   UNL     1     -10.492  10.355  17.540  0.00  0.00    +0.000 A 
ATOM     12  C   UNL     1     -12.708   9.481  17.135  0.00  0.00    +0.000 A 
ATOM     13  C   UNL     1     -10.003   9.051  17.665  0.00  0.00    +0.000 A 
ATOM     14  C   UNL     1     -12.222   8.180  17.274  0.00  0.00    +0.000 A 
ATOM     15  C   UNL     1     -10.874   7.977  17.537  0.00  0.00    +0.000 A 
ENDBRANCH   5  10
BRANCH   4  17
ATOM     16  N   UNL     1     -14.101  12.137  20.049  0.00  0.00    +0.000 NA
ATOM     17  C   UNL     1     -12.986  12.561  19.547  0.00  0.00    +0.000 C 
BRANCH  16  18
ATOM     18  O   UNL     1     -13.931  11.935  21.429  0.00  0.00    +0.000 OA
BRANCH  18  19
ATOM     19  C   UNL     1     -12.737  11.170  21.625  0.00  0.00    +0.000 C 
BRANCH  19  22
ATOM     20 CL   UNL     1     -15.774   7.318  23.412  0.00  0.00    +0.000 Cl
ATOM     21 CL   UNL     1     -13.991   5.252  21.641  0.00  0.00    +0.000 Cl
ATOM     22  C   UNL     1     -13.039   9.693  21.706  0.00  0.00    +0.000 A 
ATOM     23  C   UNL     1     -14.123   9.203  22.452  0.00  0.00    +0.000 A 
ATOM     24  C   UNL     1     -12.275   8.787  20.954  0.00  0.00    +0.000 A 
ATOM     25  C   UNL     1     -14.428   7.837  22.459  0.00  0.00    +0.000 A 
ATOM     26  C   UNL     1     -12.580   7.424  20.956  0.00  0.00    +0.000 A 
ATOM     27  C   UNL     1     -13.658   6.945  21.705  0.00  0.00    +0.000 A 
ENDBRANCH  19  22
ENDBRANCH  18  19
ENDBRANCH  16  18
ENDBRANCH   4  17
TORSDOF 5
ENDMDL
