MODEL 1
REMARK VINA RESULT:      -5.8      0.000      0.000
REMARK  Name = 142505367
REMARK  5 active torsions:
REMARK  status: ('A' for Active; 'I' for Inactive)
REMARK    1  A    between atoms: O_4  and  N_7
REMARK    2  A    between atoms: O_4  and  C_24
REMARK    3  A    between atoms: C_8  and  C_9
REMARK    4  A    between atoms: C_10  and  C_20
REMARK    5  A    between atoms: C_24  and  C_25
REMARK                            x       y       z     vdW  Elec       q    Type
REMARK                         _______ _______ _______ _____ _____    ______ ____
ROOT
ATOM      1  S   UNL     1      -8.891  -3.960 -47.759  0.00  0.00    +0.000 S 
ATOM      2  N   UNL     1      -7.348  -4.229 -49.794  0.00  0.00    +0.000 N 
ATOM      3  N   UNL     1      -8.423  -2.286 -49.960  0.00  0.00    +0.000 NA
ATOM      4  C   UNL     1      -7.555  -2.443 -51.033  0.00  0.00    +0.000 A 
ATOM      5  C   UNL     1      -6.851  -3.655 -50.936  0.00  0.00    +0.000 A 
ATOM      6  C   UNL     1      -8.238  -3.357 -49.250  0.00  0.00    +0.000 A 
ATOM      7  C   UNL     1      -7.165  -5.398 -49.079  0.00  0.00    +0.000 A 
ATOM      8  C   UNL     1      -7.916  -5.419 -47.965  0.00  0.00    +0.000 A 
ENDROOT
BRANCH   4   9
ATOM      9  C   UNL     1      -7.487  -1.470 -52.135  0.00  0.00    +0.000 A 
ATOM     10  C   UNL     1      -6.554  -0.383 -52.149  0.00  0.00    +0.000 A 
ATOM     11  C   UNL     1      -6.573   0.508 -53.258  0.00  0.00    +0.000 A 
ATOM     12  C   UNL     1      -8.414  -1.588 -53.189  0.00  0.00    +0.000 A 
ATOM     13  C   UNL     1      -5.601  -0.101 -51.133  0.00  0.00    +0.000 A 
ATOM     14  C   UNL     1      -7.469   0.307 -54.314  0.00  0.00    +0.000 A 
ATOM     15  C   UNL     1      -8.389  -0.729 -54.282  0.00  0.00    +0.000 A 
ATOM     16  C   UNL     1      -5.705   1.613 -53.303  0.00  0.00    +0.000 A 
ATOM     17  C   UNL     1      -4.759   1.014 -51.179  0.00  0.00    +0.000 A 
ATOM     18  C   UNL     1      -4.814   1.873 -52.264  0.00  0.00    +0.000 A 
ENDBRANCH   4   9
BRANCH   5  20
ATOM     19  N   UNL     1      -6.188  -4.792 -52.902  0.00  0.00    +0.000 NA
ATOM     20  C   UNL     1      -5.852  -4.225 -51.787  0.00  0.00    +0.000 C 
BRANCH  19  21
ATOM     21  O   UNL     1      -5.023  -5.189 -53.585  0.00  0.00    +0.000 OA
BRANCH  21  22
ATOM     22  C   UNL     1      -5.239  -5.017 -54.989  0.00  0.00    +0.000 C 
BRANCH  22  25
ATOM     23 CL   UNL     1      -6.552  -0.978 -58.027  0.00  0.00    +0.000 Cl
ATOM     24 CL   UNL     1      -4.326   0.787 -56.443  0.00  0.00    +0.000 Cl
ATOM     25  C   UNL     1      -5.012  -3.581 -55.405  0.00  0.00    +0.000 A 
ATOM     26  C   UNL     1      -5.780  -2.978 -56.413  0.00  0.00    +0.000 A 
ATOM     27  C   UNL     1      -4.062  -2.805 -54.727  0.00  0.00    +0.000 A 
ATOM     28  C   UNL     1      -5.580  -1.635 -56.758  0.00  0.00    +0.000 A 
ATOM     29  C   UNL     1      -3.865  -1.463 -55.064  0.00  0.00    +0.000 A 
ATOM     30  C   UNL     1      -4.621  -0.875 -56.080  0.00  0.00    +0.000 A 
ENDBRANCH  22  25
ENDBRANCH  21  22
ENDBRANCH  19  21
ENDBRANCH   5  20
TORSDOF 5
ENDMDL
MODEL 2
REMARK VINA RESULT:      -5.6      1.952      2.573
REMARK  Name = 142505367
REMARK  5 active torsions:
REMARK  status: ('A' for Active; 'I' for Inactive)
REMARK    1  A    between atoms: O_4  and  N_7
REMARK    2  A    between atoms: O_4  and  C_24
REMARK    3  A    between atoms: C_8  and  C_9
REMARK    4  A    between atoms: C_10  and  C_20
REMARK    5  A    between atoms: C_24  and  C_25
REMARK                            x       y       z     vdW  Elec       q    Type
REMARK                         _______ _______ _______ _____ _____    ______ ____
ROOT
ATOM      1  S   UNL     1      -9.332  -4.487 -48.320  0.00  0.00    +0.000 S 
ATOM      2  N   UNL     1      -7.075  -4.076 -49.475  0.00  0.00    +0.000 N 
ATOM      3  N   UNL     1      -8.630  -2.837 -50.477  0.00  0.00    +0.000 NA
ATOM      4  C   UNL     1      -7.391  -2.609 -51.061  0.00  0.00    +0.000 A 
ATOM      5  C   UNL     1      -6.391  -3.368 -50.429  0.00  0.00    +0.000 A 
ATOM      6  C   UNL     1      -8.377  -3.690 -49.531  0.00  0.00    +0.000 A 
ATOM      7  C   UNL     1      -6.787  -5.017 -48.504  0.00  0.00    +0.000 A 
ATOM      8  C   UNL     1      -7.880  -5.349 -47.797  0.00  0.00    +0.000 A 
ENDROOT
BRANCH   4   9
ATOM      9  C   UNL     1      -7.226  -1.738 -52.235  0.00  0.00    +0.000 A 
ATOM     10  C   UNL     1      -6.558  -0.473 -52.172  0.00  0.00    +0.000 A 
ATOM     11  C   UNL     1      -6.457   0.298 -53.363  0.00  0.00    +0.000 A 
ATOM     12  C   UNL     1      -7.797  -2.148 -53.457  0.00  0.00    +0.000 A 
ATOM     13  C   UNL     1      -5.986   0.099 -51.003  0.00  0.00    +0.000 A 
ATOM     14  C   UNL     1      -6.982  -0.185 -54.567  0.00  0.00    +0.000 A 
ATOM     15  C   UNL     1      -7.653  -1.397 -54.618  0.00  0.00    +0.000 A 
ATOM     16  C   UNL     1      -5.847   1.564 -53.347  0.00  0.00    +0.000 A 
ATOM     17  C   UNL     1      -5.401   1.369 -50.996  0.00  0.00    +0.000 A 
ATOM     18  C   UNL     1      -5.334   2.103 -52.168  0.00  0.00    +0.000 A 
ENDBRANCH   4   9
BRANCH   5  20
ATOM     19  N   UNL     1      -4.168  -2.652 -50.048  0.00  0.00    +0.000 NA
ATOM     20  C   UNL     1      -4.983  -3.443 -50.672  0.00  0.00    +0.000 C 
BRANCH  19  21
ATOM     21  O   UNL     1      -2.847  -2.986 -50.399  0.00  0.00    +0.000 OA
BRANCH  21  22
ATOM     22  C   UNL     1      -2.099  -1.775 -50.555  0.00  0.00    +0.000 C 
BRANCH  22  25
ATOM     23 CL   UNL     1      -4.033  -2.208 -55.386  0.00  0.00    +0.000 Cl
ATOM     24 CL   UNL     1      -3.114   0.870 -55.904  0.00  0.00    +0.000 Cl
ATOM     25  C   UNL     1      -2.335  -1.160 -51.916  0.00  0.00    +0.000 A 
ATOM     26  C   UNL     1      -2.994  -1.863 -52.936  0.00  0.00    +0.000 A 
ATOM     27  C   UNL     1      -1.951   0.168 -52.153  0.00  0.00    +0.000 A 
ATOM     28  C   UNL     1      -3.237  -1.262 -54.178  0.00  0.00    +0.000 A 
ATOM     29  C   UNL     1      -2.199   0.772 -53.388  0.00  0.00    +0.000 A 
ATOM     30  C   UNL     1      -2.840   0.059 -54.404  0.00  0.00    +0.000 A 
ENDBRANCH  22  25
ENDBRANCH  21  22
ENDBRANCH  19  21
ENDBRANCH   5  20
TORSDOF 5
ENDMDL
MODEL 3
REMARK VINA RESULT:      -5.2     18.279     20.725
REMARK  Name = 142505367
REMARK  5 active torsions:
REMARK  status: ('A' for Active; 'I' for Inactive)
REMARK    1  A    between atoms: O_4  and  N_7
REMARK    2  A    between atoms: O_4  and  C_24
REMARK    3  A    between atoms: C_8  and  C_9
REMARK    4  A    between atoms: C_10  and  C_20
REMARK    5  A    between atoms: C_24  and  C_25
REMARK                            x       y       z     vdW  Elec       q    Type
REMARK                         _______ _______ _______ _____ _____    ______ ____
ROOT
ATOM      1  S   UNL     1     -24.833  11.675 -55.308  0.00  0.00    +0.000 S 
ATOM      2  N   UNL     1     -23.824   9.882 -53.770  0.00  0.00    +0.000 N 
ATOM      3  N   UNL     1     -22.940   9.665 -55.803  0.00  0.00    +0.000 NA
ATOM      4  C   UNL     1     -22.387   8.728 -54.941  0.00  0.00    +0.000 A 
ATOM      5  C   UNL     1     -22.917   8.862 -53.646  0.00  0.00    +0.000 A 
ATOM      6  C   UNL     1     -23.760  10.335 -55.051  0.00  0.00    +0.000 A 
ATOM      7  C   UNL     1     -24.722  10.551 -52.960  0.00  0.00    +0.000 A 
ATOM      8  C   UNL     1     -25.349  11.537 -53.623  0.00  0.00    +0.000 A 
ENDROOT
BRANCH   4   9
ATOM      9  C   UNL     1     -21.435   7.704 -55.401  0.00  0.00    +0.000 A 
ATOM     10  C   UNL     1     -21.830   6.362 -55.706  0.00  0.00    +0.000 A 
ATOM     11  C   UNL     1     -20.831   5.445 -56.138  0.00  0.00    +0.000 A 
ATOM     12  C   UNL     1     -20.072   8.053 -55.494  0.00  0.00    +0.000 A 
ATOM     13  C   UNL     1     -23.152   5.849 -55.604  0.00  0.00    +0.000 A 
ATOM     14  C   UNL     1     -19.502   5.859 -56.279  0.00  0.00    +0.000 A 
ATOM     15  C   UNL     1     -19.119   7.152 -55.955  0.00  0.00    +0.000 A 
ATOM     16  C   UNL     1     -21.160   4.106 -56.411  0.00  0.00    +0.000 A 
ATOM     17  C   UNL     1     -23.461   4.509 -55.857  0.00  0.00    +0.000 A 
ATOM     18  C   UNL     1     -22.463   3.637 -56.259  0.00  0.00    +0.000 A 
ENDBRANCH   4   9
BRANCH   5  20
ATOM     19  N   UNL     1     -23.303   7.068 -52.152  0.00  0.00    +0.000 NA
ATOM     20  C   UNL     1     -22.636   8.139 -52.443  0.00  0.00    +0.000 C 
BRANCH  19  21
ATOM     21  O   UNL     1     -22.779   6.506 -50.973  0.00  0.00    +0.000 OA
BRANCH  21  22
ATOM     22  C   UNL     1     -23.869   6.140 -50.121  0.00  0.00    +0.000 C 
BRANCH  22  25
ATOM     23 CL   UNL     1     -23.646   7.475 -45.078  0.00  0.00    +0.000 Cl
ATOM     24 CL   UNL     1     -24.666  10.442 -45.938  0.00  0.00    +0.000 Cl
ATOM     25  C   UNL     1     -24.093   7.178 -49.045  0.00  0.00    +0.000 A 
ATOM     26  C   UNL     1     -23.814   6.910 -47.696  0.00  0.00    +0.000 A 
ATOM     27  C   UNL     1     -24.525   8.464 -49.400  0.00  0.00    +0.000 A 
ATOM     28  C   UNL     1     -23.991   7.897 -46.718  0.00  0.00    +0.000 A 
ATOM     29  C   UNL     1     -24.697   9.453 -48.427  0.00  0.00    +0.000 A 
ATOM     30  C   UNL     1     -24.433   9.172 -47.085  0.00  0.00    +0.000 A 
ENDBRANCH  22  25
ENDBRANCH  21  22
ENDBRANCH  19  21
ENDBRANCH   5  20
TORSDOF 5
ENDMDL
MODEL 4
REMARK VINA RESULT:      -5.1     17.258     19.464
REMARK  Name = 142505367
REMARK  5 active torsions:
REMARK  status: ('A' for Active; 'I' for Inactive)
REMARK    1  A    between atoms: O_4  and  N_7
REMARK    2  A    between atoms: O_4  and  C_24
REMARK    3  A    between atoms: C_8  and  C_9
REMARK    4  A    between atoms: C_10  and  C_20
REMARK    5  A    between atoms: C_24  and  C_25
REMARK                            x       y       z     vdW  Elec       q    Type
REMARK                         _______ _______ _______ _____ _____    ______ ____
ROOT
ATOM      1  S   UNL     1     -24.740   1.621 -56.872  0.00  0.00    +0.000 S 
ATOM      2  N   UNL     1     -24.354   3.969 -57.839  0.00  0.00    +0.000 N 
ATOM      3  N   UNL     1     -23.322   3.825 -55.871  0.00  0.00    +0.000 NA
ATOM      4  C   UNL     1     -23.103   5.075 -56.433  0.00  0.00    +0.000 A 
ATOM      5  C   UNL     1     -23.730   5.180 -57.686  0.00  0.00    +0.000 A 
ATOM      6  C   UNL     1     -24.044   3.207 -56.757  0.00  0.00    +0.000 A 
ATOM      7  C   UNL     1     -25.159   3.350 -58.777  0.00  0.00    +0.000 A 
ATOM      8  C   UNL     1     -25.460   2.091 -58.416  0.00  0.00    +0.000 A 
ENDROOT
BRANCH   4   9
ATOM      9  C   UNL     1     -22.369   6.135 -55.724  0.00  0.00    +0.000 A 
ATOM     10  C   UNL     1     -21.099   6.627 -56.168  0.00  0.00    +0.000 A 
ATOM     11  C   UNL     1     -20.467   7.650 -55.407  0.00  0.00    +0.000 A 
ATOM     12  C   UNL     1     -22.920   6.647 -54.531  0.00  0.00    +0.000 A 
ATOM     13  C   UNL     1     -20.393   6.169 -57.313  0.00  0.00    +0.000 A 
ATOM     14  C   UNL     1     -21.088   8.172 -54.267  0.00  0.00    +0.000 A 
ATOM     15  C   UNL     1     -22.303   7.673 -53.825  0.00  0.00    +0.000 A 
ATOM     16  C   UNL     1     -19.202   8.138 -55.777  0.00  0.00    +0.000 A 
ATOM     17  C   UNL     1     -19.126   6.648 -57.658  0.00  0.00    +0.000 A 
ATOM     18  C   UNL     1     -18.529   7.632 -56.888  0.00  0.00    +0.000 A 
ENDBRANCH   4   9
BRANCH   5  20
ATOM     19  N   UNL     1     -24.843   6.953 -58.789  0.00  0.00    +0.000 NA
ATOM     20  C   UNL     1     -23.762   6.258 -58.626  0.00  0.00    +0.000 C 
BRANCH  19  21
ATOM     21  O   UNL     1     -24.586   7.996 -59.697  0.00  0.00    +0.000 OA
BRANCH  21  22
ATOM     22  C   UNL     1     -24.534   9.228 -58.971  0.00  0.00    +0.000 C 
BRANCH  22  25
ATOM     23 CL   UNL     1     -21.025  11.823 -56.104  0.00  0.00    +0.000 Cl
ATOM     24 CL   UNL     1     -18.753  10.858 -58.222  0.00  0.00    +0.000 Cl
ATOM     25  C   UNL     1     -23.107   9.686 -58.773  0.00  0.00    +0.000 A 
ATOM     26  C   UNL     1     -22.731  10.464 -57.667  0.00  0.00    +0.000 A 
ATOM     27  C   UNL     1     -22.114   9.272 -59.673  0.00  0.00    +0.000 A 
ATOM     28  C   UNL     1     -21.396  10.846 -57.480  0.00  0.00    +0.000 A 
ATOM     29  C   UNL     1     -20.781   9.647 -59.486  0.00  0.00    +0.000 A 
ATOM     30  C   UNL     1     -20.418  10.435 -58.391  0.00  0.00    +0.000 A 
ENDBRANCH  22  25
ENDBRANCH  21  22
ENDBRANCH  19  21
ENDBRANCH   5  20
TORSDOF 5
ENDMDL
MODEL 5
REMARK VINA RESULT:      -5.0     17.465     19.710
REMARK  Name = 142505367
REMARK  5 active torsions:
REMARK  status: ('A' for Active; 'I' for Inactive)
REMARK    1  A    between atoms: O_4  and  N_7
REMARK    2  A    between atoms: O_4  and  C_24
REMARK    3  A    between atoms: C_8  and  C_9
REMARK    4  A    between atoms: C_10  and  C_20
REMARK    5  A    between atoms: C_24  and  C_25
REMARK                            x       y       z     vdW  Elec       q    Type
REMARK                         _______ _______ _______ _____ _____    ______ ____
ROOT
ATOM      1  S   UNL     1     -23.849   9.058 -50.401  0.00  0.00    +0.000 S 
ATOM      2  N   UNL     1     -23.571   9.687 -52.876  0.00  0.00    +0.000 N 
ATOM      3  N   UNL     1     -22.470   7.790 -52.489  0.00  0.00    +0.000 NA
ATOM      4  C   UNL     1     -22.364   8.137 -53.829  0.00  0.00    +0.000 A 
ATOM      5  C   UNL     1     -23.070   9.322 -54.098  0.00  0.00    +0.000 A 
ATOM      6  C   UNL     1     -23.214   8.726 -51.982  0.00  0.00    +0.000 A 
ATOM      7  C   UNL     1     -24.328  10.718 -52.352  0.00  0.00    +0.000 A 
ATOM      8  C   UNL     1     -24.567  10.541 -51.042  0.00  0.00    +0.000 A 
ENDROOT
BRANCH   4   9
ATOM      9  C   UNL     1     -21.540   7.368 -54.775  0.00  0.00    +0.000 A 
ATOM     10  C   UNL     1     -21.980   6.137 -55.360  0.00  0.00    +0.000 A 
ATOM     11  C   UNL     1     -21.105   5.465 -56.259  0.00  0.00    +0.000 A 
ATOM     12  C   UNL     1     -20.246   7.841 -55.073  0.00  0.00    +0.000 A 
ATOM     13  C   UNL     1     -23.229   5.507 -55.111  0.00  0.00    +0.000 A 
ATOM     14  C   UNL     1     -19.856   6.012 -56.574  0.00  0.00    +0.000 A 
ATOM     15  C   UNL     1     -19.423   7.189 -55.983  0.00  0.00    +0.000 A 
ATOM     16  C   UNL     1     -21.472   4.234 -56.829  0.00  0.00    +0.000 A 
ATOM     17  C   UNL     1     -23.573   4.271 -55.668  0.00  0.00    +0.000 A 
ATOM     18  C   UNL     1     -22.693   3.634 -56.526  0.00  0.00    +0.000 A 
ENDBRANCH   4   9
BRANCH   5  20
ATOM     19  N   UNL     1     -22.752  11.222 -55.472  0.00  0.00    +0.000 NA
ATOM     20  C   UNL     1     -23.257  10.039 -55.323  0.00  0.00    +0.000 C 
BRANCH  19  21
ATOM     21  O   UNL     1     -23.004  11.667 -56.783  0.00  0.00    +0.000 OA
BRANCH  21  22
ATOM     22  C   UNL     1     -22.529  10.674 -57.698  0.00  0.00    +0.000 C 
BRANCH  22  25
ATOM     23 CL   UNL     1     -19.555  13.481 -60.945  0.00  0.00    +0.000 Cl
ATOM     24 CL   UNL     1     -16.952  12.092 -59.575  0.00  0.00    +0.000 Cl
ATOM     25  C   UNL     1     -21.154  11.024 -58.218  0.00  0.00    +0.000 A 
ATOM     26  C   UNL     1     -20.972  11.977 -59.233  0.00  0.00    +0.000 A 
ATOM     27  C   UNL     1     -20.021  10.440 -57.634  0.00  0.00    +0.000 A 
ATOM     28  C   UNL     1     -19.687  12.316 -59.675  0.00  0.00    +0.000 A 
ATOM     29  C   UNL     1     -18.738  10.781 -58.068  0.00  0.00    +0.000 A 
ATOM     30  C   UNL     1     -18.567  11.717 -59.090  0.00  0.00    +0.000 A 
ENDBRANCH  22  25
ENDBRANCH  21  22
ENDBRANCH  19  21
ENDBRANCH   5  20
TORSDOF 5
ENDMDL
MODEL 6
REMARK VINA RESULT:      -4.9     20.630     22.230
REMARK  Name = 142505367
REMARK  5 active torsions:
REMARK  status: ('A' for Active; 'I' for Inactive)
REMARK    1  A    between atoms: O_4  and  N_7
REMARK    2  A    between atoms: O_4  and  C_24
REMARK    3  A    between atoms: C_8  and  C_9
REMARK    4  A    between atoms: C_10  and  C_20
REMARK    5  A    between atoms: C_24  and  C_25
REMARK                            x       y       z     vdW  Elec       q    Type
REMARK                         _______ _______ _______ _____ _____    ______ ____
ROOT
ATOM      1  S   UNL     1      -7.105  17.127 -43.344  0.00  0.00    +0.000 S 
ATOM      2  N   UNL     1      -8.922  17.761 -45.046  0.00  0.00    +0.000 N 
ATOM      3  N   UNL     1      -9.883  17.404 -43.069  0.00  0.00    +0.000 NA
ATOM      4  C   UNL     1     -10.839  17.780 -44.002  0.00  0.00    +0.000 A 
ATOM      5  C   UNL     1     -10.250  18.030 -45.253  0.00  0.00    +0.000 A 
ATOM      6  C   UNL     1      -8.768  17.435 -43.735  0.00  0.00    +0.000 A 
ATOM      7  C   UNL     1      -7.755  17.759 -45.788  0.00  0.00    +0.000 A 
ATOM      8  C   UNL     1      -6.690  17.439 -45.034  0.00  0.00    +0.000 A 
ENDROOT
BRANCH   4   9
ATOM      9  C   UNL     1     -12.275  17.817 -43.682  0.00  0.00    +0.000 A 
ATOM     10  C   UNL     1     -13.211  16.873 -44.216  0.00  0.00    +0.000 A 
ATOM     11  C   UNL     1     -14.580  16.998 -43.851  0.00  0.00    +0.000 A 
ATOM     12  C   UNL     1     -12.750  18.856 -42.857  0.00  0.00    +0.000 A 
ATOM     13  C   UNL     1     -12.892  15.810 -45.104  0.00  0.00    +0.000 A 
ATOM     14  C   UNL     1     -14.990  18.009 -42.973  0.00  0.00    +0.000 A 
ATOM     15  C   UNL     1     -14.086  18.937 -42.482  0.00  0.00    +0.000 A 
ATOM     16  C   UNL     1     -15.544  16.122 -44.379  0.00  0.00    +0.000 A 
ATOM     17  C   UNL     1     -13.865  14.959 -45.639  0.00  0.00    +0.000 A 
ATOM     18  C   UNL     1     -15.191  15.118 -45.278  0.00  0.00    +0.000 A 
ENDBRANCH   4   9
BRANCH   5  20
ATOM     19  N   UNL     1     -11.028  17.606 -47.447  0.00  0.00    +0.000 NA
ATOM     20  C   UNL     1     -10.830  18.456 -46.490  0.00  0.00    +0.000 C 
BRANCH  19  21
ATOM     21  O   UNL     1     -11.682  18.255 -48.510  0.00  0.00    +0.000 OA
BRANCH  21  22
ATOM     22  C   UNL     1     -12.329  17.266 -49.317  0.00  0.00    +0.000 C 
BRANCH  22  25
ATOM     23 CL   UNL     1     -16.467  18.916 -46.594  0.00  0.00    +0.000 Cl
ATOM     24 CL   UNL     1     -18.106  16.357 -47.755  0.00  0.00    +0.000 Cl
ATOM     25  C   UNL     1     -13.759  17.050 -48.875  0.00  0.00    +0.000 A 
ATOM     26  C   UNL     1     -14.411  17.958 -48.028  0.00  0.00    +0.000 A 
ATOM     27  C   UNL     1     -14.481  15.956 -49.373  0.00  0.00    +0.000 A 
ATOM     28  C   UNL     1     -15.748  17.762 -47.660  0.00  0.00    +0.000 A 
ATOM     29  C   UNL     1     -15.817  15.760 -49.013  0.00  0.00    +0.000 A 
ATOM     30  C   UNL     1     -16.453  16.660 -48.156  0.00  0.00    +0.000 A 
ENDBRANCH  22  25
ENDBRANCH  21  22
ENDBRANCH  19  21
ENDBRANCH   5  20
TORSDOF 5
ENDMDL
MODEL 7
REMARK VINA RESULT:      -4.9      1.519      1.988
REMARK  Name = 142505367
REMARK  5 active torsions:
REMARK  status: ('A' for Active; 'I' for Inactive)
REMARK    1  A    between atoms: O_4  and  N_7
REMARK    2  A    between atoms: O_4  and  C_24
REMARK    3  A    between atoms: C_8  and  C_9
REMARK    4  A    between atoms: C_10  and  C_20
REMARK    5  A    between atoms: C_24  and  C_25
REMARK                            x       y       z     vdW  Elec       q    Type
REMARK                         _______ _______ _______ _____ _____    ______ ____
ROOT
ATOM      1  S   UNL     1      -8.729  -3.891 -47.656  0.00  0.00    +0.000 S 
ATOM      2  N   UNL     1      -7.299  -4.236 -49.761  0.00  0.00    +0.000 N 
ATOM      3  N   UNL     1      -8.306  -2.255 -49.894  0.00  0.00    +0.000 NA
ATOM      4  C   UNL     1      -7.499  -2.454 -51.006  0.00  0.00    +0.000 A 
ATOM      5  C   UNL     1      -6.838  -3.691 -50.932  0.00  0.00    +0.000 A 
ATOM      6  C   UNL     1      -8.127  -3.326 -49.183  0.00  0.00    +0.000 A 
ATOM      7  C   UNL     1      -7.126  -5.406 -49.044  0.00  0.00    +0.000 A 
ATOM      8  C   UNL     1      -7.821  -5.389 -47.895  0.00  0.00    +0.000 A 
ENDROOT
BRANCH   4   9
ATOM      9  C   UNL     1      -7.448  -1.493 -52.120  0.00  0.00    +0.000 A 
ATOM     10  C   UNL     1      -6.572  -0.360 -52.124  0.00  0.00    +0.000 A 
ATOM     11  C   UNL     1      -6.604   0.514 -53.246  0.00  0.00    +0.000 A 
ATOM     12  C   UNL     1      -8.337  -1.673 -53.200  0.00  0.00    +0.000 A 
ATOM     13  C   UNL     1      -5.666  -0.015 -51.085  0.00  0.00    +0.000 A 
ATOM     14  C   UNL     1      -7.458   0.253 -54.324  0.00  0.00    +0.000 A 
ATOM     15  C   UNL     1      -8.324  -0.829 -54.303  0.00  0.00    +0.000 A 
ATOM     16  C   UNL     1      -5.794   1.662 -53.282  0.00  0.00    +0.000 A 
ATOM     17  C   UNL     1      -4.882   1.142 -51.123  0.00  0.00    +0.000 A 
ATOM     18  C   UNL     1      -4.948   1.982 -52.221  0.00  0.00    +0.000 A 
ENDBRANCH   4   9
BRANCH   5  20
ATOM     19  N   UNL     1      -6.295  -5.228 -52.647  0.00  0.00    +0.000 NA
ATOM     20  C   UNL     1      -5.905  -4.306 -51.826  0.00  0.00    +0.000 C 
BRANCH  19  21
ATOM     21  O   UNL     1      -5.214  -5.602 -53.466  0.00  0.00    +0.000 OA
BRANCH  21  22
ATOM     22  C   UNL     1      -5.723  -6.340 -54.581  0.00  0.00    +0.000 C 
BRANCH  22  25
ATOM     23 CL   UNL     1      -6.149  -5.750 -59.752  0.00  0.00    +0.000 Cl
ATOM     24 CL   UNL     1      -6.915  -2.634 -59.216  0.00  0.00    +0.000 Cl
ATOM     25  C   UNL     1      -5.977  -5.435 -55.765  0.00  0.00    +0.000 A 
ATOM     26  C   UNL     1      -5.951  -5.921 -57.082  0.00  0.00    +0.000 A 
ATOM     27  C   UNL     1      -6.316  -4.091 -55.550  0.00  0.00    +0.000 A 
ATOM     28  C   UNL     1      -6.227  -5.075 -58.163  0.00  0.00    +0.000 A 
ATOM     29  C   UNL     1      -6.599  -3.246 -56.627  0.00  0.00    +0.000 A 
ATOM     30  C   UNL     1      -6.554  -3.734 -57.935  0.00  0.00    +0.000 A 
ENDBRANCH  22  25
ENDBRANCH  21  22
ENDBRANCH  19  21
ENDBRANCH   5  20
TORSDOF 5
ENDMDL
MODEL 8
REMARK VINA RESULT:      -4.8     18.108     20.514
REMARK  Name = 142505367
REMARK  5 active torsions:
REMARK  status: ('A' for Active; 'I' for Inactive)
REMARK    1  A    between atoms: O_4  and  N_7
REMARK    2  A    between atoms: O_4  and  C_24
REMARK    3  A    between atoms: C_8  and  C_9
REMARK    4  A    between atoms: C_10  and  C_20
REMARK    5  A    between atoms: C_24  and  C_25
REMARK                            x       y       z     vdW  Elec       q    Type
REMARK                         _______ _______ _______ _____ _____    ______ ____
ROOT
ATOM      1  S   UNL     1      -5.295  15.508 -36.116  0.00  0.00    +0.000 S 
ATOM      2  N   UNL     1      -3.575  15.297 -38.012  0.00  0.00    +0.000 N 
ATOM      3  N   UNL     1      -5.620  15.262 -38.892  0.00  0.00    +0.000 NA
ATOM      4  C   UNL     1      -4.668  15.182 -39.898  0.00  0.00    +0.000 A 
ATOM      5  C   UNL     1      -3.369  15.223 -39.365  0.00  0.00    +0.000 A 
ATOM      6  C   UNL     1      -4.917  15.354 -37.803  0.00  0.00    +0.000 A 
ATOM      7  C   UNL     1      -2.804  15.349 -36.865  0.00  0.00    +0.000 A 
ATOM      8  C   UNL     1      -3.564  15.460 -35.763  0.00  0.00    +0.000 A 
ENDROOT
BRANCH   4   9
ATOM      9  C   UNL     1      -5.034  14.999 -41.312  0.00  0.00    +0.000 A 
ATOM     10  C   UNL     1      -4.613  13.866 -42.080  0.00  0.00    +0.000 A 
ATOM     11  C   UNL     1      -5.015  13.786 -43.442  0.00  0.00    +0.000 A 
ATOM     12  C   UNL     1      -5.787  16.010 -41.943  0.00  0.00    +0.000 A 
ATOM     13  C   UNL     1      -3.805  12.800 -41.600  0.00  0.00    +0.000 A 
ATOM     14  C   UNL     1      -5.820  14.784 -44.004  0.00  0.00    +0.000 A 
ATOM     15  C   UNL     1      -6.201  15.893 -43.265  0.00  0.00    +0.000 A 
ATOM     16  C   UNL     1      -4.595  12.715 -44.250  0.00  0.00    +0.000 A 
ATOM     17  C   UNL     1      -3.376  11.752 -42.420  0.00  0.00    +0.000 A 
ATOM     18  C   UNL     1      -3.770  11.711 -43.746  0.00  0.00    +0.000 A 
ENDBRANCH   4   9
BRANCH   5  20
ATOM     19  N   UNL     1      -1.757  16.123 -40.845  0.00  0.00    +0.000 NA
ATOM     20  C   UNL     1      -2.092  15.190 -40.012  0.00  0.00    +0.000 C 
BRANCH  19  21
ATOM     21  O   UNL     1      -0.433  15.905 -41.270  0.00  0.00    +0.000 OA
BRANCH  21  22
ATOM     22  C   UNL     1      -0.295  14.528 -41.634  0.00  0.00    +0.000 C 
BRANCH  22  25
ATOM     23 CL   UNL     1      -2.933  16.119 -45.851  0.00  0.00    +0.000 Cl
ATOM     24 CL   UNL     1      -1.674  13.582 -47.452  0.00  0.00    +0.000 Cl
ATOM     25  C   UNL     1      -0.691  14.302 -43.076  0.00  0.00    +0.000 A 
ATOM     26  C   UNL     1      -1.539  15.192 -43.754  0.00  0.00    +0.000 A 
ATOM     27  C   UNL     1      -0.152  13.217 -43.782  0.00  0.00    +0.000 A 
ATOM     28  C   UNL     1      -1.864  14.987 -45.100  0.00  0.00    +0.000 A 
ATOM     29  C   UNL     1      -0.469  13.013 -45.127  0.00  0.00    +0.000 A 
ATOM     30  C   UNL     1      -1.327  13.895 -45.789  0.00  0.00    +0.000 A 
ENDBRANCH  22  25
ENDBRANCH  21  22
ENDBRANCH  19  21
ENDBRANCH   5  20
TORSDOF 5
ENDMDL
MODEL 9
REMARK VINA RESULT:      -4.7     20.515     21.866
REMARK  Name = 142505367
REMARK  5 active torsions:
REMARK  status: ('A' for Active; 'I' for Inactive)
REMARK    1  A    between atoms: O_4  and  N_7
REMARK    2  A    between atoms: O_4  and  C_24
REMARK    3  A    between atoms: C_8  and  C_9
REMARK    4  A    between atoms: C_10  and  C_20
REMARK    5  A    between atoms: C_24  and  C_25
REMARK                            x       y       z     vdW  Elec       q    Type
REMARK                         _______ _______ _______ _____ _____    ______ ____
ROOT
ATOM      1  S   UNL     1     -11.990  20.532 -41.069  0.00  0.00    +0.000 S 
ATOM      2  N   UNL     1     -12.006  18.625 -42.790  0.00  0.00    +0.000 N 
ATOM      3  N   UNL     1      -9.902  19.271 -42.453  0.00  0.00    +0.000 NA
ATOM      4  C   UNL     1      -9.938  18.217 -43.356  0.00  0.00    +0.000 A 
ATOM      5  C   UNL     1     -11.256  17.781 -43.567  0.00  0.00    +0.000 A 
ATOM      6  C   UNL     1     -11.148  19.450 -42.133  0.00  0.00    +0.000 A 
ATOM      7  C   UNL     1     -13.343  18.825 -42.500  0.00  0.00    +0.000 A 
ATOM      8  C   UNL     1     -13.513  19.808 -41.600  0.00  0.00    +0.000 A 
ENDROOT
BRANCH   4   9
ATOM      9  C   UNL     1      -8.727  17.720 -44.029  0.00  0.00    +0.000 A 
ATOM     10  C   UNL     1      -8.515  17.857 -45.440  0.00  0.00    +0.000 A 
ATOM     11  C   UNL     1      -7.314  17.336 -45.996  0.00  0.00    +0.000 A 
ATOM     12  C   UNL     1      -7.765  17.038 -43.258  0.00  0.00    +0.000 A 
ATOM     13  C   UNL     1      -9.418  18.466 -46.353  0.00  0.00    +0.000 A 
ATOM     14  C   UNL     1      -6.359  16.727 -45.175  0.00  0.00    +0.000 A 
ATOM     15  C   UNL     1      -6.581  16.571 -43.816  0.00  0.00    +0.000 A 
ATOM     16  C   UNL     1      -7.076  17.410 -47.379  0.00  0.00    +0.000 A 
ATOM     17  C   UNL     1      -9.179  18.513 -47.730  0.00  0.00    +0.000 A 
ATOM     18  C   UNL     1      -8.008  17.982 -48.243  0.00  0.00    +0.000 A 
ENDBRANCH   4   9
BRANCH   5  20
ATOM     19  N   UNL     1     -12.749  15.988 -43.965  0.00  0.00    +0.000 NA
ATOM     20  C   UNL     1     -11.771  16.726 -44.386  0.00  0.00    +0.000 C 
BRANCH  19  21
ATOM     21  O   UNL     1     -13.119  15.091 -44.984  0.00  0.00    +0.000 OA
BRANCH  21  22
ATOM     22  C   UNL     1     -14.479  15.353 -45.346  0.00  0.00    +0.000 C 
BRANCH  22  25
ATOM     23 CL   UNL     1     -17.480  15.109 -49.612  0.00  0.00    +0.000 Cl
ATOM     24 CL   UNL     1     -14.953  16.249 -51.313  0.00  0.00    +0.000 Cl
ATOM     25  C   UNL     1     -14.622  15.528 -46.841  0.00  0.00    +0.000 A 
ATOM     26  C   UNL     1     -15.835  15.270 -47.499  0.00  0.00    +0.000 A 
ATOM     27  C   UNL     1     -13.544  16.026 -47.587  0.00  0.00    +0.000 A 
ATOM     28  C   UNL     1     -15.959  15.475 -48.878  0.00  0.00    +0.000 A 
ATOM     29  C   UNL     1     -13.667  16.238 -48.963  0.00  0.00    +0.000 A 
ATOM     30  C   UNL     1     -14.872  15.962 -49.612  0.00  0.00    +0.000 A 
ENDBRANCH  22  25
ENDBRANCH  21  22
ENDBRANCH  19  21
ENDBRANCH   5  20
TORSDOF 5
ENDMDL
MODEL 10
REMARK VINA RESULT:      -4.6      6.739      9.611
REMARK  Name = 142505367
REMARK  5 active torsions:
REMARK  status: ('A' for Active; 'I' for Inactive)
REMARK    1  A    between atoms: O_4  and  N_7
REMARK    2  A    between atoms: O_4  and  C_24
REMARK    3  A    between atoms: C_8  and  C_9
REMARK    4  A    between atoms: C_10  and  C_20
REMARK    5  A    between atoms: C_24  and  C_25
REMARK                            x       y       z     vdW  Elec       q    Type
REMARK                         _______ _______ _______ _____ _____    ______ ____
ROOT
ATOM      1  S   UNL     1      -2.369   7.841 -57.520  0.00  0.00    +0.000 S 
ATOM      2  N   UNL     1      -3.502   5.611 -56.939  0.00  0.00    +0.000 N 
ATOM      3  N   UNL     1      -3.813   6.032 -59.104  0.00  0.00    +0.000 NA
ATOM      4  C   UNL     1      -4.389   4.814 -58.769  0.00  0.00    +0.000 A 
ATOM      5  C   UNL     1      -4.185   4.520 -57.410  0.00  0.00    +0.000 A 
ATOM      6  C   UNL     1      -3.283   6.443 -57.992  0.00  0.00    +0.000 A 
ATOM      7  C   UNL     1      -2.984   6.047 -55.734  0.00  0.00    +0.000 A 
ATOM      8  C   UNL     1      -2.349   7.223 -55.864  0.00  0.00    +0.000 A 
ENDROOT
BRANCH   4   9
ATOM      9  C   UNL     1      -5.165   4.021 -59.736  0.00  0.00    +0.000 A 
ATOM     10  C   UNL     1      -4.613   2.900 -60.436  0.00  0.00    +0.000 A 
ATOM     11  C   UNL     1      -5.444   2.203 -61.357  0.00  0.00    +0.000 A 
ATOM     12  C   UNL     1      -6.488   4.418 -60.017  0.00  0.00    +0.000 A 
ATOM     13  C   UNL     1      -3.282   2.420 -60.303  0.00  0.00    +0.000 A 
ATOM     14  C   UNL     1      -6.773   2.596 -61.550  0.00  0.00    +0.000 A 
ATOM     15  C   UNL     1      -7.294   3.699 -60.891  0.00  0.00    +0.000 A 
ATOM     16  C   UNL     1      -4.939   1.122 -62.099  0.00  0.00    +0.000 A 
ATOM     17  C   UNL     1      -2.786   1.357 -61.064  0.00  0.00    +0.000 A 
ATOM     18  C   UNL     1      -3.615   0.709 -61.964  0.00  0.00    +0.000 A 
ENDBRANCH   4   9
BRANCH   5  20
ATOM     19  N   UNL     1      -3.893   2.284 -56.693  0.00  0.00    +0.000 NA
ATOM     20  C   UNL     1      -4.575   3.383 -56.633  0.00  0.00    +0.000 C 
BRANCH  19  21
ATOM     21  O   UNL     1      -4.430   1.360 -55.777  0.00  0.00    +0.000 OA
BRANCH  21  22
ATOM     22  C   UNL     1      -4.894   2.077 -54.629  0.00  0.00    +0.000 C 
BRANCH  22  25
ATOM     23 CL   UNL     1      -8.828  -1.261 -53.824  0.00  0.00    +0.000 Cl
ATOM     24 CL   UNL     1      -7.727  -1.645 -50.787  0.00  0.00    +0.000 Cl
ATOM     25  C   UNL     1      -5.649   1.168 -53.685  0.00  0.00    +0.000 A 
ATOM     26  C   UNL     1      -6.774   0.442 -54.107  0.00  0.00    +0.000 A 
ATOM     27  C   UNL     1      -5.183   0.986 -52.375  0.00  0.00    +0.000 A 
ATOM     28  C   UNL     1      -7.437  -0.424 -53.230  0.00  0.00    +0.000 A 
ATOM     29  C   UNL     1      -5.840   0.118 -51.499  0.00  0.00    +0.000 A 
ATOM     30  C   UNL     1      -6.968  -0.588 -51.922  0.00  0.00    +0.000 A 
ENDBRANCH  22  25
ENDBRANCH  21  22
ENDBRANCH  19  21
ENDBRANCH   5  20
TORSDOF 5
ENDMDL
