REMARK  Name = 142505365
REMARK  9 active torsions:
REMARK  status: ('A' for Active; 'I' for Inactive)
REMARK    1  A    between atoms: O_4  and  N_7
REMARK    2  A    between atoms: O_4  and  C_24
REMARK    3  A    between atoms: C_8  and  C_9
REMARK    4  A    between atoms: C_8  and  C_10
REMARK    5  A    between atoms: C_8  and  C_11
REMARK    6  A    between atoms: C_8  and  C_12
REMARK    7  A    between atoms: C_15  and  C_18
REMARK    8  A    between atoms: C_19  and  C_22
REMARK    9  A    between atoms: C_24  and  C_25
REMARK                            x       y       z     vdW  Elec       q    Type
REMARK                         _______ _______ _______ _____ _____    ______ ____
ROOT
ATOM      1  S   UNL     1      -4.596   2.132  -8.498  0.00  0.00    +0.000 S 
ATOM      2  N   UNL     1      -4.827   1.574  -6.005  0.00  0.00    +0.000 N 
ATOM      3  N   UNL     1      -2.755   1.066  -6.659  0.00  0.00    +0.000 NA
ATOM      4  C   UNL     1      -2.924   0.773  -5.310  0.00  0.00    +0.000 A 
ATOM      5  C   UNL     1      -4.228   1.067  -4.885  0.00  0.00    +0.000 A 
ATOM      6  C   UNL     1      -3.913   1.547  -7.012  0.00  0.00    +0.000 A 
ATOM      7  C   UNL     1      -6.080   2.033  -6.356  0.00  0.00    +0.000 A 
ATOM      8  C   UNL     1      -6.136   2.374  -7.655  0.00  0.00    +0.000 A 
ENDROOT
BRANCH   4  12
ATOM      9  C   UNL     1       0.246  -0.889  -2.901  0.00  0.00    +0.000 A 
ATOM     10  C   UNL     1      -0.705  -0.023  -2.357  0.00  0.00    +0.000 A 
ATOM     11  C   UNL     1       0.146  -1.164  -4.277  0.00  0.00    +0.000 A 
ATOM     12  C   UNL     1      -1.834   0.234  -4.499  0.00  0.00    +0.000 A 
ATOM     13  C   UNL     1      -1.703   0.554  -3.147  0.00  0.00    +0.000 A 
ATOM     14  C   UNL     1      -0.880  -0.615  -5.064  0.00  0.00    +0.000 A 
BRANCH   9  15
ATOM     15  C   UNL     1       1.373  -1.497  -2.046  0.00  0.00    +0.000 C 
ATOM     16  C   UNL     1       1.296  -1.089  -0.555  0.00  0.00    +0.000 C 
ATOM     17  C   UNL     1       1.323  -3.038  -2.096  0.00  0.00    +0.000 C 
ATOM     18  C   UNL     1       2.735  -1.011  -2.581  0.00  0.00    +0.000 C 
ENDBRANCH   9  15
ENDBRANCH   4  12
BRANCH   5  20
ATOM     19  N   UNL     1      -4.574  -0.121  -2.885  0.00  0.00    +0.000 NA
ATOM     20  C   UNL     1      -4.899   0.876  -3.635  0.00  0.00    +0.000 C 
BRANCH  19  21
ATOM     21  O   UNL     1      -5.318  -0.117  -1.701  0.00  0.00    +0.000 OA
BRANCH  21  22
ATOM     22  C   UNL     1      -5.087  -1.378  -1.067  0.00  0.00    +0.000 C 
BRANCH  22  25
ATOM     23 CL   UNL     1      -9.482  -0.311   1.533  0.00  0.00    +0.000 Cl
ATOM     24 CL   UNL     1      -8.771  -2.824   3.476  0.00  0.00    +0.000 Cl
ATOM     25  C   UNL     1      -5.949  -1.577   0.155  0.00  0.00    +0.000 A 
ATOM     26  C   UNL     1      -7.144  -0.869   0.347  0.00  0.00    +0.000 A 
ATOM     27  C   UNL     1      -5.613  -2.599   1.055  0.00  0.00    +0.000 A 
ATOM     28  C   UNL     1      -8.015  -1.212   1.387  0.00  0.00    +0.000 A 
ATOM     29  C   UNL     1      -6.483  -2.947   2.089  0.00  0.00    +0.000 A 
ATOM     30  C   UNL     1      -7.695  -2.271   2.242  0.00  0.00    +0.000 A 
ENDBRANCH  22  25
ENDBRANCH  21  22
ENDBRANCH  19  21
ENDBRANCH   5  20
TORSDOF 6
