MODEL 1
REMARK VINA RESULT:      -6.3      0.000      0.000
REMARK  Name = 142505452
REMARK  6 active torsions:
REMARK  status: ('A' for Active; 'I' for Inactive)
REMARK    1  A    between atoms: O_4  and  N_7
REMARK    2  A    between atoms: O_4  and  C_23
REMARK    3  A    between atoms: C_8  and  C_10
REMARK    4  A    between atoms: C_9  and  C_18
REMARK    5  A    between atoms: C_12  and  C_19
REMARK    6  A    between atoms: C_23  and  C_24
REMARK                            x       y       z     vdW  Elec       q    Type
REMARK                         _______ _______ _______ _____ _____    ______ ____
ROOT
ATOM      1  S   UNL     1     -17.707   9.034 -35.277  0.00  0.00    +0.000 S 
ATOM      2  N   UNL     1     -16.189   7.467 -33.925  0.00  0.00    +0.000 N 
ATOM      3  N   UNL     1     -15.120   8.069 -35.790  0.00  0.00    +0.000 NA
ATOM      4  C   UNL     1     -14.320   7.236 -35.016  0.00  0.00    +0.000 A 
ATOM      5  C   UNL     1     -14.976   6.825 -33.854  0.00  0.00    +0.000 A 
ATOM      6  C   UNL     1     -16.208   8.184 -35.087  0.00  0.00    +0.000 A 
ATOM      7  C   UNL     1     -17.340   7.544 -33.168  0.00  0.00    +0.000 A 
ATOM      8  C   UNL     1     -18.255   8.346 -33.740  0.00  0.00    +0.000 A 
ENDROOT
BRANCH   4   9
ATOM      9  C   UNL     1     -12.964   6.891 -35.421  0.00  0.00    +0.000 A 
ATOM     10  C   UNL     1     -10.319   6.110 -36.170  0.00  0.00    +0.000 A 
ATOM     11  C   UNL     1     -11.914   7.817 -35.430  0.00  0.00    +0.000 A 
ATOM     12  C   UNL     1     -12.692   5.586 -35.838  0.00  0.00    +0.000 A 
ATOM     13  C   UNL     1     -10.613   7.429 -35.787  0.00  0.00    +0.000 A 
ATOM     14  C   UNL     1     -11.395   5.205 -36.199  0.00  0.00    +0.000 A 
BRANCH  10  15
ATOM     15  C   UNL     1      -8.941   5.675 -36.501  0.00  0.00    +0.000 A 
ATOM     16  C   UNL     1      -7.829   6.506 -36.273  0.00  0.00    +0.000 A 
ATOM     17  C   UNL     1      -8.683   4.389 -37.013  0.00  0.00    +0.000 A 
ATOM     18  C   UNL     1      -6.522   6.058 -36.502  0.00  0.00    +0.000 A 
ATOM     19  C   UNL     1      -7.379   3.934 -37.231  0.00  0.00    +0.000 A 
ATOM     20  C   UNL     1      -6.298   4.766 -36.965  0.00  0.00    +0.000 A 
ENDBRANCH  10  15
ENDBRANCH   4   9
BRANCH   5  22
ATOM     21  N   UNL     1     -13.584   6.368 -32.025  0.00  0.00    +0.000 NA
ATOM     22  C   UNL     1     -14.544   5.975 -32.794  0.00  0.00    +0.000 C 
BRANCH  21  23
ATOM     23  O   UNL     1     -13.216   5.324 -31.163  0.00  0.00    +0.000 OA
BRANCH  23  24
ATOM     24  C   UNL     1     -11.910   4.894 -31.556  0.00  0.00    +0.000 C 
BRANCH  24  27
ATOM     25 CL   UNL     1      -9.283   1.684 -34.642  0.00  0.00    +0.000 Cl
ATOM     26 CL   UNL     1     -11.666  -0.497 -34.242  0.00  0.00    +0.000 Cl
ATOM     27  C   UNL     1     -11.941   3.620 -32.363  0.00  0.00    +0.000 A 
ATOM     28  C   UNL     1     -10.819   3.284 -33.139  0.00  0.00    +0.000 A 
ATOM     29  C   UNL     1     -12.989   2.699 -32.253  0.00  0.00    +0.000 A 
ATOM     30  C   UNL     1     -10.722   2.032 -33.751  0.00  0.00    +0.000 A 
ATOM     31  C   UNL     1     -12.898   1.449 -32.870  0.00  0.00    +0.000 A 
ATOM     32  C   UNL     1     -11.755   1.102 -33.598  0.00  0.00    +0.000 A 
ENDBRANCH  24  27
ENDBRANCH  23  24
ENDBRANCH  21  23
ENDBRANCH   5  22
TORSDOF 6
ENDMDL
MODEL 2
REMARK VINA RESULT:      -6.0     22.836     25.866
REMARK  Name = 142505452
REMARK  6 active torsions:
REMARK  status: ('A' for Active; 'I' for Inactive)
REMARK    1  A    between atoms: O_4  and  N_7
REMARK    2  A    between atoms: O_4  and  C_23
REMARK    3  A    between atoms: C_8  and  C_10
REMARK    4  A    between atoms: C_9  and  C_18
REMARK    5  A    between atoms: C_12  and  C_19
REMARK    6  A    between atoms: C_23  and  C_24
REMARK                            x       y       z     vdW  Elec       q    Type
REMARK                         _______ _______ _______ _____ _____    ______ ____
ROOT
ATOM      1  S   UNL     1      -1.809   7.867 -58.495  0.00  0.00    +0.000 S 
ATOM      2  N   UNL     1      -3.753   6.240 -58.899  0.00  0.00    +0.000 N 
ATOM      3  N   UNL     1      -2.879   5.829 -56.887  0.00  0.00    +0.000 NA
ATOM      4  C   UNL     1      -3.952   4.982 -57.135  0.00  0.00    +0.000 A 
ATOM      5  C   UNL     1      -4.502   5.203 -58.400  0.00  0.00    +0.000 A 
ATOM      6  C   UNL     1      -2.817   6.563 -57.958  0.00  0.00    +0.000 A 
ATOM      7  C   UNL     1      -3.698   6.982 -60.062  0.00  0.00    +0.000 A 
ATOM      8  C   UNL     1      -2.719   7.903 -60.014  0.00  0.00    +0.000 A 
ENDROOT
BRANCH   4   9
ATOM      9  C   UNL     1      -4.408   4.017 -56.143  0.00  0.00    +0.000 A 
ATOM     10  C   UNL     1      -5.327   2.053 -54.282  0.00  0.00    +0.000 A 
ATOM     11  C   UNL     1      -5.008   4.393 -54.935  0.00  0.00    +0.000 A 
ATOM     12  C   UNL     1      -4.223   2.654 -56.388  0.00  0.00    +0.000 A 
ATOM     13  C   UNL     1      -5.469   3.428 -54.028  0.00  0.00    +0.000 A 
ATOM     14  C   UNL     1      -4.680   1.695 -55.478  0.00  0.00    +0.000 A 
BRANCH  10  15
ATOM     15  C   UNL     1      -5.853   1.022 -53.355  0.00  0.00    +0.000 A 
ATOM     16  C   UNL     1      -5.382   0.906 -52.034  0.00  0.00    +0.000 A 
ATOM     17  C   UNL     1      -6.886   0.148 -53.745  0.00  0.00    +0.000 A 
ATOM     18  C   UNL     1      -5.945  -0.008 -51.135  0.00  0.00    +0.000 A 
ATOM     19  C   UNL     1      -7.460  -0.756 -52.846  0.00  0.00    +0.000 A 
ATOM     20  C   UNL     1      -6.994  -0.827 -51.537  0.00  0.00    +0.000 A 
ENDBRANCH  10  15
ENDBRANCH   4   9
BRANCH   5  22
ATOM     21  N   UNL     1      -5.352   3.777 -60.055  0.00  0.00    +0.000 NA
ATOM     22  C   UNL     1      -5.593   4.569 -59.063  0.00  0.00    +0.000 C 
BRANCH  21  23
ATOM     23  O   UNL     1      -6.560   3.393 -60.655  0.00  0.00    +0.000 OA
BRANCH  23  24
ATOM     24  C   UNL     1      -6.542   1.967 -60.762  0.00  0.00    +0.000 C 
BRANCH  24  27
ATOM     25 CL   UNL     1      -9.743  -0.673 -63.846  0.00  0.00    +0.000 Cl
ATOM     26 CL   UNL     1      -8.170   0.590 -66.400  0.00  0.00    +0.000 Cl
ATOM     27  C   UNL     1      -6.828   1.490 -62.164  0.00  0.00    +0.000 A 
ATOM     28  C   UNL     1      -7.929   0.645 -62.379  0.00  0.00    +0.000 A 
ATOM     29  C   UNL     1      -6.119   1.974 -63.270  0.00  0.00    +0.000 A 
ATOM     30  C   UNL     1      -8.347   0.330 -63.675  0.00  0.00    +0.000 A 
ATOM     31  C   UNL     1      -6.530   1.655 -64.566  0.00  0.00    +0.000 A 
ATOM     32  C   UNL     1      -7.658   0.854 -64.773  0.00  0.00    +0.000 A 
ENDBRANCH  24  27
ENDBRANCH  23  24
ENDBRANCH  21  23
ENDBRANCH   5  22
TORSDOF 6
ENDMDL
MODEL 3
REMARK VINA RESULT:      -6.0      3.733      4.815
REMARK  Name = 142505452
REMARK  6 active torsions:
REMARK  status: ('A' for Active; 'I' for Inactive)
REMARK    1  A    between atoms: O_4  and  N_7
REMARK    2  A    between atoms: O_4  and  C_23
REMARK    3  A    between atoms: C_8  and  C_10
REMARK    4  A    between atoms: C_9  and  C_18
REMARK    5  A    between atoms: C_12  and  C_19
REMARK    6  A    between atoms: C_23  and  C_24
REMARK                            x       y       z     vdW  Elec       q    Type
REMARK                         _______ _______ _______ _____ _____    ______ ____
ROOT
ATOM      1  S   UNL     1     -17.798   8.862 -35.283  0.00  0.00    +0.000 S 
ATOM      2  N   UNL     1     -15.737   8.892 -33.754  0.00  0.00    +0.000 N 
ATOM      3  N   UNL     1     -15.236   7.760 -35.611  0.00  0.00    +0.000 NA
ATOM      4  C   UNL     1     -14.135   7.819 -34.764  0.00  0.00    +0.000 A 
ATOM      5  C   UNL     1     -14.431   8.503 -33.583  0.00  0.00    +0.000 A 
ATOM      6  C   UNL     1     -16.150   8.426 -34.969  0.00  0.00    +0.000 A 
ATOM      7  C   UNL     1     -16.691   9.580 -33.032  0.00  0.00    +0.000 A 
ATOM      8  C   UNL     1     -17.853   9.664 -33.705  0.00  0.00    +0.000 A 
ENDROOT
BRANCH   4   9
ATOM      9  C   UNL     1     -12.854   7.235 -35.137  0.00  0.00    +0.000 A 
ATOM     10  C   UNL     1     -10.329   6.172 -35.947  0.00  0.00    +0.000 A 
ATOM     11  C   UNL     1     -12.604   5.858 -35.093  0.00  0.00    +0.000 A 
ATOM     12  C   UNL     1     -11.816   8.079 -35.539  0.00  0.00    +0.000 A 
ATOM     13  C   UNL     1     -11.367   5.337 -35.502  0.00  0.00    +0.000 A 
ATOM     14  C   UNL     1     -10.582   7.555 -35.941  0.00  0.00    +0.000 A 
BRANCH  10  15
ATOM     15  C   UNL     1      -9.035   5.631 -36.429  0.00  0.00    +0.000 A 
ATOM     16  C   UNL     1      -8.947   4.374 -37.055  0.00  0.00    +0.000 A 
ATOM     17  C   UNL     1      -7.846   6.378 -36.325  0.00  0.00    +0.000 A 
ATOM     18  C   UNL     1      -7.740   3.906 -37.590  0.00  0.00    +0.000 A 
ATOM     19  C   UNL     1      -6.642   5.920 -36.870  0.00  0.00    +0.000 A 
ATOM     20  C   UNL     1      -6.593   4.687 -37.511  0.00  0.00    +0.000 A 
ENDBRANCH  10  15
ENDBRANCH   4   9
BRANCH   5  22
ATOM     21  N   UNL     1     -12.727   9.723 -32.533  0.00  0.00    +0.000 NA
ATOM     22  C   UNL     1     -13.617   8.791 -32.447  0.00  0.00    +0.000 C 
BRANCH  21  23
ATOM     23  O   UNL     1     -11.942   9.730 -31.370  0.00  0.00    +0.000 OA
BRANCH  23  24
ATOM     24  C   UNL     1     -10.577   9.834 -31.785  0.00  0.00    +0.000 C 
BRANCH  24  27
ATOM     25 CL   UNL     1      -5.680   9.446 -30.173  0.00  0.00    +0.000 Cl
ATOM     26 CL   UNL     1      -6.779   7.958 -27.496  0.00  0.00    +0.000 Cl
ATOM     27  C   UNL     1      -9.624   9.207 -30.798  0.00  0.00    +0.000 A 
ATOM     28  C   UNL     1      -8.248   9.453 -30.937  0.00  0.00    +0.000 A 
ATOM     29  C   UNL     1     -10.078   8.507 -29.674  0.00  0.00    +0.000 A 
ATOM     30  C   UNL     1      -7.347   9.054 -29.945  0.00  0.00    +0.000 A 
ATOM     31  C   UNL     1      -9.178   8.101 -28.686  0.00  0.00    +0.000 A 
ATOM     32  C   UNL     1      -7.816   8.395 -28.805  0.00  0.00    +0.000 A 
ENDBRANCH  24  27
ENDBRANCH  23  24
ENDBRANCH  21  23
ENDBRANCH   5  22
TORSDOF 6
ENDMDL
MODEL 4
REMARK VINA RESULT:      -5.7     22.162     23.547
REMARK  Name = 142505452
REMARK  6 active torsions:
REMARK  status: ('A' for Active; 'I' for Inactive)
REMARK    1  A    between atoms: O_4  and  N_7
REMARK    2  A    between atoms: O_4  and  C_23
REMARK    3  A    between atoms: C_8  and  C_10
REMARK    4  A    between atoms: C_9  and  C_18
REMARK    5  A    between atoms: C_12  and  C_19
REMARK    6  A    between atoms: C_23  and  C_24
REMARK                            x       y       z     vdW  Elec       q    Type
REMARK                         _______ _______ _______ _____ _____    ______ ____
ROOT
ATOM      1  S   UNL     1     -28.479   1.026 -57.727  0.00  0.00    +0.000 S 
ATOM      2  N   UNL     1     -26.663   0.815 -55.924  0.00  0.00    +0.000 N 
ATOM      3  N   UNL     1     -26.120   2.489 -57.298  0.00  0.00    +0.000 NA
ATOM      4  C   UNL     1     -25.171   2.357 -56.291  0.00  0.00    +0.000 A 
ATOM      5  C   UNL     1     -25.476   1.300 -55.431  0.00  0.00    +0.000 A 
ATOM      6  C   UNL     1     -26.988   1.562 -57.021  0.00  0.00    +0.000 A 
ATOM      7  C   UNL     1     -27.550  -0.197 -55.618  0.00  0.00    +0.000 A 
ATOM      8  C   UNL     1     -28.584  -0.224 -56.477  0.00  0.00    +0.000 A 
ENDROOT
BRANCH   4   9
ATOM      9  C   UNL     1     -24.032   3.260 -56.194  0.00  0.00    +0.000 A 
ATOM     10  C   UNL     1     -21.871   5.120 -56.003  0.00  0.00    +0.000 A 
ATOM     11  C   UNL     1     -22.793   2.990 -56.788  0.00  0.00    +0.000 A 
ATOM     12  C   UNL     1     -24.164   4.441 -55.460  0.00  0.00    +0.000 A 
ATOM     13  C   UNL     1     -21.737   3.909 -56.704  0.00  0.00    +0.000 A 
ATOM     14  C   UNL     1     -23.106   5.353 -55.373  0.00  0.00    +0.000 A 
BRANCH  10  15
ATOM     15  C   UNL     1     -20.780   6.122 -55.947  0.00  0.00    +0.000 A 
ATOM     16  C   UNL     1     -19.571   5.938 -56.645  0.00  0.00    +0.000 A 
ATOM     17  C   UNL     1     -20.929   7.326 -55.233  0.00  0.00    +0.000 A 
ATOM     18  C   UNL     1     -18.580   6.927 -56.663  0.00  0.00    +0.000 A 
ATOM     19  C   UNL     1     -19.947   8.321 -55.260  0.00  0.00    +0.000 A 
ATOM     20  C   UNL     1     -18.776   8.125 -55.984  0.00  0.00    +0.000 A 
ENDBRANCH  10  15
ENDBRANCH   4   9
BRANCH   5  22
ATOM     21  N   UNL     1     -24.191  -0.338 -54.353  0.00  0.00    +0.000 NA
ATOM     22  C   UNL     1     -24.787   0.806 -54.284  0.00  0.00    +0.000 C 
BRANCH  21  23
ATOM     23  O   UNL     1     -23.720  -0.700 -53.082  0.00  0.00    +0.000 OA
BRANCH  23  24
ATOM     24  C   UNL     1     -24.815  -1.300 -52.384  0.00  0.00    +0.000 C 
BRANCH  24  27
ATOM     25 CL   UNL     1     -27.119  -1.785 -47.782  0.00  0.00    +0.000 Cl
ATOM     26 CL   UNL     1     -25.170   0.571 -46.665  0.00  0.00    +0.000 Cl
ATOM     27  C   UNL     1     -25.019  -0.708 -51.012  0.00  0.00    +0.000 A 
ATOM     28  C   UNL     1     -25.928  -1.327 -50.137  0.00  0.00    +0.000 A 
ATOM     29  C   UNL     1     -24.234   0.349 -50.537  0.00  0.00    +0.000 A 
ATOM     30  C   UNL     1     -26.013  -0.933 -48.799  0.00  0.00    +0.000 A 
ATOM     31  C   UNL     1     -24.322   0.749 -49.202  0.00  0.00    +0.000 A 
ATOM     32  C   UNL     1     -25.192   0.094 -48.324  0.00  0.00    +0.000 A 
ENDBRANCH  24  27
ENDBRANCH  23  24
ENDBRANCH  21  23
ENDBRANCH   5  22
TORSDOF 6
ENDMDL
MODEL 5
REMARK VINA RESULT:      -5.7     19.217     20.847
REMARK  Name = 142505452
REMARK  6 active torsions:
REMARK  status: ('A' for Active; 'I' for Inactive)
REMARK    1  A    between atoms: O_4  and  N_7
REMARK    2  A    between atoms: O_4  and  C_23
REMARK    3  A    between atoms: C_8  and  C_10
REMARK    4  A    between atoms: C_9  and  C_18
REMARK    5  A    between atoms: C_12  and  C_19
REMARK    6  A    between atoms: C_23  and  C_24
REMARK                            x       y       z     vdW  Elec       q    Type
REMARK                         _______ _______ _______ _____ _____    ______ ____
ROOT
ATOM      1  S   UNL     1     -28.352   8.418 -50.181  0.00  0.00    +0.000 S 
ATOM      2  N   UNL     1     -26.548   6.597 -50.308  0.00  0.00    +0.000 N 
ATOM      3  N   UNL     1     -26.099   8.159 -51.838  0.00  0.00    +0.000 NA
ATOM      4  C   UNL     1     -25.130   7.163 -51.859  0.00  0.00    +0.000 A 
ATOM      5  C   UNL     1     -25.401   6.160 -50.926  0.00  0.00    +0.000 A 
ATOM      6  C   UNL     1     -26.904   7.780 -50.890  0.00  0.00    +0.000 A 
ATOM      7  C   UNL     1     -27.396   6.150 -49.316  0.00  0.00    +0.000 A 
ATOM      8  C   UNL     1     -28.412   7.007 -49.113  0.00  0.00    +0.000 A 
ENDROOT
BRANCH   4   9
ATOM      9  C   UNL     1     -23.985   7.232 -52.758  0.00  0.00    +0.000 A 
ATOM     10  C   UNL     1     -21.749   7.255 -54.537  0.00  0.00    +0.000 A 
ATOM     11  C   UNL     1     -22.932   8.137 -52.581  0.00  0.00    +0.000 A 
ATOM     12  C   UNL     1     -23.937   6.376 -53.860  0.00  0.00    +0.000 A 
ATOM     13  C   UNL     1     -21.829   8.139 -53.448  0.00  0.00    +0.000 A 
ATOM     14  C   UNL     1     -22.838   6.385 -54.727  0.00  0.00    +0.000 A 
BRANCH  10  15
ATOM     15  C   UNL     1     -20.568   7.213 -55.432  0.00  0.00    +0.000 A 
ATOM     16  C   UNL     1     -20.198   6.037 -56.112  0.00  0.00    +0.000 A 
ATOM     17  C   UNL     1     -19.795   8.364 -55.678  0.00  0.00    +0.000 A 
ATOM     18  C   UNL     1     -19.137   6.025 -57.026  0.00  0.00    +0.000 A 
ATOM     19  C   UNL     1     -18.744   8.358 -56.600  0.00  0.00    +0.000 A 
ATOM     20  C   UNL     1     -18.422   7.189 -57.281  0.00  0.00    +0.000 A 
ENDBRANCH  10  15
ENDBRANCH   4   9
BRANCH   5  22
ATOM     21  N   UNL     1     -25.149   3.832 -51.034  0.00  0.00    +0.000 NA
ATOM     22  C   UNL     1     -24.690   4.964 -50.614  0.00  0.00    +0.000 C 
BRANCH  21  23
ATOM     23  O   UNL     1     -24.393   2.786 -50.485  0.00  0.00    +0.000 OA
BRANCH  23  24
ATOM     24  C   UNL     1     -25.317   1.803 -50.010  0.00  0.00    +0.000 C 
BRANCH  24  27
ATOM     25 CL   UNL     1     -26.787   4.216 -45.681  0.00  0.00    +0.000 Cl
ATOM     26 CL   UNL     1     -26.281   1.432 -44.072  0.00  0.00    +0.000 Cl
ATOM     27  C   UNL     1     -25.385   1.753 -48.505  0.00  0.00    +0.000 A 
ATOM     28  C   UNL     1     -25.875   2.873 -47.812  0.00  0.00    +0.000 A 
ATOM     29  C   UNL     1     -25.108   0.582 -47.790  0.00  0.00    +0.000 A 
ATOM     30  C   UNL     1     -26.134   2.808 -46.440  0.00  0.00    +0.000 A 
ATOM     31  C   UNL     1     -25.360   0.517 -46.418  0.00  0.00    +0.000 A 
ATOM     32  C   UNL     1     -25.896   1.619 -45.744  0.00  0.00    +0.000 A 
ENDBRANCH  24  27
ENDBRANCH  23  24
ENDBRANCH  21  23
ENDBRANCH   5  22
TORSDOF 6
ENDMDL
MODEL 6
REMARK VINA RESULT:      -5.7     24.979     26.613
REMARK  Name = 142505452
REMARK  6 active torsions:
REMARK  status: ('A' for Active; 'I' for Inactive)
REMARK    1  A    between atoms: O_4  and  N_7
REMARK    2  A    between atoms: O_4  and  C_23
REMARK    3  A    between atoms: C_8  and  C_10
REMARK    4  A    between atoms: C_9  and  C_18
REMARK    5  A    between atoms: C_12  and  C_19
REMARK    6  A    between atoms: C_23  and  C_24
REMARK                            x       y       z     vdW  Elec       q    Type
REMARK                         _______ _______ _______ _____ _____    ______ ____
ROOT
ATOM      1  S   UNL     1     -19.941  12.298 -60.801  0.00  0.00    +0.000 S 
ATOM      2  N   UNL     1     -17.508  12.293 -61.617  0.00  0.00    +0.000 N 
ATOM      3  N   UNL     1     -17.516  12.322 -59.385  0.00  0.00    +0.000 NA
ATOM      4  C   UNL     1     -16.213  12.295 -59.868  0.00  0.00    +0.000 A 
ATOM      5  C   UNL     1     -16.180  12.301 -61.264  0.00  0.00    +0.000 A 
ATOM      6  C   UNL     1     -18.240  12.303 -60.465  0.00  0.00    +0.000 A 
ATOM      7  C   UNL     1     -18.245  12.301 -62.783  0.00  0.00    +0.000 A 
ATOM      8  C   UNL     1     -19.566  12.298 -62.532  0.00  0.00    +0.000 A 
ENDROOT
BRANCH   4   9
ATOM      9  C   UNL     1     -15.068  12.247 -58.968  0.00  0.00    +0.000 A 
ATOM     10  C   UNL     1     -12.778  12.244 -57.259  0.00  0.00    +0.000 A 
ATOM     11  C   UNL     1     -14.559  11.052 -58.447  0.00  0.00    +0.000 A 
ATOM     12  C   UNL     1     -14.455  13.443 -58.588  0.00  0.00    +0.000 A 
ATOM     13  C   UNL     1     -13.428  11.051 -57.617  0.00  0.00    +0.000 A 
ATOM     14  C   UNL     1     -13.330  13.438 -57.755  0.00  0.00    +0.000 A 
BRANCH  10  15
ATOM     15  C   UNL     1     -11.553  12.253 -56.424  0.00  0.00    +0.000 A 
ATOM     16  C   UNL     1     -10.854  11.069 -56.124  0.00  0.00    +0.000 A 
ATOM     17  C   UNL     1     -11.007  13.457 -55.939  0.00  0.00    +0.000 A 
ATOM     18  C   UNL     1      -9.649  11.092 -55.412  0.00  0.00    +0.000 A 
ATOM     19  C   UNL     1      -9.797  13.485 -55.240  0.00  0.00    +0.000 A 
ATOM     20  C   UNL     1      -9.113  12.302 -54.984  0.00  0.00    +0.000 A 
ENDBRANCH  10  15
ENDBRANCH   4   9
BRANCH   5  22
ATOM     21  N   UNL     1     -14.298  13.316 -62.223  0.00  0.00    +0.000 NA
ATOM     22  C   UNL     1     -15.077  12.288 -62.168  0.00  0.00    +0.000 C 
BRANCH  21  23
ATOM     23  O   UNL     1     -13.387  13.159 -63.279  0.00  0.00    +0.000 OA
BRANCH  23  24
ATOM     24  C   UNL     1     -12.683  11.935 -63.048  0.00  0.00    +0.000 C 
BRANCH  24  27
ATOM     25 CL   UNL     1      -8.675  14.775 -61.437  0.00  0.00    +0.000 Cl
ATOM     26 CL   UNL     1      -8.676  13.040 -58.683  0.00  0.00    +0.000 Cl
ATOM     27  C   UNL     1     -11.577  12.087 -62.034  0.00  0.00    +0.000 A 
ATOM     28  C   UNL     1     -10.656  13.137 -62.190  0.00  0.00    +0.000 A 
ATOM     29  C   UNL     1     -11.524  11.305 -60.874  0.00  0.00    +0.000 A 
ATOM     30  C   UNL     1      -9.734  13.434 -61.183  0.00  0.00    +0.000 A 
ATOM     31  C   UNL     1     -10.598  11.596 -59.870  0.00  0.00    +0.000 A 
ATOM     32  C   UNL     1      -9.719  12.675 -60.009  0.00  0.00    +0.000 A 
ENDBRANCH  24  27
ENDBRANCH  23  24
ENDBRANCH  21  23
ENDBRANCH   5  22
TORSDOF 6
ENDMDL
MODEL 7
REMARK VINA RESULT:      -5.7     14.189     16.400
REMARK  Name = 142505452
REMARK  6 active torsions:
REMARK  status: ('A' for Active; 'I' for Inactive)
REMARK    1  A    between atoms: O_4  and  N_7
REMARK    2  A    between atoms: O_4  and  C_23
REMARK    3  A    between atoms: C_8  and  C_10
REMARK    4  A    between atoms: C_9  and  C_18
REMARK    5  A    between atoms: C_12  and  C_19
REMARK    6  A    between atoms: C_23  and  C_24
REMARK                            x       y       z     vdW  Elec       q    Type
REMARK                         _______ _______ _______ _____ _____    ______ ____
ROOT
ATOM      1  S   UNL     1      -9.520  22.622 -44.286  0.00  0.00    +0.000 S 
ATOM      2  N   UNL     1     -10.280  20.183 -44.535  0.00  0.00    +0.000 N 
ATOM      3  N   UNL     1      -8.069  20.218 -44.233  0.00  0.00    +0.000 NA
ATOM      4  C   UNL     1      -8.525  18.910 -44.350  0.00  0.00    +0.000 A 
ATOM      5  C   UNL     1      -9.904  18.862 -44.563  0.00  0.00    +0.000 A 
ATOM      6  C   UNL     1      -9.154  20.928 -44.334  0.00  0.00    +0.000 A 
ATOM      7  C   UNL     1     -11.447  20.907 -44.674  0.00  0.00    +0.000 A 
ATOM      8  C   UNL     1     -11.224  22.228 -44.562  0.00  0.00    +0.000 A 
ENDROOT
BRANCH   4   9
ATOM      9  C   UNL     1      -7.620  17.774 -44.232  0.00  0.00    +0.000 A 
ATOM     10  C   UNL     1      -5.886  15.507 -44.102  0.00  0.00    +0.000 A 
ATOM     11  C   UNL     1      -7.273  17.202 -43.002  0.00  0.00    +0.000 A 
ATOM     12  C   UNL     1      -7.053  17.237 -45.390  0.00  0.00    +0.000 A 
ATOM     13  C   UNL     1      -6.430  16.081 -42.941  0.00  0.00    +0.000 A 
ATOM     14  C   UNL     1      -6.209  16.123 -45.324  0.00  0.00    +0.000 A 
BRANCH  10  15
ATOM     15  C   UNL     1      -5.035  14.294 -44.055  0.00  0.00    +0.000 A 
ATOM     16  C   UNL     1      -5.426  13.144 -43.343  0.00  0.00    +0.000 A 
ATOM     17  C   UNL     1      -3.821  14.224 -44.765  0.00  0.00    +0.000 A 
ATOM     18  C   UNL     1      -4.663  11.970 -43.375  0.00  0.00    +0.000 A 
ATOM     19  C   UNL     1      -3.065  13.049 -44.811  0.00  0.00    +0.000 A 
ATOM     20  C   UNL     1      -3.492  11.919 -44.123  0.00  0.00    +0.000 A 
ENDBRANCH  10  15
ENDBRANCH   4   9
BRANCH   5  22
ATOM     21  N   UNL     1     -11.290  17.177 -43.705  0.00  0.00    +0.000 NA
ATOM     22  C   UNL     1     -10.779  17.750 -44.743  0.00  0.00    +0.000 C 
BRANCH  21  23
ATOM     23  O   UNL     1     -11.982  16.022 -44.098  0.00  0.00    +0.000 OA
BRANCH  23  24
ATOM     24  C   UNL     1     -13.377  16.295 -43.945  0.00  0.00    +0.000 C 
BRANCH  24  27
ATOM     25 CL   UNL     1     -17.979  14.734 -45.709  0.00  0.00    +0.000 Cl
ATOM     26 CL   UNL     1     -16.888  15.249 -48.732  0.00  0.00    +0.000 Cl
ATOM     27  C   UNL     1     -14.184  15.868 -45.145  0.00  0.00    +0.000 A 
ATOM     28  C   UNL     1     -15.507  15.436 -44.952  0.00  0.00    +0.000 A 
ATOM     29  C   UNL     1     -13.706  16.022 -46.452  0.00  0.00    +0.000 A 
ATOM     30  C   UNL     1     -16.352  15.212 -46.042  0.00  0.00    +0.000 A 
ATOM     31  C   UNL     1     -14.547  15.792 -47.543  0.00  0.00    +0.000 A 
ATOM     32  C   UNL     1     -15.878  15.412 -47.342  0.00  0.00    +0.000 A 
ENDBRANCH  24  27
ENDBRANCH  23  24
ENDBRANCH  21  23
ENDBRANCH   5  22
TORSDOF 6
ENDMDL
MODEL 8
REMARK VINA RESULT:      -5.6     15.236     17.047
REMARK  Name = 142505452
REMARK  6 active torsions:
REMARK  status: ('A' for Active; 'I' for Inactive)
REMARK    1  A    between atoms: O_4  and  N_7
REMARK    2  A    between atoms: O_4  and  C_23
REMARK    3  A    between atoms: C_8  and  C_10
REMARK    4  A    between atoms: C_9  and  C_18
REMARK    5  A    between atoms: C_12  and  C_19
REMARK    6  A    between atoms: C_23  and  C_24
REMARK                            x       y       z     vdW  Elec       q    Type
REMARK                         _______ _______ _______ _____ _____    ______ ____
ROOT
ATOM      1  S   UNL     1     -21.676  13.948 -42.268  0.00  0.00    +0.000 S 
ATOM      2  N   UNL     1     -20.739  15.079 -44.372  0.00  0.00    +0.000 N 
ATOM      3  N   UNL     1     -19.075  14.788 -42.913  0.00  0.00    +0.000 NA
ATOM      4  C   UNL     1     -18.603  15.379 -44.079  0.00  0.00    +0.000 A 
ATOM      5  C   UNL     1     -19.630  15.594 -45.000  0.00  0.00    +0.000 A 
ATOM      6  C   UNL     1     -20.342  14.618 -43.150  0.00  0.00    +0.000 A 
ATOM      7  C   UNL     1     -22.084  14.941 -44.646  0.00  0.00    +0.000 A 
ATOM      8  C   UNL     1     -22.735  14.348 -43.630  0.00  0.00    +0.000 A 
ENDROOT
BRANCH   4   9
ATOM      9  C   UNL     1     -17.191  15.690 -44.258  0.00  0.00    +0.000 A 
ATOM     10  C   UNL     1     -14.447  16.412 -44.598  0.00  0.00    +0.000 A 
ATOM     11  C   UNL     1     -16.345  14.938 -45.082  0.00  0.00    +0.000 A 
ATOM     12  C   UNL     1     -16.642  16.772 -43.566  0.00  0.00    +0.000 A 
ATOM     13  C   UNL     1     -15.000  15.301 -45.257  0.00  0.00    +0.000 A 
ATOM     14  C   UNL     1     -15.300  17.127 -43.738  0.00  0.00    +0.000 A 
BRANCH  10  15
ATOM     15  C   UNL     1     -13.042  16.835 -44.812  0.00  0.00    +0.000 A 
ATOM     16  C   UNL     1     -12.111  16.867 -43.757  0.00  0.00    +0.000 A 
ATOM     17  C   UNL     1     -12.568  17.174 -46.093  0.00  0.00    +0.000 A 
ATOM     18  C   UNL     1     -10.765  17.179 -43.980  0.00  0.00    +0.000 A 
ATOM     19  C   UNL     1     -11.221  17.473 -46.322  0.00  0.00    +0.000 A 
ATOM     20  C   UNL     1     -10.318  17.466 -45.265  0.00  0.00    +0.000 A 
ENDBRANCH  10  15
ENDBRANCH   4   9
BRANCH   5  22
ATOM     21  N   UNL     1     -19.221  15.450 -47.303  0.00  0.00    +0.000 NA
ATOM     22  C   UNL     1     -19.604  16.172 -46.303  0.00  0.00    +0.000 C 
BRANCH  21  23
ATOM     23  O   UNL     1     -19.118  16.252 -48.450  0.00  0.00    +0.000 OA
BRANCH  23  24
ATOM     24  C   UNL     1     -18.223  17.323 -48.136  0.00  0.00    +0.000 C 
BRANCH  24  27
ATOM     25 CL   UNL     1     -13.569  19.367 -49.080  0.00  0.00    +0.000 Cl
ATOM     26 CL   UNL     1     -12.457  16.353 -49.603  0.00  0.00    +0.000 Cl
ATOM     27  C   UNL     1     -16.834  17.090 -48.674  0.00  0.00    +0.000 A 
ATOM     28  C   UNL     1     -15.947  18.177 -48.750  0.00  0.00    +0.000 A 
ATOM     29  C   UNL     1     -16.359  15.806 -48.967  0.00  0.00    +0.000 A 
ATOM     30  C   UNL     1     -14.599  17.980 -49.061  0.00  0.00    +0.000 A 
ATOM     31  C   UNL     1     -15.013  15.607 -49.285  0.00  0.00    +0.000 A 
ATOM     32  C   UNL     1     -14.125  16.688 -49.308  0.00  0.00    +0.000 A 
ENDBRANCH  24  27
ENDBRANCH  23  24
ENDBRANCH  21  23
ENDBRANCH   5  22
TORSDOF 6
ENDMDL
MODEL 9
REMARK VINA RESULT:      -5.6     25.310     28.323
REMARK  Name = 142505452
REMARK  6 active torsions:
REMARK  status: ('A' for Active; 'I' for Inactive)
REMARK    1  A    between atoms: O_4  and  N_7
REMARK    2  A    between atoms: O_4  and  C_23
REMARK    3  A    between atoms: C_8  and  C_10
REMARK    4  A    between atoms: C_9  and  C_18
REMARK    5  A    between atoms: C_12  and  C_19
REMARK    6  A    between atoms: C_23  and  C_24
REMARK                            x       y       z     vdW  Elec       q    Type
REMARK                         _______ _______ _______ _____ _____    ______ ____
ROOT
ATOM      1  S   UNL     1      -9.064  -0.238 -63.676  0.00  0.00    +0.000 S 
ATOM      2  N   UNL     1      -7.086   1.394 -63.782  0.00  0.00    +0.000 N 
ATOM      3  N   UNL     1      -7.802   1.272 -61.672  0.00  0.00    +0.000 NA
ATOM      4  C   UNL     1      -6.713   2.131 -61.768  0.00  0.00    +0.000 A 
ATOM      5  C   UNL     1      -6.261   2.243 -63.085  0.00  0.00    +0.000 A 
ATOM      6  C   UNL     1      -7.968   0.852 -62.891  0.00  0.00    +0.000 A 
ATOM      7  C   UNL     1      -7.251   0.991 -65.092  0.00  0.00    +0.000 A 
ATOM      8  C   UNL     1      -8.262   0.113 -65.215  0.00  0.00    +0.000 A 
ENDROOT
BRANCH   4   9
ATOM      9  C   UNL     1      -6.152   2.784 -60.594  0.00  0.00    +0.000 A 
ATOM     10  C   UNL     1      -5.054   4.167 -58.347  0.00  0.00    +0.000 A 
ATOM     11  C   UNL     1      -5.235   2.159 -59.741  0.00  0.00    +0.000 A 
ATOM     12  C   UNL     1      -6.554   4.086 -60.286  0.00  0.00    +0.000 A 
ATOM     13  C   UNL     1      -4.688   2.843 -58.644  0.00  0.00    +0.000 A 
ATOM     14  C   UNL     1      -6.011   4.762 -59.188  0.00  0.00    +0.000 A 
BRANCH  10  15
ATOM     15  C   UNL     1      -4.447   4.917 -57.222  0.00  0.00    +0.000 A 
ATOM     16  C   UNL     1      -3.621   6.036 -57.440  0.00  0.00    +0.000 A 
ATOM     17  C   UNL     1      -4.715   4.572 -55.883  0.00  0.00    +0.000 A 
ATOM     18  C   UNL     1      -3.124   6.796 -56.374  0.00  0.00    +0.000 A 
ATOM     19  C   UNL     1      -4.232   5.337 -54.818  0.00  0.00    +0.000 A 
ATOM     20  C   UNL     1      -3.444   6.456 -55.065  0.00  0.00    +0.000 A 
ENDBRANCH  10  15
ENDBRANCH   4   9
BRANCH   5  22
ATOM     21  N   UNL     1      -5.456   4.131 -64.216  0.00  0.00    +0.000 NA
ATOM     22  C   UNL     1      -5.192   3.007 -63.638  0.00  0.00    +0.000 C 
BRANCH  21  23
ATOM     23  O   UNL     1      -4.294   4.632 -64.823  0.00  0.00    +0.000 OA
BRANCH  23  24
ATOM     24  C   UNL     1      -3.203   4.341 -63.946  0.00  0.00    +0.000 C 
BRANCH  24  27
ATOM     25 CL   UNL     1      -2.693   9.437 -63.242  0.00  0.00    +0.000 Cl
ATOM     26 CL   UNL     1      -2.856   8.913 -60.033  0.00  0.00    +0.000 Cl
ATOM     27  C   UNL     1      -2.939   5.454 -62.963  0.00  0.00    +0.000 A 
ATOM     28  C   UNL     1      -2.829   6.769 -63.444  0.00  0.00    +0.000 A 
ATOM     29  C   UNL     1      -2.941   5.236 -61.580  0.00  0.00    +0.000 A 
ATOM     30  C   UNL     1      -2.774   7.851 -62.561  0.00  0.00    +0.000 A 
ATOM     31  C   UNL     1      -2.879   6.315 -60.696  0.00  0.00    +0.000 A 
ATOM     32  C   UNL     1      -2.822   7.625 -61.183  0.00  0.00    +0.000 A 
ENDBRANCH  24  27
ENDBRANCH  23  24
ENDBRANCH  21  23
ENDBRANCH   5  22
TORSDOF 6
ENDMDL
MODEL 10
REMARK VINA RESULT:      -5.5     20.692     21.522
REMARK  Name = 142505452
REMARK  6 active torsions:
REMARK  status: ('A' for Active; 'I' for Inactive)
REMARK    1  A    between atoms: O_4  and  N_7
REMARK    2  A    between atoms: O_4  and  C_23
REMARK    3  A    between atoms: C_8  and  C_10
REMARK    4  A    between atoms: C_9  and  C_18
REMARK    5  A    between atoms: C_12  and  C_19
REMARK    6  A    between atoms: C_23  and  C_24
REMARK                            x       y       z     vdW  Elec       q    Type
REMARK                         _______ _______ _______ _____ _____    ______ ____
ROOT
ATOM      1  S   UNL     1     -28.219   8.272 -50.067  0.00  0.00    +0.000 S 
ATOM      2  N   UNL     1     -26.441   6.427 -50.223  0.00  0.00    +0.000 N 
ATOM      3  N   UNL     1     -26.029   7.956 -51.797  0.00  0.00    +0.000 NA
ATOM      4  C   UNL     1     -25.072   6.949 -51.833  0.00  0.00    +0.000 A 
ATOM      5  C   UNL     1     -25.321   5.966 -50.873  0.00  0.00    +0.000 A 
ATOM      6  C   UNL     1     -26.804   7.603 -50.814  0.00  0.00    +0.000 A 
ATOM      7  C   UNL     1     -27.259   6.009 -49.194  0.00  0.00    +0.000 A 
ATOM      8  C   UNL     1     -28.258   6.881 -48.972  0.00  0.00    +0.000 A 
ENDROOT
BRANCH   4   9
ATOM      9  C   UNL     1     -23.959   6.988 -52.772  0.00  0.00    +0.000 A 
ATOM     10  C   UNL     1     -21.765   7.178 -54.593  0.00  0.00    +0.000 A 
ATOM     11  C   UNL     1     -23.895   6.177 -53.911  0.00  0.00    +0.000 A 
ATOM     12  C   UNL     1     -22.894   7.856 -52.524  0.00  0.00    +0.000 A 
ATOM     13  C   UNL     1     -22.823   6.279 -54.811  0.00  0.00    +0.000 A 
ATOM     14  C   UNL     1     -21.823   7.951 -53.420  0.00  0.00    +0.000 A 
BRANCH  10  15
ATOM     15  C   UNL     1     -20.652   7.332 -55.560  0.00  0.00    +0.000 A 
ATOM     16  C   UNL     1     -20.199   8.600 -55.969  0.00  0.00    +0.000 A 
ATOM     17  C   UNL     1     -19.966   6.213 -56.070  0.00  0.00    +0.000 A 
ATOM     18  C   UNL     1     -19.089   8.743 -56.811  0.00  0.00    +0.000 A 
ATOM     19  C   UNL     1     -18.849   6.352 -56.900  0.00  0.00    +0.000 A 
ATOM     20  C   UNL     1     -18.405   7.619 -57.262  0.00  0.00    +0.000 A 
ENDBRANCH  10  15
ENDBRANCH   4   9
BRANCH   5  22
ATOM     21  N   UNL     1     -25.010   3.652 -51.080  0.00  0.00    +0.000 NA
ATOM     22  C   UNL     1     -24.613   4.767 -50.563  0.00  0.00    +0.000 C 
BRANCH  21  23
ATOM     23  O   UNL     1     -24.280   2.591 -50.524  0.00  0.00    +0.000 OA
BRANCH  23  24
ATOM     24  C   UNL     1     -25.191   1.825 -49.731  0.00  0.00    +0.000 C 
BRANCH  24  27
ATOM     25 CL   UNL     1     -23.161  -2.032 -52.512  0.00  0.00    +0.000 Cl
ATOM     26 CL   UNL     1     -25.458  -3.991 -51.295  0.00  0.00    +0.000 Cl
ATOM     27  C   UNL     1     -25.371   0.421 -50.253  0.00  0.00    +0.000 A 
ATOM     28  C   UNL     1     -24.402  -0.106 -51.122  0.00  0.00    +0.000 A 
ATOM     29  C   UNL     1     -26.393  -0.416 -49.789  0.00  0.00    +0.000 A 
ATOM     30  C   UNL     1     -24.423  -1.457 -51.481  0.00  0.00    +0.000 A 
ATOM     31  C   UNL     1     -26.420  -1.764 -50.151  0.00  0.00    +0.000 A 
ATOM     32  C   UNL     1     -25.422  -2.294 -50.976  0.00  0.00    +0.000 A 
ENDBRANCH  24  27
ENDBRANCH  23  24
ENDBRANCH  21  23
ENDBRANCH   5  22
TORSDOF 6
ENDMDL
