MODEL 1
REMARK VINA RESULT:      -5.8      0.000      0.000
REMARK  Name = 142505438
REMARK  6 active torsions:
REMARK  status: ('A' for Active; 'I' for Inactive)
REMARK    1  A    between atoms: O_4  and  N_7
REMARK    2  A    between atoms: O_4  and  C_22
REMARK    3  A    between atoms: C_9  and  C_14
REMARK    4  A    between atoms: C_10  and  C_12
REMARK    5  A    between atoms: C_20  and  C_28
REMARK    6  A    between atoms: C_21  and  C_22
REMARK                            x       y       z     vdW  Elec       q    Type
REMARK                         _______ _______ _______ _____ _____    ______ ____
ROOT
ATOM      1  S   UNL     1       2.829  12.285 -40.148  0.00  0.00    +0.000 S 
ATOM      2  N   UNL     1       0.429  11.847 -40.939  0.00  0.00    +0.000 N 
ATOM      3  N   UNL     1       1.577   9.936 -41.040  0.00  0.00    +0.000 NA
ATOM      4  C   UNL     1      -0.476  10.932 -41.402  0.00  0.00    +0.000 A 
ATOM      5  C   UNL     1       0.268   9.745 -41.467  0.00  0.00    +0.000 A 
ATOM      6  C   UNL     1       1.609  11.200 -40.733  0.00  0.00    +0.000 A 
ATOM      7  C   UNL     1       0.443  13.199 -40.673  0.00  0.00    +0.000 A 
ATOM      8  C   UNL     1       1.648  13.602 -40.234  0.00  0.00    +0.000 A 
ENDROOT
BRANCH   5   9
ATOM      9  C   UNL     1      -0.211   8.438 -41.889  0.00  0.00    +0.000 A 
ATOM     10  C   UNL     1       0.385   7.758 -42.966  0.00  0.00    +0.000 A 
ATOM     11  C   UNL     1      -1.283   7.835 -41.229  0.00  0.00    +0.000 A 
ATOM     12  C   UNL     1      -0.042   6.497 -43.347  0.00  0.00    +0.000 A 
ATOM     13  C   UNL     1      -1.753   6.584 -41.641  0.00  0.00    +0.000 A 
ATOM     14  C   UNL     1      -1.139   5.924 -42.708  0.00  0.00    +0.000 A 
BRANCH  14  16
ATOM     15  N   UNL     1      -2.134   3.705 -43.587  0.00  0.00    +0.000 NA
ATOM     16  C   UNL     1      -1.669   4.700 -43.205  0.00  0.00    +0.000 C 
ENDBRANCH  14  16
ENDBRANCH   5   9
BRANCH   4  18
ATOM     17  N   UNL     1      -2.194  11.199 -42.984  0.00  0.00    +0.000 NA
ATOM     18  C   UNL     1      -1.838  11.226 -41.744  0.00  0.00    +0.000 C 
BRANCH  17  19
ATOM     19  O   UNL     1      -3.560  11.461 -43.134  0.00  0.00    +0.000 OA
BRANCH  19  20
ATOM     20  C   UNL     1      -3.928  12.264 -42.010  0.00  0.00    +0.000 C 
BRANCH  20  23
ATOM     21 CL   UNL     1      -6.038  15.053 -45.848  0.00  0.00    +0.000 Cl
ATOM     22 CL   UNL     1      -7.215  17.058 -43.569  0.00  0.00    +0.000 Cl
ATOM     23  C   UNL     1      -4.591  13.544 -42.438  0.00  0.00    +0.000 A 
ATOM     24  C   UNL     1      -4.920  13.754 -43.786  0.00  0.00    +0.000 A 
ATOM     25  C   UNL     1      -4.969  14.501 -41.488  0.00  0.00    +0.000 A 
ATOM     26  C   UNL     1      -5.683  14.862 -44.167  0.00  0.00    +0.000 A 
ATOM     27  C   UNL     1      -5.742  15.601 -41.867  0.00  0.00    +0.000 A 
ATOM     28  C   UNL     1      -6.135  15.761 -43.198  0.00  0.00    +0.000 A 
ENDBRANCH  20  23
ENDBRANCH  19  20
ENDBRANCH  17  19
ENDBRANCH   4  18
TORSDOF 6
ENDMDL
MODEL 2
REMARK VINA RESULT:      -5.6     12.950     14.293
REMARK  Name = 142505438
REMARK  6 active torsions:
REMARK  status: ('A' for Active; 'I' for Inactive)
REMARK    1  A    between atoms: O_4  and  N_7
REMARK    2  A    between atoms: O_4  and  C_22
REMARK    3  A    between atoms: C_9  and  C_14
REMARK    4  A    between atoms: C_10  and  C_12
REMARK    5  A    between atoms: C_20  and  C_28
REMARK    6  A    between atoms: C_21  and  C_22
REMARK                            x       y       z     vdW  Elec       q    Type
REMARK                         _______ _______ _______ _____ _____    ______ ____
ROOT
ATOM      1  S   UNL     1      -9.881  14.082 -33.389  0.00  0.00    +0.000 S 
ATOM      2  N   UNL     1      -9.278  11.765 -32.469  0.00  0.00    +0.000 N 
ATOM      3  N   UNL     1     -10.277  11.513 -34.448  0.00  0.00    +0.000 NA
ATOM      4  C   UNL     1      -9.298  10.412 -32.669  0.00  0.00    +0.000 A 
ATOM      5  C   UNL     1      -9.938  10.278 -33.910  0.00  0.00    +0.000 A 
ATOM      6  C   UNL     1      -9.854  12.356 -33.552  0.00  0.00    +0.000 A 
ATOM      7  C   UNL     1      -8.865  12.628 -31.478  0.00  0.00    +0.000 A 
ATOM      8  C   UNL     1      -9.105  13.908 -31.806  0.00  0.00    +0.000 A 
ENDROOT
BRANCH   5   9
ATOM      9  C   UNL     1     -10.217   9.037 -34.616  0.00  0.00    +0.000 A 
ATOM     10  C   UNL     1      -9.231   8.045 -34.761  0.00  0.00    +0.000 A 
ATOM     11  C   UNL     1     -11.479   8.811 -35.168  0.00  0.00    +0.000 A 
ATOM     12  C   UNL     1      -9.503   6.845 -35.397  0.00  0.00    +0.000 A 
ATOM     13  C   UNL     1     -11.746   7.622 -35.856  0.00  0.00    +0.000 A 
ATOM     14  C   UNL     1     -10.753   6.649 -35.980  0.00  0.00    +0.000 A 
BRANCH  14  16
ATOM     15  N   UNL     1     -11.197   4.532 -37.398  0.00  0.00    +0.000 NA
ATOM     16  C   UNL     1     -10.975   5.482 -36.764  0.00  0.00    +0.000 C 
ENDBRANCH  14  16
ENDBRANCH   5   9
BRANCH   4  18
ATOM     17  N   UNL     1      -9.469   9.157 -30.689  0.00  0.00    +0.000 NA
ATOM     18  C   UNL     1      -8.787   9.439 -31.747  0.00  0.00    +0.000 C 
BRANCH  17  19
ATOM     19  O   UNL     1      -8.851   8.158 -29.928  0.00  0.00    +0.000 OA
BRANCH  19  20
ATOM     20  C   UNL     1      -8.839   8.645 -28.585  0.00  0.00    +0.000 C 
BRANCH  20  23
ATOM     21 CL   UNL     1      -4.719   7.221 -25.765  0.00  0.00    +0.000 Cl
ATOM     22 CL   UNL     1      -3.023   9.527 -27.315  0.00  0.00    +0.000 Cl
ATOM     23  C   UNL     1      -7.444   8.959 -28.122  0.00  0.00    +0.000 A 
ATOM     24  C   UNL     1      -6.794   8.112 -27.210  0.00  0.00    +0.000 A 
ATOM     25  C   UNL     1      -6.743  10.045 -28.660  0.00  0.00    +0.000 A 
ATOM     26  C   UNL     1      -5.443   8.301 -26.904  0.00  0.00    +0.000 A 
ATOM     27  C   UNL     1      -5.390  10.227 -28.363  0.00  0.00    +0.000 A 
ATOM     28  C   UNL     1      -4.728   9.332 -27.518  0.00  0.00    +0.000 A 
ENDBRANCH  20  23
ENDBRANCH  19  20
ENDBRANCH  17  19
ENDBRANCH   4  18
TORSDOF 6
ENDMDL
MODEL 3
REMARK VINA RESULT:      -5.5     12.925     16.595
REMARK  Name = 142505438
REMARK  6 active torsions:
REMARK  status: ('A' for Active; 'I' for Inactive)
REMARK    1  A    between atoms: O_4  and  N_7
REMARK    2  A    between atoms: O_4  and  C_22
REMARK    3  A    between atoms: C_9  and  C_14
REMARK    4  A    between atoms: C_10  and  C_12
REMARK    5  A    between atoms: C_20  and  C_28
REMARK    6  A    between atoms: C_21  and  C_22
REMARK                            x       y       z     vdW  Elec       q    Type
REMARK                         _______ _______ _______ _____ _____    ______ ____
ROOT
ATOM      1  S   UNL     1     -17.948  15.219 -50.628  0.00  0.00    +0.000 S 
ATOM      2  N   UNL     1     -17.991  15.580 -48.089  0.00  0.00    +0.000 N 
ATOM      3  N   UNL     1     -15.881  15.735 -48.799  0.00  0.00    +0.000 NA
ATOM      4  C   UNL     1     -17.269  15.836 -46.956  0.00  0.00    +0.000 A 
ATOM      5  C   UNL     1     -15.950  15.919 -47.424  0.00  0.00    +0.000 A 
ATOM      6  C   UNL     1     -17.123  15.546 -49.137  0.00  0.00    +0.000 A 
ATOM      7  C   UNL     1     -19.309  15.332 -48.406  0.00  0.00    +0.000 A 
ATOM      8  C   UNL     1     -19.468  15.123 -49.724  0.00  0.00    +0.000 A 
ENDROOT
BRANCH   5   9
ATOM      9  C   UNL     1     -14.760  16.189 -46.632  0.00  0.00    +0.000 A 
ATOM     10  C   UNL     1     -14.134  15.171 -45.889  0.00  0.00    +0.000 A 
ATOM     11  C   UNL     1     -14.217  17.475 -46.593  0.00  0.00    +0.000 A 
ATOM     12  C   UNL     1     -12.979  15.413 -45.165  0.00  0.00    +0.000 A 
ATOM     13  C   UNL     1     -13.079  17.738 -45.823  0.00  0.00    +0.000 A 
ATOM     14  C   UNL     1     -12.471  16.710 -45.101  0.00  0.00    +0.000 A 
BRANCH  14  16
ATOM     15  N   UNL     1     -10.458  17.195 -43.553  0.00  0.00    +0.000 NA
ATOM     16  C   UNL     1     -11.377  16.982 -44.232  0.00  0.00    +0.000 C 
ENDBRANCH  14  16
ENDBRANCH   5   9
BRANCH   4  18
ATOM     17  N   UNL     1     -18.397  17.044 -45.284  0.00  0.00    +0.000 NA
ATOM     18  C   UNL     1     -17.824  15.944 -45.637  0.00  0.00    +0.000 C 
BRANCH  17  19
ATOM     19  O   UNL     1     -18.921  16.961 -43.990  0.00  0.00    +0.000 OA
BRANCH  19  20
ATOM     20  C   UNL     1     -17.861  16.462 -43.172  0.00  0.00    +0.000 C 
BRANCH  20  23
ATOM     21 CL   UNL     1     -17.090  20.804 -40.431  0.00  0.00    +0.000 Cl
ATOM     22 CL   UNL     1     -13.901  20.417 -40.960  0.00  0.00    +0.000 Cl
ATOM     23  C   UNL     1     -16.915  17.556 -42.761  0.00  0.00    +0.000 A 
ATOM     24  C   UNL     1     -17.363  18.607 -41.944  0.00  0.00    +0.000 A 
ATOM     25  C   UNL     1     -15.561  17.496 -43.110  0.00  0.00    +0.000 A 
ATOM     26  C   UNL     1     -16.457  19.535 -41.420  0.00  0.00    +0.000 A 
ATOM     27  C   UNL     1     -14.655  18.415 -42.577  0.00  0.00    +0.000 A 
ATOM     28  C   UNL     1     -15.094  19.410 -41.700  0.00  0.00    +0.000 A 
ENDBRANCH  20  23
ENDBRANCH  19  20
ENDBRANCH  17  19
ENDBRANCH   4  18
TORSDOF 6
ENDMDL
MODEL 4
REMARK VINA RESULT:      -5.4     15.735     17.794
REMARK  Name = 142505438
REMARK  6 active torsions:
REMARK  status: ('A' for Active; 'I' for Inactive)
REMARK    1  A    between atoms: O_4  and  N_7
REMARK    2  A    between atoms: O_4  and  C_22
REMARK    3  A    between atoms: C_9  and  C_14
REMARK    4  A    between atoms: C_10  and  C_12
REMARK    5  A    between atoms: C_20  and  C_28
REMARK    6  A    between atoms: C_21  and  C_22
REMARK                            x       y       z     vdW  Elec       q    Type
REMARK                         _______ _______ _______ _____ _____    ______ ____
ROOT
ATOM      1  S   UNL     1      -6.605  -7.660 -47.530  0.00  0.00    +0.000 S 
ATOM      2  N   UNL     1      -5.265  -5.658 -48.410  0.00  0.00    +0.000 N 
ATOM      3  N   UNL     1      -7.233  -5.720 -49.460  0.00  0.00    +0.000 NA
ATOM      4  C   UNL     1      -5.231  -4.585 -49.258  0.00  0.00    +0.000 A 
ATOM      5  C   UNL     1      -6.470  -4.651 -49.912  0.00  0.00    +0.000 A 
ATOM      6  C   UNL     1      -6.468  -6.275 -48.565  0.00  0.00    +0.000 A 
ATOM      7  C   UNL     1      -4.410  -6.251 -47.506  0.00  0.00    +0.000 A 
ATOM      8  C   UNL     1      -4.968  -7.333 -46.937  0.00  0.00    +0.000 A 
ENDROOT
BRANCH   5   9
ATOM      9  C   UNL     1      -6.970  -3.733 -50.924  0.00  0.00    +0.000 A 
ATOM     10  C   UNL     1      -6.667  -3.916 -52.285  0.00  0.00    +0.000 A 
ATOM     11  C   UNL     1      -7.764  -2.645 -50.556  0.00  0.00    +0.000 A 
ATOM     12  C   UNL     1      -7.173  -3.069 -53.257  0.00  0.00    +0.000 A 
ATOM     13  C   UNL     1      -8.236  -1.755 -51.527  0.00  0.00    +0.000 A 
ATOM     14  C   UNL     1      -7.928  -1.962 -52.873  0.00  0.00    +0.000 A 
BRANCH  14  16
ATOM     15  N   UNL     1      -8.635  -0.265 -54.692  0.00  0.00    +0.000 NA
ATOM     16  C   UNL     1      -8.313  -1.012 -53.860  0.00  0.00    +0.000 C 
ENDBRANCH  14  16
ENDBRANCH   5   9
BRANCH   4  18
ATOM     17  N   UNL     1      -3.426  -3.705 -50.479  0.00  0.00    +0.000 NA
ATOM     18  C   UNL     1      -4.125  -3.682 -49.395  0.00  0.00    +0.000 C 
BRANCH  17  19
ATOM     19  O   UNL     1      -2.421  -2.732 -50.465  0.00  0.00    +0.000 OA
BRANCH  19  20
ATOM     20  C   UNL     1      -2.249  -2.331 -51.826  0.00  0.00    +0.000 C 
BRANCH  20  23
ATOM     21 CL   UNL     1      -5.630   1.398 -50.555  0.00  0.00    +0.000 Cl
ATOM     22 CL   UNL     1      -6.085   1.893 -53.740  0.00  0.00    +0.000 Cl
ATOM     23  C   UNL     1      -3.340  -1.397 -52.271  0.00  0.00    +0.000 A 
ATOM     24  C   UNL     1      -3.982  -0.566 -51.339  0.00  0.00    +0.000 A 
ATOM     25  C   UNL     1      -3.667  -1.278 -53.627  0.00  0.00    +0.000 A 
ATOM     26  C   UNL     1      -4.875   0.422 -51.765  0.00  0.00    +0.000 A 
ATOM     27  C   UNL     1      -4.551  -0.284 -54.053  0.00  0.00    +0.000 A 
ATOM     28  C   UNL     1      -5.123   0.593 -53.129  0.00  0.00    +0.000 A 
ENDBRANCH  20  23
ENDBRANCH  19  20
ENDBRANCH  17  19
ENDBRANCH   4  18
TORSDOF 6
ENDMDL
MODEL 5
REMARK VINA RESULT:      -5.3     13.577     15.261
REMARK  Name = 142505438
REMARK  6 active torsions:
REMARK  status: ('A' for Active; 'I' for Inactive)
REMARK    1  A    between atoms: O_4  and  N_7
REMARK    2  A    between atoms: O_4  and  C_22
REMARK    3  A    between atoms: C_9  and  C_14
REMARK    4  A    between atoms: C_10  and  C_12
REMARK    5  A    between atoms: C_20  and  C_28
REMARK    6  A    between atoms: C_21  and  C_22
REMARK                            x       y       z     vdW  Elec       q    Type
REMARK                         _______ _______ _______ _____ _____    ______ ____
ROOT
ATOM      1  S   UNL     1      -8.756   4.802 -36.425  0.00  0.00    +0.000 S 
ATOM      2  N   UNL     1     -10.808   6.318 -36.162  0.00  0.00    +0.000 N 
ATOM      3  N   UNL     1      -9.124   7.177 -34.975  0.00  0.00    +0.000 NA
ATOM      4  C   UNL     1     -11.331   7.451 -35.602  0.00  0.00    +0.000 A 
ATOM      5  C   UNL     1     -10.261   7.966 -34.855  0.00  0.00    +0.000 A 
ATOM      6  C   UNL     1      -9.508   6.219 -35.767  0.00  0.00    +0.000 A 
ATOM      7  C   UNL     1     -11.261   5.291 -36.961  0.00  0.00    +0.000 A 
ATOM      8  C   UNL     1     -10.292   4.394 -37.207  0.00  0.00    +0.000 A 
ENDROOT
BRANCH   5   9
ATOM      9  C   UNL     1     -10.263   9.183 -34.057  0.00  0.00    +0.000 A 
ATOM     10  C   UNL     1     -10.490  10.439 -34.646  0.00  0.00    +0.000 A 
ATOM     11  C   UNL     1     -10.033   9.121 -32.681  0.00  0.00    +0.000 A 
ATOM     12  C   UNL     1     -10.532  11.596 -33.885  0.00  0.00    +0.000 A 
ATOM     13  C   UNL     1     -10.023  10.291 -31.913  0.00  0.00    +0.000 A 
ATOM     14  C   UNL     1     -10.260  11.526 -32.520  0.00  0.00    +0.000 A 
BRANCH  14  16
ATOM     15  N   UNL     1     -10.089  13.737 -31.190  0.00  0.00    +0.000 NA
ATOM     16  C   UNL     1     -10.151  12.733 -31.774  0.00  0.00    +0.000 C 
ENDBRANCH  14  16
ENDBRANCH   5   9
BRANCH   4  18
ATOM     17  N   UNL     1     -13.534   7.713 -34.825  0.00  0.00    +0.000 NA
ATOM     18  C   UNL     1     -12.681   7.903 -35.774  0.00  0.00    +0.000 C 
BRANCH  17  19
ATOM     19  O   UNL     1     -14.785   8.255 -35.138  0.00  0.00    +0.000 OA
BRANCH  19  20
ATOM     20  C   UNL     1     -15.557   8.167 -33.939  0.00  0.00    +0.000 C 
BRANCH  20  23
ATOM     21 CL   UNL     1     -20.285   6.542 -32.537  0.00  0.00    +0.000 Cl
ATOM     22 CL   UNL     1     -21.508   8.653 -34.693  0.00  0.00    +0.000 Cl
ATOM     23  C   UNL     1     -17.032   8.139 -34.231  0.00  0.00    +0.000 A 
ATOM     24  C   UNL     1     -17.900   7.396 -33.416  0.00  0.00    +0.000 A 
ATOM     25  C   UNL     1     -17.569   8.921 -35.260  0.00  0.00    +0.000 A 
ATOM     26  C   UNL     1     -19.286   7.497 -33.575  0.00  0.00    +0.000 A 
ATOM     27  C   UNL     1     -18.953   9.031 -35.412  0.00  0.00    +0.000 A 
ATOM     28  C   UNL     1     -19.813   8.353 -34.545  0.00  0.00    +0.000 A 
ENDBRANCH  20  23
ENDBRANCH  19  20
ENDBRANCH  17  19
ENDBRANCH   4  18
TORSDOF 6
ENDMDL
MODEL 6
REMARK VINA RESULT:      -5.3     13.974     17.350
REMARK  Name = 142505438
REMARK  6 active torsions:
REMARK  status: ('A' for Active; 'I' for Inactive)
REMARK    1  A    between atoms: O_4  and  N_7
REMARK    2  A    between atoms: O_4  and  C_22
REMARK    3  A    between atoms: C_9  and  C_14
REMARK    4  A    between atoms: C_10  and  C_12
REMARK    5  A    between atoms: C_20  and  C_28
REMARK    6  A    between atoms: C_21  and  C_22
REMARK                            x       y       z     vdW  Elec       q    Type
REMARK                         _______ _______ _______ _____ _____    ______ ____
ROOT
ATOM      1  S   UNL     1     -12.803  10.615 -60.103  0.00  0.00    +0.000 S 
ATOM      2  N   UNL     1     -12.044  11.813 -57.966  0.00  0.00    +0.000 N 
ATOM      3  N   UNL     1     -10.450  12.029 -59.513  0.00  0.00    +0.000 NA
ATOM      4  C   UNL     1     -11.068  12.547 -57.348  0.00  0.00    +0.000 A 
ATOM      5  C   UNL     1     -10.076  12.660 -58.333  0.00  0.00    +0.000 A 
ATOM      6  C   UNL     1     -11.629  11.552 -59.235  0.00  0.00    +0.000 A 
ATOM      7  C   UNL     1     -13.266  11.278 -57.623  0.00  0.00    +0.000 A 
ATOM      8  C   UNL     1     -13.817  10.609 -58.650  0.00  0.00    +0.000 A 
ENDROOT
BRANCH   5   9
ATOM      9  C   UNL     1      -8.806  13.359 -58.213  0.00  0.00    +0.000 A 
ATOM     10  C   UNL     1      -8.028  13.258 -57.046  0.00  0.00    +0.000 A 
ATOM     11  C   UNL     1      -8.337  14.151 -59.263  0.00  0.00    +0.000 A 
ATOM     12  C   UNL     1      -6.799  13.889 -56.942  0.00  0.00    +0.000 A 
ATOM     13  C   UNL     1      -7.121  14.833 -59.145  0.00  0.00    +0.000 A 
ATOM     14  C   UNL     1      -6.362  14.710 -57.980  0.00  0.00    +0.000 A 
BRANCH  14  16
ATOM     15  N   UNL     1      -4.208  16.094 -57.618  0.00  0.00    +0.000 NA
ATOM     16  C   UNL     1      -5.176  15.477 -57.803  0.00  0.00    +0.000 C 
ENDBRANCH  14  16
ENDBRANCH   5   9
BRANCH   4  18
ATOM     17  N   UNL     1     -10.843  12.202 -55.034  0.00  0.00    +0.000 NA
ATOM     18  C   UNL     1     -11.128  13.015 -55.993  0.00  0.00    +0.000 C 
BRANCH  17  19
ATOM     19  O   UNL     1     -10.904  12.833 -53.787  0.00  0.00    +0.000 OA
BRANCH  19  20
ATOM     20  C   UNL     1     -10.298  14.114 -53.968  0.00  0.00    +0.000 C 
BRANCH  20  23
ATOM     21 CL   UNL     1      -6.506  11.620 -51.447  0.00  0.00    +0.000 Cl
ATOM     22 CL   UNL     1      -4.493  14.001 -52.383  0.00  0.00    +0.000 Cl
ATOM     23  C   UNL     1      -8.902  14.150 -53.410  0.00  0.00    +0.000 A 
ATOM     24  C   UNL     1      -8.396  13.050 -52.701  0.00  0.00    +0.000 A 
ATOM     25  C   UNL     1      -8.061  15.240 -53.667  0.00  0.00    +0.000 A 
ATOM     26  C   UNL     1      -7.049  13.006 -52.325  0.00  0.00    +0.000 A 
ATOM     27  C   UNL     1      -6.714  15.191 -53.302  0.00  0.00    +0.000 A 
ATOM     28  C   UNL     1      -6.197  14.058 -52.669  0.00  0.00    +0.000 A 
ENDBRANCH  20  23
ENDBRANCH  19  20
ENDBRANCH  17  19
ENDBRANCH   4  18
TORSDOF 6
ENDMDL
MODEL 7
REMARK VINA RESULT:      -5.3     15.602     17.738
REMARK  Name = 142505438
REMARK  6 active torsions:
REMARK  status: ('A' for Active; 'I' for Inactive)
REMARK    1  A    between atoms: O_4  and  N_7
REMARK    2  A    between atoms: O_4  and  C_22
REMARK    3  A    between atoms: C_9  and  C_14
REMARK    4  A    between atoms: C_10  and  C_12
REMARK    5  A    between atoms: C_20  and  C_28
REMARK    6  A    between atoms: C_21  and  C_22
REMARK                            x       y       z     vdW  Elec       q    Type
REMARK                         _______ _______ _______ _____ _____    ______ ____
ROOT
ATOM      1  S   UNL     1       0.216   9.071 -60.460  0.00  0.00    +0.000 S 
ATOM      2  N   UNL     1      -0.858   7.657 -58.609  0.00  0.00    +0.000 N 
ATOM      3  N   UNL     1      -1.774   7.093 -60.565  0.00  0.00    +0.000 NA
ATOM      4  C   UNL     1      -1.765   6.683 -58.292  0.00  0.00    +0.000 A 
ATOM      5  C   UNL     1      -2.333   6.353 -59.531  0.00  0.00    +0.000 A 
ATOM      6  C   UNL     1      -0.901   7.843 -59.957  0.00  0.00    +0.000 A 
ATOM      7  C   UNL     1       0.019   8.472 -57.929  0.00  0.00    +0.000 A 
ATOM      8  C   UNL     1       0.683   9.289 -58.765  0.00  0.00    +0.000 A 
ENDROOT
BRANCH   5   9
ATOM      9  C   UNL     1      -3.360   5.353 -59.779  0.00  0.00    +0.000 A 
ATOM     10  C   UNL     1      -3.036   4.096 -60.320  0.00  0.00    +0.000 A 
ATOM     11  C   UNL     1      -4.697   5.630 -59.485  0.00  0.00    +0.000 A 
ATOM     12  C   UNL     1      -4.004   3.126 -60.521  0.00  0.00    +0.000 A 
ATOM     13  C   UNL     1      -5.687   4.674 -59.733  0.00  0.00    +0.000 A 
ATOM     14  C   UNL     1      -5.340   3.430 -60.263  0.00  0.00    +0.000 A 
BRANCH  14  16
ATOM     15  N   UNL     1      -7.143   1.686 -60.890  0.00  0.00    +0.000 NA
ATOM     16  C   UNL     1      -6.344   2.486 -60.618  0.00  0.00    +0.000 C 
ENDBRANCH  14  16
ENDBRANCH   5   9
BRANCH   4  18
ATOM     17  N   UNL     1      -2.920   6.793 -56.247  0.00  0.00    +0.000 NA
ATOM     18  C   UNL     1      -2.023   6.204 -56.964  0.00  0.00    +0.000 C 
BRANCH  17  19
ATOM     19  O   UNL     1      -3.076   6.171 -55.004  0.00  0.00    +0.000 OA
BRANCH  19  20
ATOM     20  C   UNL     1      -4.480   5.947 -54.855  0.00  0.00    +0.000 C 
BRANCH  20  23
ATOM     21 CL   UNL     1      -4.211   1.379 -57.307  0.00  0.00    +0.000 Cl
ATOM     22 CL   UNL     1      -5.150  -0.024 -54.524  0.00  0.00    +0.000 Cl
ATOM     23  C   UNL     1      -4.809   4.480 -54.853  0.00  0.00    +0.000 A 
ATOM     24  C   UNL     1      -4.481   3.681 -55.958  0.00  0.00    +0.000 A 
ATOM     25  C   UNL     1      -5.363   3.877 -53.717  0.00  0.00    +0.000 A 
ATOM     26  C   UNL     1      -4.629   2.291 -55.900  0.00  0.00    +0.000 A 
ATOM     27  C   UNL     1      -5.500   2.488 -53.654  0.00  0.00    +0.000 A 
ATOM     28  C   UNL     1      -5.095   1.691 -54.728  0.00  0.00    +0.000 A 
ENDBRANCH  20  23
ENDBRANCH  19  20
ENDBRANCH  17  19
ENDBRANCH   4  18
TORSDOF 6
ENDMDL
MODEL 8
REMARK VINA RESULT:      -5.3     13.569     15.604
REMARK  Name = 142505438
REMARK  6 active torsions:
REMARK  status: ('A' for Active; 'I' for Inactive)
REMARK    1  A    between atoms: O_4  and  N_7
REMARK    2  A    between atoms: O_4  and  C_22
REMARK    3  A    between atoms: C_9  and  C_14
REMARK    4  A    between atoms: C_10  and  C_12
REMARK    5  A    between atoms: C_20  and  C_28
REMARK    6  A    between atoms: C_21  and  C_22
REMARK                            x       y       z     vdW  Elec       q    Type
REMARK                         _______ _______ _______ _____ _____    ______ ____
ROOT
ATOM      1  S   UNL     1       2.252   9.230 -60.319  0.00  0.00    +0.000 S 
ATOM      2  N   UNL     1       0.423   8.701 -58.600  0.00  0.00    +0.000 N 
ATOM      3  N   UNL     1       2.382   8.846 -57.541  0.00  0.00    +0.000 NA
ATOM      4  C   UNL     1       0.118   8.468 -57.287  0.00  0.00    +0.000 A 
ATOM      5  C   UNL     1       1.362   8.554 -56.645  0.00  0.00    +0.000 A 
ATOM      6  C   UNL     1       1.763   8.928 -58.682  0.00  0.00    +0.000 A 
ATOM      7  C   UNL     1      -0.254   8.729 -59.799  0.00  0.00    +0.000 A 
ATOM      8  C   UNL     1       0.569   9.004 -60.824  0.00  0.00    +0.000 A 
ENDROOT
BRANCH   5   9
ATOM      9  C   UNL     1       1.620   8.398 -55.222  0.00  0.00    +0.000 A 
ATOM     10  C   UNL     1       1.619   9.506 -54.356  0.00  0.00    +0.000 A 
ATOM     11  C   UNL     1       1.878   7.133 -54.689  0.00  0.00    +0.000 A 
ATOM     12  C   UNL     1       1.825   9.357 -52.994  0.00  0.00    +0.000 A 
ATOM     13  C   UNL     1       2.137   6.982 -53.322  0.00  0.00    +0.000 A 
ATOM     14  C   UNL     1       2.123   8.096 -52.481  0.00  0.00    +0.000 A 
BRANCH  14  16
ATOM     15  N   UNL     1       2.761   7.841 -49.989  0.00  0.00    +0.000 NA
ATOM     16  C   UNL     1       2.486   7.975 -51.111  0.00  0.00    +0.000 C 
ENDBRANCH  14  16
ENDBRANCH   5   9
BRANCH   4  18
ATOM     17  N   UNL     1      -1.444   7.008 -56.309  0.00  0.00    +0.000 NA
ATOM     18  C   UNL     1      -1.197   8.180 -56.789  0.00  0.00    +0.000 C 
BRANCH  17  19
ATOM     19  O   UNL     1      -2.753   6.914 -55.827  0.00  0.00    +0.000 OA
BRANCH  19  20
ATOM     20  C   UNL     1      -3.406   5.952 -56.659  0.00  0.00    +0.000 C 
BRANCH  20  23
ATOM     21 CL   UNL     1      -4.693   0.963 -56.021  0.00  0.00    +0.000 Cl
ATOM     22 CL   UNL     1      -5.707   1.741 -53.027  0.00  0.00    +0.000 Cl
ATOM     23  C   UNL     1      -4.136   4.920 -55.845  0.00  0.00    +0.000 A 
ATOM     24  C   UNL     1      -4.162   3.580 -56.262  0.00  0.00    +0.000 A 
ATOM     25  C   UNL     1      -4.722   5.263 -54.621  0.00  0.00    +0.000 A 
ATOM     26  C   UNL     1      -4.691   2.588 -55.431  0.00  0.00    +0.000 A 
ATOM     27  C   UNL     1      -5.240   4.271 -53.786  0.00  0.00    +0.000 A 
ATOM     28  C   UNL     1      -5.188   2.929 -54.171  0.00  0.00    +0.000 A 
ENDBRANCH  20  23
ENDBRANCH  19  20
ENDBRANCH  17  19
ENDBRANCH   4  18
TORSDOF 6
ENDMDL
MODEL 9
REMARK VINA RESULT:      -5.3     14.512     17.659
REMARK  Name = 142505438
REMARK  6 active torsions:
REMARK  status: ('A' for Active; 'I' for Inactive)
REMARK    1  A    between atoms: O_4  and  N_7
REMARK    2  A    between atoms: O_4  and  C_22
REMARK    3  A    between atoms: C_9  and  C_14
REMARK    4  A    between atoms: C_10  and  C_12
REMARK    5  A    between atoms: C_20  and  C_28
REMARK    6  A    between atoms: C_21  and  C_22
REMARK                            x       y       z     vdW  Elec       q    Type
REMARK                         _______ _______ _______ _____ _____    ______ ____
ROOT
ATOM      1  S   UNL     1     -12.364  11.480 -61.251  0.00  0.00    +0.000 S 
ATOM      2  N   UNL     1     -12.059  11.930 -58.744  0.00  0.00    +0.000 N 
ATOM      3  N   UNL     1     -10.322  12.798 -59.845  0.00  0.00    +0.000 NA
ATOM      4  C   UNL     1     -11.280  12.486 -57.766  0.00  0.00    +0.000 A 
ATOM      5  C   UNL     1     -10.194  13.014 -58.478  0.00  0.00    +0.000 A 
ATOM      6  C   UNL     1     -11.450  12.157 -59.941  0.00  0.00    +0.000 A 
ATOM      7  C   UNL     1     -13.231  11.209 -58.806  0.00  0.00    +0.000 A 
ATOM      8  C   UNL     1     -13.547  10.890 -60.072  0.00  0.00    +0.000 A 
ENDROOT
BRANCH   5   9
ATOM      9  C   UNL     1      -9.057  13.734 -57.925  0.00  0.00    +0.000 A 
ATOM     10  C   UNL     1      -9.192  15.050 -57.447  0.00  0.00    +0.000 A 
ATOM     11  C   UNL     1      -7.802  13.125 -57.862  0.00  0.00    +0.000 A 
ATOM     12  C   UNL     1      -8.122  15.725 -56.883  0.00  0.00    +0.000 A 
ATOM     13  C   UNL     1      -6.705  13.820 -57.340  0.00  0.00    +0.000 A 
ATOM     14  C   UNL     1      -6.866  15.123 -56.864  0.00  0.00    +0.000 A 
BRANCH  14  16
ATOM     15  N   UNL     1      -4.802  16.463 -56.070  0.00  0.00    +0.000 NA
ATOM     16  C   UNL     1      -5.743  15.879 -56.427  0.00  0.00    +0.000 C 
ENDBRANCH  14  16
ENDBRANCH   5   9
BRANCH   4  18
ATOM     17  N   UNL     1     -11.961  13.537 -55.777  0.00  0.00    +0.000 NA
ATOM     18  C   UNL     1     -11.579  12.454 -56.363  0.00  0.00    +0.000 C 
BRANCH  17  19
ATOM     19  O   UNL     1     -12.254  13.318 -54.427  0.00  0.00    +0.000 OA
BRANCH  19  20
ATOM     20  C   UNL     1     -11.120  12.635 -53.888  0.00  0.00    +0.000 C 
BRANCH  20  23
ATOM     21 CL   UNL     1      -9.295  17.325 -52.612  0.00  0.00    +0.000 Cl
ATOM     22 CL   UNL     1      -6.304  16.044 -52.704  0.00  0.00    +0.000 Cl
ATOM     23  C   UNL     1      -9.931  13.548 -53.764  0.00  0.00    +0.000 A 
ATOM     24  C   UNL     1     -10.104  14.883 -53.367  0.00  0.00    +0.000 A 
ATOM     25  C   UNL     1      -8.634  13.058 -53.954  0.00  0.00    +0.000 A 
ATOM     26  C   UNL     1      -8.997  15.690 -53.086  0.00  0.00    +0.000 A 
ATOM     27  C   UNL     1      -7.528  13.860 -53.662  0.00  0.00    +0.000 A 
ATOM     28  C   UNL     1      -7.708  15.162 -53.189  0.00  0.00    +0.000 A 
ENDBRANCH  20  23
ENDBRANCH  19  20
ENDBRANCH  17  19
ENDBRANCH   4  18
TORSDOF 6
ENDMDL
MODEL 10
REMARK VINA RESULT:      -5.2      7.081     10.756
REMARK  Name = 142505438
REMARK  6 active torsions:
REMARK  status: ('A' for Active; 'I' for Inactive)
REMARK    1  A    between atoms: O_4  and  N_7
REMARK    2  A    between atoms: O_4  and  C_22
REMARK    3  A    between atoms: C_9  and  C_14
REMARK    4  A    between atoms: C_10  and  C_12
REMARK    5  A    between atoms: C_20  and  C_28
REMARK    6  A    between atoms: C_21  and  C_22
REMARK                            x       y       z     vdW  Elec       q    Type
REMARK                         _______ _______ _______ _____ _____    ______ ____
ROOT
ATOM      1  S   UNL     1      -6.842  21.452 -46.723  0.00  0.00    +0.000 S 
ATOM      2  N   UNL     1      -8.213  19.500 -45.781  0.00  0.00    +0.000 N 
ATOM      3  N   UNL     1      -6.083  18.859 -45.957  0.00  0.00    +0.000 NA
ATOM      4  C   UNL     1      -8.208  18.210 -45.325  0.00  0.00    +0.000 A 
ATOM      5  C   UNL     1      -6.865  17.827 -45.454  0.00  0.00    +0.000 A 
ATOM      6  C   UNL     1      -6.937  19.827 -46.124  0.00  0.00    +0.000 A 
ATOM      7  C   UNL     1      -9.152  20.485 -45.994  0.00  0.00    +0.000 A 
ATOM      8  C   UNL     1      -8.591  21.601 -46.490  0.00  0.00    +0.000 A 
ENDROOT
BRANCH   5   9
ATOM      9  C   UNL     1      -6.289  16.539 -45.100  0.00  0.00    +0.000 A 
ATOM     10  C   UNL     1      -6.240  16.107 -43.763  0.00  0.00    +0.000 A 
ATOM     11  C   UNL     1      -5.769  15.705 -46.092  0.00  0.00    +0.000 A 
ATOM     12  C   UNL     1      -5.729  14.865 -43.424  0.00  0.00    +0.000 A 
ATOM     13  C   UNL     1      -5.205  14.470 -45.752  0.00  0.00    +0.000 A 
ATOM     14  C   UNL     1      -5.174  14.060 -44.418  0.00  0.00    +0.000 A 
BRANCH  14  16
ATOM     15  N   UNL     1      -4.001  11.867 -43.710  0.00  0.00    +0.000 NA
ATOM     16  C   UNL     1      -4.513  12.857 -44.044  0.00  0.00    +0.000 C 
ENDBRANCH  14  16
ENDBRANCH   5   9
BRANCH   4  18
ATOM     17  N   UNL     1      -9.563  17.353 -43.606  0.00  0.00    +0.000 NA
ATOM     18  C   UNL     1      -9.367  17.495 -44.873  0.00  0.00    +0.000 C 
BRANCH  17  19
ATOM     19  O   UNL     1     -10.758  16.676 -43.341  0.00  0.00    +0.000 OA
BRANCH  19  20
ATOM     20  C   UNL     1     -11.798  17.501 -43.868  0.00  0.00    +0.000 C 
BRANCH  20  23
ATOM     21 CL   UNL     1     -16.921  16.699 -43.612  0.00  0.00    +0.000 Cl
ATOM     22 CL   UNL     1     -16.609  14.718 -46.177  0.00  0.00    +0.000 Cl
ATOM     23  C   UNL     1     -12.983  16.686 -44.308  0.00  0.00    +0.000 A 
ATOM     24  C   UNL     1     -14.258  16.955 -43.789  0.00  0.00    +0.000 A 
ATOM     25  C   UNL     1     -12.846  15.712 -45.305  0.00  0.00    +0.000 A 
ATOM     26  C   UNL     1     -15.388  16.319 -44.313  0.00  0.00    +0.000 A 
ATOM     27  C   UNL     1     -13.975  15.085 -45.837  0.00  0.00    +0.000 A 
ATOM     28  C   UNL     1     -15.250  15.417 -45.371  0.00  0.00    +0.000 A 
ENDBRANCH  20  23
ENDBRANCH  19  20
ENDBRANCH  17  19
ENDBRANCH   4  18
TORSDOF 6
ENDMDL
