MODEL 1
REMARK VINA RESULT:      -5.4      0.000      0.000
REMARK  Name = 142505438
REMARK  6 active torsions:
REMARK  status: ('A' for Active; 'I' for Inactive)
REMARK    1  A    between atoms: O_4  and  N_7
REMARK    2  A    between atoms: O_4  and  C_22
REMARK    3  A    between atoms: C_9  and  C_14
REMARK    4  A    between atoms: C_10  and  C_12
REMARK    5  A    between atoms: C_20  and  C_28
REMARK    6  A    between atoms: C_21  and  C_22
REMARK                            x       y       z     vdW  Elec       q    Type
REMARK                         _______ _______ _______ _____ _____    ______ ____
ROOT
ATOM      1  S   UNL     1      -1.778 -13.508  -3.815  0.00  0.00    +0.000 S 
ATOM      2  N   UNL     1       0.537 -13.657  -2.720  0.00  0.00    +0.000 N 
ATOM      3  N   UNL     1      -0.984 -14.447  -1.291  0.00  0.00    +0.000 NA
ATOM      4  C   UNL     1       1.263 -14.022  -1.620  0.00  0.00    +0.000 A 
ATOM      5  C   UNL     1       0.288 -14.504  -0.734  0.00  0.00    +0.000 A 
ATOM      6  C   UNL     1      -0.771 -13.943  -2.471  0.00  0.00    +0.000 A 
ATOM      7  C   UNL     1       0.791 -13.074  -3.943  0.00  0.00    +0.000 A 
ATOM      8  C   UNL     1      -0.335 -12.925  -4.661  0.00  0.00    +0.000 A 
ENDROOT
BRANCH   5   9
ATOM      9  C   UNL     1       0.512 -15.037   0.600  0.00  0.00    +0.000 A 
ATOM     10  C   UNL     1       1.141 -16.280   0.791  0.00  0.00    +0.000 A 
ATOM     11  C   UNL     1       0.098 -14.318   1.724  0.00  0.00    +0.000 A 
ATOM     12  C   UNL     1       1.393 -16.774   2.061  0.00  0.00    +0.000 A 
ATOM     13  C   UNL     1       0.302 -14.835   3.008  0.00  0.00    +0.000 A 
ATOM     14  C   UNL     1       0.937 -16.067   3.172  0.00  0.00    +0.000 A 
BRANCH  14  16
ATOM     15  N   UNL     1       1.186 -17.104   5.528  0.00  0.00    +0.000 NA
ATOM     16  C   UNL     1       1.060 -16.654   4.463  0.00  0.00    +0.000 C 
ENDBRANCH  14  16
ENDBRANCH   5   9
BRANCH   4  18
ATOM     17  N   UNL     1       3.449 -14.870  -1.781  0.00  0.00    +0.000 NA
ATOM     18  C   UNL     1       2.684 -13.874  -1.488  0.00  0.00    +0.000 C 
BRANCH  17  19
ATOM     19  O   UNL     1       4.801 -14.540  -1.643  0.00  0.00    +0.000 OA
BRANCH  19  20
ATOM     20  C   UNL     1       5.024 -14.389  -0.239  0.00  0.00    +0.000 C 
BRANCH  20  23
ATOM     21 CL   UNL     1       4.607 -17.317   4.028  0.00  0.00    +0.000 Cl
ATOM     22 CL   UNL     1       5.392 -19.884   2.187  0.00  0.00    +0.000 Cl
ATOM     23  C   UNL     1       5.281 -15.712   0.426  0.00  0.00    +0.000 A 
ATOM     24  C   UNL     1       4.948 -15.901   1.777  0.00  0.00    +0.000 A 
ATOM     25  C   UNL     1       5.770 -16.797  -0.311  0.00  0.00    +0.000 A 
ATOM     26  C   UNL     1       5.026 -17.171   2.358  0.00  0.00    +0.000 A 
ATOM     27  C   UNL     1       5.837 -18.068   0.265  0.00  0.00    +0.000 A 
ATOM     28  C   UNL     1       5.427 -18.264   1.586  0.00  0.00    +0.000 A 
ENDBRANCH  20  23
ENDBRANCH  19  20
ENDBRANCH  17  19
ENDBRANCH   4  18
TORSDOF 6
ENDMDL
MODEL 2
REMARK VINA RESULT:      -5.4     33.518     34.599
REMARK  Name = 142505438
REMARK  6 active torsions:
REMARK  status: ('A' for Active; 'I' for Inactive)
REMARK    1  A    between atoms: O_4  and  N_7
REMARK    2  A    between atoms: O_4  and  C_22
REMARK    3  A    between atoms: C_9  and  C_14
REMARK    4  A    between atoms: C_10  and  C_12
REMARK    5  A    between atoms: C_20  and  C_28
REMARK    6  A    between atoms: C_21  and  C_22
REMARK                            x       y       z     vdW  Elec       q    Type
REMARK                         _______ _______ _______ _____ _____    ______ ____
ROOT
ATOM      1  S   UNL     1     -12.376  12.612  13.016  0.00  0.00    +0.000 S 
ATOM      2  N   UNL     1     -11.190  11.708  15.103  0.00  0.00    +0.000 N 
ATOM      3  N   UNL     1     -10.083  13.501  14.369  0.00  0.00    +0.000 NA
ATOM      4  C   UNL     1     -10.154  11.851  15.984  0.00  0.00    +0.000 A 
ATOM      5  C   UNL     1      -9.470  12.975  15.499  0.00  0.00    +0.000 A 
ATOM      6  C   UNL     1     -11.102  12.712  14.188  0.00  0.00    +0.000 A 
ATOM      7  C   UNL     1     -12.229  10.823  14.908  0.00  0.00    +0.000 A 
ATOM      8  C   UNL     1     -12.969  11.159  13.839  0.00  0.00    +0.000 A 
ENDROOT
BRANCH   5   9
ATOM      9  C   UNL     1      -8.278  13.583  16.071  0.00  0.00    +0.000 A 
ATOM     10  C   UNL     1      -7.010  13.378  15.499  0.00  0.00    +0.000 A 
ATOM     11  C   UNL     1      -8.376  14.384  17.211  0.00  0.00    +0.000 A 
ATOM     12  C   UNL     1      -5.879  13.987  16.016  0.00  0.00    +0.000 A 
ATOM     13  C   UNL     1      -7.230  14.961  17.769  0.00  0.00    +0.000 A 
ATOM     14  C   UNL     1      -5.983  14.749  17.178  0.00  0.00    +0.000 A 
BRANCH  14  16
ATOM     15  N   UNL     1      -3.832  15.616  18.321  0.00  0.00    +0.000 NA
ATOM     16  C   UNL     1      -4.797  15.242  17.791  0.00  0.00    +0.000 C 
ENDBRANCH  14  16
ENDBRANCH   5   9
BRANCH   4  18
ATOM     17  N   UNL     1     -10.568  11.140  18.187  0.00  0.00    +0.000 NA
ATOM     18  C   UNL     1      -9.897  10.982  17.096  0.00  0.00    +0.000 C 
BRANCH  17  19
ATOM     19  O   UNL     1     -10.226  10.182  19.147  0.00  0.00    +0.000 OA
BRANCH  19  20
ATOM     20  C   UNL     1     -10.606   8.922  18.592  0.00  0.00    +0.000 C 
BRANCH  20  23
ATOM     21 CL   UNL     1     -15.648   7.905  19.296  0.00  0.00    +0.000 Cl
ATOM     22 CL   UNL     1     -14.758   5.648  21.466  0.00  0.00    +0.000 Cl
ATOM     23  C   UNL     1     -11.665   8.248  19.420  0.00  0.00    +0.000 A 
ATOM     24  C   UNL     1     -13.021   8.403  19.094  0.00  0.00    +0.000 A 
ATOM     25  C   UNL     1     -11.310   7.389  20.467  0.00  0.00    +0.000 A 
ATOM     26  C   UNL     1     -14.000   7.650  19.750  0.00  0.00    +0.000 A 
ATOM     27  C   UNL     1     -12.287   6.628  21.114  0.00  0.00    +0.000 A 
ATOM     28  C   UNL     1     -13.626   6.727  20.729  0.00  0.00    +0.000 A 
ENDBRANCH  20  23
ENDBRANCH  19  20
ENDBRANCH  17  19
ENDBRANCH   4  18
TORSDOF 6
ENDMDL
MODEL 3
REMARK VINA RESULT:      -5.4     34.504     37.149
REMARK  Name = 142505438
REMARK  6 active torsions:
REMARK  status: ('A' for Active; 'I' for Inactive)
REMARK    1  A    between atoms: O_4  and  N_7
REMARK    2  A    between atoms: O_4  and  C_22
REMARK    3  A    between atoms: C_9  and  C_14
REMARK    4  A    between atoms: C_10  and  C_12
REMARK    5  A    between atoms: C_20  and  C_28
REMARK    6  A    between atoms: C_21  and  C_22
REMARK                            x       y       z     vdW  Elec       q    Type
REMARK                         _______ _______ _______ _____ _____    ______ ____
ROOT
ATOM      1  S   UNL     1     -16.709   3.484  23.085  0.00  0.00    +0.000 S 
ATOM      2  N   UNL     1     -15.860   5.886  23.375  0.00  0.00    +0.000 N 
ATOM      3  N   UNL     1     -14.913   5.006  21.556  0.00  0.00    +0.000 NA
ATOM      4  C   UNL     1     -15.065   6.887  22.887  0.00  0.00    +0.000 A 
ATOM      5  C   UNL     1     -14.475   6.309  21.754  0.00  0.00    +0.000 A 
ATOM      6  C   UNL     1     -15.738   4.815  22.544  0.00  0.00    +0.000 A 
ATOM      7  C   UNL     1     -16.686   5.699  24.461  0.00  0.00    +0.000 A 
ATOM      8  C   UNL     1     -17.230   4.470  24.461  0.00  0.00    +0.000 A 
ENDROOT
BRANCH   5   9
ATOM      9  C   UNL     1     -13.537   6.944  20.841  0.00  0.00    +0.000 A 
ATOM     10  C   UNL     1     -13.987   7.747  19.777  0.00  0.00    +0.000 A 
ATOM     11  C   UNL     1     -12.163   6.762  21.006  0.00  0.00    +0.000 A 
ATOM     12  C   UNL     1     -13.098   8.386  18.930  0.00  0.00    +0.000 A 
ATOM     13  C   UNL     1     -11.260   7.363  20.122  0.00  0.00    +0.000 A 
ATOM     14  C   UNL     1     -11.731   8.162  19.079  0.00  0.00    +0.000 A 
BRANCH  14  16
ATOM     15  N   UNL     1     -10.070   9.106  17.336  0.00  0.00    +0.000 NA
ATOM     16  C   UNL     1     -10.833   8.695  18.111  0.00  0.00    +0.000 C 
ENDBRANCH  14  16
ENDBRANCH   5   9
BRANCH   4  18
ATOM     17  N   UNL     1     -15.837   9.066  23.315  0.00  0.00    +0.000 NA
ATOM     18  C   UNL     1     -14.914   8.182  23.488  0.00  0.00    +0.000 C 
BRANCH  17  19
ATOM     19  O   UNL     1     -15.554  10.249  24.006  0.00  0.00    +0.000 OA
BRANCH  19  20
ATOM     20  C   UNL     1     -14.135  10.406  23.944  0.00  0.00    +0.000 C 
BRANCH  20  23
ATOM     21 CL   UNL     1      -9.806  10.299  26.809  0.00  0.00    +0.000 Cl
ATOM     22 CL   UNL     1     -11.646  11.063  29.383  0.00  0.00    +0.000 Cl
ATOM     23  C   UNL     1     -13.515  10.388  25.314  0.00  0.00    +0.000 A 
ATOM     24  C   UNL     1     -12.123  10.290  25.458  0.00  0.00    +0.000 A 
ATOM     25  C   UNL     1     -14.307  10.558  26.455  0.00  0.00    +0.000 A 
ATOM     26  C   UNL     1     -11.526  10.441  26.714  0.00  0.00    +0.000 A 
ATOM     27  C   UNL     1     -13.711  10.721  27.708  0.00  0.00    +0.000 A 
ATOM     28  C   UNL     1     -12.320  10.704  27.833  0.00  0.00    +0.000 A 
ENDBRANCH  20  23
ENDBRANCH  19  20
ENDBRANCH  17  19
ENDBRANCH   4  18
TORSDOF 6
ENDMDL
MODEL 4
REMARK VINA RESULT:      -5.0     36.731     38.604
REMARK  Name = 142505438
REMARK  6 active torsions:
REMARK  status: ('A' for Active; 'I' for Inactive)
REMARK    1  A    between atoms: O_4  and  N_7
REMARK    2  A    between atoms: O_4  and  C_22
REMARK    3  A    between atoms: C_9  and  C_14
REMARK    4  A    between atoms: C_10  and  C_12
REMARK    5  A    between atoms: C_20  and  C_28
REMARK    6  A    between atoms: C_21  and  C_22
REMARK                            x       y       z     vdW  Elec       q    Type
REMARK                         _______ _______ _______ _____ _____    ______ ____
ROOT
ATOM      1  S   UNL     1       7.778  18.521  22.715  0.00  0.00    +0.000 S 
ATOM      2  N   UNL     1       5.671  17.071  22.906  0.00  0.00    +0.000 N 
ATOM      3  N   UNL     1       6.080  17.459  20.747  0.00  0.00    +0.000 NA
ATOM      4  C   UNL     1       4.669  16.414  22.247  0.00  0.00    +0.000 A 
ATOM      5  C   UNL     1       4.941  16.679  20.897  0.00  0.00    +0.000 A 
ATOM      6  C   UNL     1       6.473  17.653  21.973  0.00  0.00    +0.000 A 
ATOM      7  C   UNL     1       6.029  17.300  24.217  0.00  0.00    +0.000 A 
ATOM      8  C   UNL     1       7.139  18.054  24.300  0.00  0.00    +0.000 A 
ENDROOT
BRANCH   5   9
ATOM      9  C   UNL     1       4.184  16.207  19.748  0.00  0.00    +0.000 A 
ATOM     10  C   UNL     1       4.797  15.445  18.737  0.00  0.00    +0.000 A 
ATOM     11  C   UNL     1       2.827  16.510  19.627  0.00  0.00    +0.000 A 
ATOM     12  C   UNL     1       4.073  14.959  17.661  0.00  0.00    +0.000 A 
ATOM     13  C   UNL     1       2.100  16.066  18.516  0.00  0.00    +0.000 A 
ATOM     14  C   UNL     1       2.729  15.303  17.530  0.00  0.00    +0.000 A 
BRANCH  14  16
ATOM     15  N   UNL     1       1.427  14.636  15.398  0.00  0.00    +0.000 NA
ATOM     16  C   UNL     1       2.032  14.933  16.346  0.00  0.00    +0.000 C 
ENDBRANCH  14  16
ENDBRANCH   5   9
BRANCH   4  18
ATOM     17  N   UNL     1       2.608  16.320  23.375  0.00  0.00    +0.000 NA
ATOM     18  C   UNL     1       3.613  15.678  22.883  0.00  0.00    +0.000 C 
BRANCH  17  19
ATOM     19  O   UNL     1       1.653  15.450  23.912  0.00  0.00    +0.000 OA
BRANCH  19  20
ATOM     20  C   UNL     1       1.233  14.617  22.830  0.00  0.00    +0.000 C 
BRANCH  20  23
ATOM     21 CL   UNL     1      -1.828  18.746  22.091  0.00  0.00    +0.000 Cl
ATOM     22 CL   UNL     1      -2.695  17.431  19.242  0.00  0.00    +0.000 Cl
ATOM     23  C   UNL     1       0.121  15.253  22.042  0.00  0.00    +0.000 A 
ATOM     24  C   UNL     1      -0.363  16.522  22.398  0.00  0.00    +0.000 A 
ATOM     25  C   UNL     1      -0.384  14.631  20.893  0.00  0.00    +0.000 A 
ATOM     26  C   UNL     1      -1.275  17.192  21.576  0.00  0.00    +0.000 A 
ATOM     27  C   UNL     1      -1.286  15.305  20.066  0.00  0.00    +0.000 A 
ATOM     28  C   UNL     1      -1.700  16.600  20.384  0.00  0.00    +0.000 A 
ENDBRANCH  20  23
ENDBRANCH  19  20
ENDBRANCH  17  19
ENDBRANCH   4  18
TORSDOF 6
ENDMDL
MODEL 5
REMARK VINA RESULT:      -5.0     37.130     39.373
REMARK  Name = 142505438
REMARK  6 active torsions:
REMARK  status: ('A' for Active; 'I' for Inactive)
REMARK    1  A    between atoms: O_4  and  N_7
REMARK    2  A    between atoms: O_4  and  C_22
REMARK    3  A    between atoms: C_9  and  C_14
REMARK    4  A    between atoms: C_10  and  C_12
REMARK    5  A    between atoms: C_20  and  C_28
REMARK    6  A    between atoms: C_21  and  C_22
REMARK                            x       y       z     vdW  Elec       q    Type
REMARK                         _______ _______ _______ _____ _____    ______ ____
ROOT
ATOM      1  S   UNL     1      -7.592  -5.721  39.916  0.00  0.00    +0.000 S 
ATOM      2  N   UNL     1      -8.728  -7.943  39.322  0.00  0.00    +0.000 N 
ATOM      3  N   UNL     1      -6.548  -8.111  38.877  0.00  0.00    +0.000 NA
ATOM      4  C   UNL     1      -8.577  -9.215  38.844  0.00  0.00    +0.000 A 
ATOM      5  C   UNL     1      -7.205  -9.294  38.563  0.00  0.00    +0.000 A 
ATOM      6  C   UNL     1      -7.502  -7.351  39.329  0.00  0.00    +0.000 A 
ATOM      7  C   UNL     1      -9.769  -7.146  39.746  0.00  0.00    +0.000 A 
ATOM      8  C   UNL     1      -9.341  -5.925  40.108  0.00  0.00    +0.000 A 
ENDROOT
BRANCH   5   9
ATOM      9  C   UNL     1      -6.489 -10.446  38.035  0.00  0.00    +0.000 A 
ATOM     10  C   UNL     1      -6.779 -10.961  36.759  0.00  0.00    +0.000 A 
ATOM     11  C   UNL     1      -5.496 -11.066  38.796  0.00  0.00    +0.000 A 
ATOM     12  C   UNL     1      -6.074 -12.031  36.236  0.00  0.00    +0.000 A 
ATOM     13  C   UNL     1      -4.815 -12.180  38.295  0.00  0.00    +0.000 A 
ATOM     14  C   UNL     1      -5.115 -12.668  37.022  0.00  0.00    +0.000 A 
BRANCH  14  16
ATOM     15  N   UNL     1      -4.036 -14.837  36.116  0.00  0.00    +0.000 NA
ATOM     16  C   UNL     1      -4.506 -13.860  36.539  0.00  0.00    +0.000 C 
ENDBRANCH  14  16
ENDBRANCH   5   9
BRANCH   4  18
ATOM     17  N   UNL     1     -10.583  -9.906  37.832  0.00  0.00    +0.000 NA
ATOM     18  C   UNL     1      -9.643 -10.161  38.678  0.00  0.00    +0.000 C 
BRANCH  17  19
ATOM     19  O   UNL     1     -11.511 -10.950  37.762  0.00  0.00    +0.000 OA
BRANCH  19  20
ATOM     20  C   UNL     1     -12.392 -10.616  36.687  0.00  0.00    +0.000 C 
BRANCH  20  23
ATOM     21 CL   UNL     1     -10.193 -14.906  34.758  0.00  0.00    +0.000 Cl
ATOM     22 CL   UNL     1     -12.807 -15.229  32.844  0.00  0.00    +0.000 Cl
ATOM     23  C   UNL     1     -12.386 -11.672  35.617  0.00  0.00    +0.000 A 
ATOM     24  C   UNL     1     -11.387 -12.659  35.603  0.00  0.00    +0.000 A 
ATOM     25  C   UNL     1     -13.422 -11.740  34.678  0.00  0.00    +0.000 A 
ATOM     26  C   UNL     1     -11.468 -13.739  34.718  0.00  0.00    +0.000 A 
ATOM     27  C   UNL     1     -13.509 -12.824  33.802  0.00  0.00    +0.000 A 
ATOM     28  C   UNL     1     -12.556 -13.845  33.848  0.00  0.00    +0.000 A 
ENDBRANCH  20  23
ENDBRANCH  19  20
ENDBRANCH  17  19
ENDBRANCH   4  18
TORSDOF 6
ENDMDL
MODEL 6
REMARK VINA RESULT:      -5.0     18.123     21.350
REMARK  Name = 142505438
REMARK  6 active torsions:
REMARK  status: ('A' for Active; 'I' for Inactive)
REMARK    1  A    between atoms: O_4  and  N_7
REMARK    2  A    between atoms: O_4  and  C_22
REMARK    3  A    between atoms: C_9  and  C_14
REMARK    4  A    between atoms: C_10  and  C_12
REMARK    5  A    between atoms: C_20  and  C_28
REMARK    6  A    between atoms: C_21  and  C_22
REMARK                            x       y       z     vdW  Elec       q    Type
REMARK                         _______ _______ _______ _____ _____    ______ ____
ROOT
ATOM      1  S   UNL     1     -12.307 -12.279  21.196  0.00  0.00    +0.000 S 
ATOM      2  N   UNL     1     -10.689 -11.819  19.259  0.00  0.00    +0.000 N 
ATOM      3  N   UNL     1     -12.305 -10.280  19.225  0.00  0.00    +0.000 NA
ATOM      4  C   UNL     1     -10.375 -11.021  18.193  0.00  0.00    +0.000 A 
ATOM      5  C   UNL     1     -11.407 -10.071  18.186  0.00  0.00    +0.000 A 
ATOM      6  C   UNL     1     -11.822 -11.326  19.830  0.00  0.00    +0.000 A 
ATOM      7  C   UNL     1     -10.181 -12.958  19.845  0.00  0.00    +0.000 A 
ATOM      8  C   UNL     1     -10.919 -13.341  20.901  0.00  0.00    +0.000 A 
ENDROOT
BRANCH   5   9
ATOM      9  C   UNL     1     -11.563  -8.963  17.256  0.00  0.00    +0.000 A 
ATOM     10  C   UNL     1     -12.571  -8.974  16.274  0.00  0.00    +0.000 A 
ATOM     11  C   UNL     1     -10.706  -7.863  17.321  0.00  0.00    +0.000 A 
ATOM     12  C   UNL     1     -12.749  -7.904  15.413  0.00  0.00    +0.000 A 
ATOM     13  C   UNL     1     -10.848  -6.802  16.421  0.00  0.00    +0.000 A 
ATOM     14  C   UNL     1     -11.861  -6.832  15.460  0.00  0.00    +0.000 A 
BRANCH  14  16
ATOM     15  N   UNL     1     -12.054  -4.957  13.690  0.00  0.00    +0.000 NA
ATOM     16  C   UNL     1     -11.954  -5.812  14.472  0.00  0.00    +0.000 C 
ENDBRANCH  14  16
ENDBRANCH   5   9
BRANCH   4  18
ATOM     17  N   UNL     1      -8.068 -10.926  17.756  0.00  0.00    +0.000 NA
ATOM     18  C   UNL     1      -9.249 -11.216  17.326  0.00  0.00    +0.000 C 
BRANCH  17  19
ATOM     19  O   UNL     1      -7.086 -11.219  16.805  0.00  0.00    +0.000 OA
BRANCH  19  20
ATOM     20  C   UNL     1      -6.079 -10.217  16.962  0.00  0.00    +0.000 C 
BRANCH  20  23
ATOM     21 CL   UNL     1      -1.103 -10.934  15.668  0.00  0.00    +0.000 Cl
ATOM     22 CL   UNL     1      -2.084 -11.240  12.579  0.00  0.00    +0.000 Cl
ATOM     23  C   UNL     1      -5.046 -10.293  15.873  0.00  0.00    +0.000 A 
ATOM     24  C   UNL     1      -3.693 -10.481  16.194  0.00  0.00    +0.000 A 
ATOM     25  C   UNL     1      -5.428 -10.269  14.526  0.00  0.00    +0.000 A 
ATOM     26  C   UNL     1      -2.750 -10.721  15.189  0.00  0.00    +0.000 A 
ATOM     27  C   UNL     1      -4.489 -10.521  13.523  0.00  0.00    +0.000 A 
ATOM     28  C   UNL     1      -3.158 -10.788  13.855  0.00  0.00    +0.000 A 
ENDBRANCH  20  23
ENDBRANCH  19  20
ENDBRANCH  17  19
ENDBRANCH   4  18
TORSDOF 6
ENDMDL
MODEL 7
REMARK VINA RESULT:      -4.9     31.356     33.690
REMARK  Name = 142505438
REMARK  6 active torsions:
REMARK  status: ('A' for Active; 'I' for Inactive)
REMARK    1  A    between atoms: O_4  and  N_7
REMARK    2  A    between atoms: O_4  and  C_22
REMARK    3  A    between atoms: C_9  and  C_14
REMARK    4  A    between atoms: C_10  and  C_12
REMARK    5  A    between atoms: C_20  and  C_28
REMARK    6  A    between atoms: C_21  and  C_22
REMARK                            x       y       z     vdW  Elec       q    Type
REMARK                         _______ _______ _______ _____ _____    ______ ____
ROOT
ATOM      1  S   UNL     1     -10.116  12.574  15.692  0.00  0.00    +0.000 S 
ATOM      2  N   UNL     1     -11.003  10.465  16.853  0.00  0.00    +0.000 N 
ATOM      3  N   UNL     1     -11.875  10.574  14.802  0.00  0.00    +0.000 NA
ATOM      4  C   UNL     1     -11.791   9.351  16.760  0.00  0.00    +0.000 A 
ATOM      5  C   UNL     1     -12.335   9.447  15.470  0.00  0.00    +0.000 A 
ATOM      6  C   UNL     1     -11.083  11.134  15.670  0.00  0.00    +0.000 A 
ATOM      7  C   UNL     1     -10.212  11.059  17.813  0.00  0.00    +0.000 A 
ATOM      8  C   UNL     1      -9.655  12.194  17.360  0.00  0.00    +0.000 A 
ENDROOT
BRANCH   5   9
ATOM      9  C   UNL     1     -13.247   8.507  14.839  0.00  0.00    +0.000 A 
ATOM     10  C   UNL     1     -14.547   8.307  15.337  0.00  0.00    +0.000 A 
ATOM     11  C   UNL     1     -12.842   7.778  13.718  0.00  0.00    +0.000 A 
ATOM     12  C   UNL     1     -15.434   7.443  14.716  0.00  0.00    +0.000 A 
ATOM     13  C   UNL     1     -13.715   6.865  13.116  0.00  0.00    +0.000 A 
ATOM     14  C   UNL     1     -15.003   6.691  13.625  0.00  0.00    +0.000 A 
BRANCH  14  16
ATOM     15  N   UNL     1     -16.572   4.899  12.616  0.00  0.00    +0.000 NA
ATOM     16  C   UNL     1     -15.866   5.693  13.089  0.00  0.00    +0.000 C 
ENDBRANCH  14  16
ENDBRANCH   5   9
BRANCH   4  18
ATOM     17  N   UNL     1     -11.023   7.565  18.080  0.00  0.00    +0.000 NA
ATOM     18  C   UNL     1     -11.977   8.388  17.807  0.00  0.00    +0.000 C 
BRANCH  17  19
ATOM     19  O   UNL     1     -11.352   6.730  19.153  0.00  0.00    +0.000 OA
BRANCH  19  20
ATOM     20  C   UNL     1     -11.331   7.563  20.314  0.00  0.00    +0.000 C 
BRANCH  20  23
ATOM     21 CL   UNL     1     -15.061   4.767  22.602  0.00  0.00    +0.000 Cl
ATOM     22 CL   UNL     1     -16.239   7.556  23.798  0.00  0.00    +0.000 Cl
ATOM     23  C   UNL     1     -12.654   7.549  21.030  0.00  0.00    +0.000 A 
ATOM     24  C   UNL     1     -13.247   6.330  21.395  0.00  0.00    +0.000 A 
ATOM     25  C   UNL     1     -13.265   8.746  21.420  0.00  0.00    +0.000 A 
ATOM     26  C   UNL     1     -14.387   6.308  22.205  0.00  0.00    +0.000 A 
ATOM     27  C   UNL     1     -14.396   8.725  22.239  0.00  0.00    +0.000 A 
ATOM     28  C   UNL     1     -14.934   7.508  22.666  0.00  0.00    +0.000 A 
ENDBRANCH  20  23
ENDBRANCH  19  20
ENDBRANCH  17  19
ENDBRANCH   4  18
TORSDOF 6
ENDMDL
MODEL 8
REMARK VINA RESULT:      -4.9     28.885     32.367
REMARK  Name = 142505438
REMARK  6 active torsions:
REMARK  status: ('A' for Active; 'I' for Inactive)
REMARK    1  A    between atoms: O_4  and  N_7
REMARK    2  A    between atoms: O_4  and  C_22
REMARK    3  A    between atoms: C_9  and  C_14
REMARK    4  A    between atoms: C_10  and  C_12
REMARK    5  A    between atoms: C_20  and  C_28
REMARK    6  A    between atoms: C_21  and  C_22
REMARK                            x       y       z     vdW  Elec       q    Type
REMARK                         _______ _______ _______ _____ _____    ______ ____
ROOT
ATOM      1  S   UNL     1       5.645 -16.800  28.133  0.00  0.00    +0.000 S 
ATOM      2  N   UNL     1       6.122 -14.428  28.984  0.00  0.00    +0.000 N 
ATOM      3  N   UNL     1       4.713 -15.427  30.398  0.00  0.00    +0.000 NA
ATOM      4  C   UNL     1       5.887 -13.489  29.951  0.00  0.00    +0.000 A 
ATOM      5  C   UNL     1       4.995 -14.134  30.820  0.00  0.00    +0.000 A 
ATOM      6  C   UNL     1       5.416 -15.546  29.309  0.00  0.00    +0.000 A 
ATOM      7  C   UNL     1       6.836 -14.502  27.809  0.00  0.00    +0.000 A 
ATOM      8  C   UNL     1       6.700 -15.704  27.224  0.00  0.00    +0.000 A 
ENDROOT
BRANCH   5   9
ATOM      9  C   UNL     1       4.420 -13.589  32.039  0.00  0.00    +0.000 A 
ATOM     10  C   UNL     1       3.032 -13.624  32.269  0.00  0.00    +0.000 A 
ATOM     11  C   UNL     1       5.243 -13.013  33.009  0.00  0.00    +0.000 A 
ATOM     12  C   UNL     1       2.484 -13.143  33.446  0.00  0.00    +0.000 A 
ATOM     13  C   UNL     1       4.691 -12.479  34.178  0.00  0.00    +0.000 A 
ATOM     14  C   UNL     1       3.311 -12.533  34.387  0.00  0.00    +0.000 A 
BRANCH  14  16
ATOM     15  N   UNL     1       2.265 -11.413  36.469  0.00  0.00    +0.000 NA
ATOM     16  C   UNL     1       2.723 -11.903  35.520  0.00  0.00    +0.000 C 
ENDBRANCH  14  16
ENDBRANCH   5   9
BRANCH   4  18
ATOM     17  N   UNL     1       7.666 -12.006  30.355  0.00  0.00    +0.000 NA
ATOM     18  C   UNL     1       6.448 -12.168  29.965  0.00  0.00    +0.000 C 
BRANCH  17  19
ATOM     19  O   UNL     1       8.065 -10.669  30.260  0.00  0.00    +0.000 OA
BRANCH  19  20
ATOM     20  C   UNL     1       6.868  -9.897  30.368  0.00  0.00    +0.000 C 
BRANCH  20  23
ATOM     21 CL   UNL     1       7.588 -10.070  35.507  0.00  0.00    +0.000 Cl
ATOM     22 CL   UNL     1       7.223  -6.835  35.537  0.00  0.00    +0.000 Cl
ATOM     23  C   UNL     1       6.784  -9.185  31.690  0.00  0.00    +0.000 A 
ATOM     24  C   UNL     1       7.106  -9.859  32.878  0.00  0.00    +0.000 A 
ATOM     25  C   UNL     1       6.473  -7.821  31.745  0.00  0.00    +0.000 A 
ATOM     26  C   UNL     1       7.195  -9.165  34.088  0.00  0.00    +0.000 A 
ATOM     27  C   UNL     1       6.573  -7.124  32.952  0.00  0.00    +0.000 A 
ATOM     28  C   UNL     1       6.974  -7.785  34.115  0.00  0.00    +0.000 A 
ENDBRANCH  20  23
ENDBRANCH  19  20
ENDBRANCH  17  19
ENDBRANCH   4  18
TORSDOF 6
ENDMDL
MODEL 9
REMARK VINA RESULT:      -4.9     31.598     33.804
REMARK  Name = 142505438
REMARK  6 active torsions:
REMARK  status: ('A' for Active; 'I' for Inactive)
REMARK    1  A    between atoms: O_4  and  N_7
REMARK    2  A    between atoms: O_4  and  C_22
REMARK    3  A    between atoms: C_9  and  C_14
REMARK    4  A    between atoms: C_10  and  C_12
REMARK    5  A    between atoms: C_20  and  C_28
REMARK    6  A    between atoms: C_21  and  C_22
REMARK                            x       y       z     vdW  Elec       q    Type
REMARK                         _______ _______ _______ _____ _____    ______ ____
ROOT
ATOM      1  S   UNL     1      -9.882  14.707  15.316  0.00  0.00    +0.000 S 
ATOM      2  N   UNL     1     -10.497  12.634  16.695  0.00  0.00    +0.000 N 
ATOM      3  N   UNL     1     -11.120  12.297  14.579  0.00  0.00    +0.000 NA
ATOM      4  C   UNL     1     -11.048  11.382  16.699  0.00  0.00    +0.000 A 
ATOM      5  C   UNL     1     -11.440  11.197  15.365  0.00  0.00    +0.000 A 
ATOM      6  C   UNL     1     -10.556  13.113  15.422  0.00  0.00    +0.000 A 
ATOM      7  C   UNL     1      -9.952  13.494  17.624  0.00  0.00    +0.000 A 
ATOM      8  C   UNL     1      -9.564  14.649  17.057  0.00  0.00    +0.000 A 
ENDROOT
BRANCH   5   9
ATOM      9  C   UNL     1     -12.079  10.019  14.801  0.00  0.00    +0.000 A 
ATOM     10  C   UNL     1     -11.319   8.932  14.334  0.00  0.00    +0.000 A 
ATOM     11  C   UNL     1     -13.471   9.949  14.710  0.00  0.00    +0.000 A 
ATOM     12  C   UNL     1     -11.924   7.791  13.833  0.00  0.00    +0.000 A 
ATOM     13  C   UNL     1     -14.087   8.821  14.158  0.00  0.00    +0.000 A 
ATOM     14  C   UNL     1     -13.311   7.751  13.709  0.00  0.00    +0.000 A 
BRANCH  14  16
ATOM     15  N   UNL     1     -14.371   5.723  12.504  0.00  0.00    +0.000 NA
ATOM     16  C   UNL     1     -13.915   6.643  13.051  0.00  0.00    +0.000 C 
ENDBRANCH  14  16
ENDBRANCH   5   9
BRANCH   4  18
ATOM     17  N   UNL     1     -10.123   9.999  18.359  0.00  0.00    +0.000 NA
ATOM     18  C   UNL     1     -11.178  10.546  17.858  0.00  0.00    +0.000 C 
BRANCH  17  19
ATOM     19  O   UNL     1     -10.422   9.259  19.508  0.00  0.00    +0.000 OA
BRANCH  19  20
ATOM     20  C   UNL     1     -10.903   7.996  19.044  0.00  0.00    +0.000 C 
BRANCH  20  23
ATOM     21 CL   UNL     1     -16.071   7.648  19.392  0.00  0.00    +0.000 Cl
ATOM     22 CL   UNL     1     -15.635   5.523  21.819  0.00  0.00    +0.000 Cl
ATOM     23  C   UNL     1     -12.097   7.534  19.832  0.00  0.00    +0.000 A 
ATOM     24  C   UNL     1     -13.395   7.814  19.377  0.00  0.00    +0.000 A 
ATOM     25  C   UNL     1     -11.932   6.745  20.976  0.00  0.00    +0.000 A 
ATOM     26  C   UNL     1     -14.507   7.247  20.008  0.00  0.00    +0.000 A 
ATOM     27  C   UNL     1     -13.042   6.169  21.600  0.00  0.00    +0.000 A 
ATOM     28  C   UNL     1     -14.326   6.385  21.093  0.00  0.00    +0.000 A 
ENDBRANCH  20  23
ENDBRANCH  19  20
ENDBRANCH  17  19
ENDBRANCH   4  18
TORSDOF 6
ENDMDL
MODEL 10
REMARK VINA RESULT:      -4.6     36.130     37.682
REMARK  Name = 142505438
REMARK  6 active torsions:
REMARK  status: ('A' for Active; 'I' for Inactive)
REMARK    1  A    between atoms: O_4  and  N_7
REMARK    2  A    between atoms: O_4  and  C_22
REMARK    3  A    between atoms: C_9  and  C_14
REMARK    4  A    between atoms: C_10  and  C_12
REMARK    5  A    between atoms: C_20  and  C_28
REMARK    6  A    between atoms: C_21  and  C_22
REMARK                            x       y       z     vdW  Elec       q    Type
REMARK                         _______ _______ _______ _____ _____    ______ ____
ROOT
ATOM      1  S   UNL     1       2.304  17.049  14.525  0.00  0.00    +0.000 S 
ATOM      2  N   UNL     1       1.887  15.878  16.768  0.00  0.00    +0.000 N 
ATOM      3  N   UNL     1       4.003  16.585  16.712  0.00  0.00    +0.000 NA
ATOM      4  C   UNL     1       2.406  15.493  17.974  0.00  0.00    +0.000 A 
ATOM      5  C   UNL     1       3.734  15.938  17.911  0.00  0.00    +0.000 A 
ATOM      6  C   UNL     1       2.867  16.524  16.079  0.00  0.00    +0.000 A 
ATOM      7  C   UNL     1       0.686  15.751  16.105  0.00  0.00    +0.000 A 
ATOM      8  C   UNL     1       0.729  16.326  14.892  0.00  0.00    +0.000 A 
ENDROOT
BRANCH   5   9
ATOM      9  C   UNL     1       4.749  15.798  18.945  0.00  0.00    +0.000 A 
ATOM     10  C   UNL     1       5.912  15.039  18.725  0.00  0.00    +0.000 A 
ATOM     11  C   UNL     1       4.581  16.420  20.184  0.00  0.00    +0.000 A 
ATOM     12  C   UNL     1       6.899  14.936  19.690  0.00  0.00    +0.000 A 
ATOM     13  C   UNL     1       5.550  16.278  21.182  0.00  0.00    +0.000 A 
ATOM     14  C   UNL     1       6.700  15.525  20.937  0.00  0.00    +0.000 A 
BRANCH  14  16
ATOM     15  N   UNL     1       8.427  15.054  22.803  0.00  0.00    +0.000 NA
ATOM     16  C   UNL     1       7.645  15.285  21.974  0.00  0.00    +0.000 C 
ENDBRANCH  14  16
ENDBRANCH   5   9
BRANCH   4  18
ATOM     17  N   UNL     1       1.105  15.436  19.931  0.00  0.00    +0.000 NA
ATOM     18  C   UNL     1       1.684  14.776  18.986  0.00  0.00    +0.000 C 
BRANCH  17  19
ATOM     19  O   UNL     1       0.411  14.589  20.801  0.00  0.00    +0.000 OA
BRANCH  19  20
ATOM     20  C   UNL     1       0.102  15.380  21.951  0.00  0.00    +0.000 C 
BRANCH  20  23
ATOM     21 CL   UNL     1       2.830  19.690  22.919  0.00  0.00    +0.000 Cl
ATOM     22 CL   UNL     1       4.659  17.922  24.950  0.00  0.00    +0.000 Cl
ATOM     23  C   UNL     1       1.337  15.998  22.546  0.00  0.00    +0.000 A 
ATOM     24  C   UNL     1       1.562  17.379  22.430  0.00  0.00    +0.000 A 
ATOM     25  C   UNL     1       2.229  15.224  23.297  0.00  0.00    +0.000 A 
ATOM     26  C   UNL     1       2.615  17.988  23.121  0.00  0.00    +0.000 A 
ATOM     27  C   UNL     1       3.274  15.833  23.996  0.00  0.00    +0.000 A 
ATOM     28  C   UNL     1       3.443  17.219  23.942  0.00  0.00    +0.000 A 
ENDBRANCH  20  23
ENDBRANCH  19  20
ENDBRANCH  17  19
ENDBRANCH   4  18
TORSDOF 6
ENDMDL
