REMARK  Name = 142505366
REMARK  6 active torsions:
REMARK  status: ('A' for Active; 'I' for Inactive)
REMARK    1  A    between atoms: O_4  and  N_7
REMARK    2  A    between atoms: O_4  and  C_22
REMARK    3  A    between atoms: C_8  and  C_10
REMARK    4  A    between atoms: C_9  and  C_15
REMARK    5  A    between atoms: C_16  and  C_20
REMARK    6  A    between atoms: C_21  and  C_22
REMARK                            x       y       z     vdW  Elec       q    Type
REMARK                         _______ _______ _______ _____ _____    ______ ____
ROOT
ATOM      1  S   UNL     1      -4.645   2.113  -8.457  0.00  0.00    +0.000 S 
ATOM      2  N   UNL     1      -4.859   1.558  -5.958  0.00  0.00    +0.000 N 
ATOM      3  N   UNL     1      -2.759   1.159  -6.608  0.00  0.00    +0.000 NA
ATOM      4  C   UNL     1      -2.922   0.847  -5.265  0.00  0.00    +0.000 A 
ATOM      5  C   UNL     1      -4.217   1.134  -4.822  0.00  0.00    +0.000 A 
ATOM      6  C   UNL     1      -3.942   1.563  -6.967  0.00  0.00    +0.000 A 
ATOM      7  C   UNL     1      -6.122   1.983  -6.314  0.00  0.00    +0.000 A 
ATOM      8  C   UNL     1      -6.189   2.315  -7.614  0.00  0.00    +0.000 A 
ENDROOT
BRANCH   4   9
ATOM      9  C   UNL     1      -1.842   0.259  -4.480  0.00  0.00    +0.000 A 
ATOM     10  C   UNL     1      -0.512   0.570  -4.788  0.00  0.00    +0.000 A 
ATOM     11  C   UNL     1      -2.091  -0.661  -3.451  0.00  0.00    +0.000 A 
ATOM     12  C   UNL     1       0.284  -0.882  -3.010  0.00  0.00    +0.000 A 
ATOM     13  C   UNL     1       0.542   0.002  -4.063  0.00  0.00    +0.000 A 
ATOM     14  C   UNL     1      -1.041  -1.215  -2.716  0.00  0.00    +0.000 A 
ATOM     15  C   UNL     1       1.403  -1.536  -2.257  0.00  0.00    +0.000 C 
ENDBRANCH   4   9
BRANCH   5  17
ATOM     16  N   UNL     1      -6.046   0.737  -3.376  0.00  0.00    +0.000 NA
ATOM     17  C   UNL     1      -4.793   1.025  -3.519  0.00  0.00    +0.000 C 
BRANCH  16  18
ATOM     18  O   UNL     1      -6.333   0.603  -2.006  0.00  0.00    +0.000 OA
BRANCH  18  19
ATOM     19  C   UNL     1      -7.447  -0.284  -1.871  0.00  0.00    +0.000 C 
BRANCH  19  22
ATOM     20 CL   UNL     1      -8.511   2.218   2.583  0.00  0.00    +0.000 Cl
ATOM     21 CL   UNL     1      -9.934  -0.513   3.634  0.00  0.00    +0.000 Cl
ATOM     22  C   UNL     1      -7.956  -0.334  -0.450  0.00  0.00    +0.000 A 
ATOM     23  C   UNL     1      -7.960   0.805   0.370  0.00  0.00    +0.000 A 
ATOM     24  C   UNL     1      -8.539  -1.515   0.033  0.00  0.00    +0.000 A 
ATOM     25  C   UNL     1      -8.544   0.769   1.642  0.00  0.00    +0.000 A 
ATOM     26  C   UNL     1      -9.127  -1.552   1.300  0.00  0.00    +0.000 A 
ATOM     27  C   UNL     1      -9.141  -0.409   2.102  0.00  0.00    +0.000 A 
ENDBRANCH  19  22
ENDBRANCH  18  19
ENDBRANCH  16  18
ENDBRANCH   5  17
TORSDOF 5
