REMARK  Name = 142505452
REMARK  6 active torsions:
REMARK  status: ('A' for Active; 'I' for Inactive)
REMARK    1  A    between atoms: O_4  and  N_7
REMARK    2  A    between atoms: O_4  and  C_23
REMARK    3  A    between atoms: C_8  and  C_10
REMARK    4  A    between atoms: C_9  and  C_18
REMARK    5  A    between atoms: C_12  and  C_19
REMARK    6  A    between atoms: C_23  and  C_24
REMARK                            x       y       z     vdW  Elec       q    Type
REMARK                         _______ _______ _______ _____ _____    ______ ____
ROOT
ATOM      1  S   UNL     1      -4.547   2.024  -8.525  0.00  0.00    +0.000 S 
ATOM      2  N   UNL     1      -4.814   1.512  -6.024  0.00  0.00    +0.000 N 
ATOM      3  N   UNL     1      -2.734   0.991  -6.645  0.00  0.00    +0.000 NA
ATOM      4  C   UNL     1      -2.913   0.749  -5.288  0.00  0.00    +0.000 A 
ATOM      5  C   UNL     1      -4.215   1.045  -4.879  0.00  0.00    +0.000 A 
ATOM      6  C   UNL     1      -3.887   1.457  -7.025  0.00  0.00    +0.000 A 
ATOM      7  C   UNL     1      -6.058   1.976  -6.399  0.00  0.00    +0.000 A 
ATOM      8  C   UNL     1      -6.091   2.302  -7.703  0.00  0.00    +0.000 A 
ENDROOT
BRANCH   4   9
ATOM      9  C   UNL     1      -1.824   0.265  -4.450  0.00  0.00    +0.000 A 
ATOM     10  C   UNL     1       0.312  -0.782  -2.867  0.00  0.00    +0.000 A 
ATOM     11  C   UNL     1      -1.700   0.598  -3.096  0.00  0.00    +0.000 A 
ATOM     12  C   UNL     1      -0.844  -0.552  -5.018  0.00  0.00    +0.000 A 
ATOM     13  C   UNL     1      -0.657   0.074  -2.317  0.00  0.00    +0.000 A 
ATOM     14  C   UNL     1       0.198  -1.068  -4.239  0.00  0.00    +0.000 A 
BRANCH  10  15
ATOM     15  C   UNL     1       1.390  -1.382  -2.045  0.00  0.00    +0.000 A 
ATOM     16  C   UNL     1       1.178  -1.750  -0.703  0.00  0.00    +0.000 A 
ATOM     17  C   UNL     1       2.659  -1.656  -2.590  0.00  0.00    +0.000 A 
ATOM     18  C   UNL     1       2.170  -2.399   0.042  0.00  0.00    +0.000 A 
ATOM     19  C   UNL     1       3.647  -2.316  -1.853  0.00  0.00    +0.000 A 
ATOM     20  C   UNL     1       3.398  -2.696  -0.539  0.00  0.00    +0.000 A 
ENDBRANCH  10  15
ENDBRANCH   4   9
BRANCH   5  22
ATOM     21  N   UNL     1      -5.731   1.807  -3.262  0.00  0.00    +0.000 NA
ATOM     22  C   UNL     1      -4.833   0.942  -3.598  0.00  0.00    +0.000 C 
BRANCH  21  23
ATOM     23  O   UNL     1      -6.086   1.618  -1.918  0.00  0.00    +0.000 OA
BRANCH  23  24
ATOM     24  C   UNL     1      -6.582   2.869  -1.434  0.00  0.00    +0.000 C 
BRANCH  24  27
ATOM     25 CL   UNL     1      -7.915   5.409   2.867  0.00  0.00    +0.000 Cl
ATOM     26 CL   UNL     1      -9.423   2.708   3.880  0.00  0.00    +0.000 Cl
ATOM     27  C   UNL     1      -7.138   2.768  -0.036  0.00  0.00    +0.000 A 
ATOM     28  C   UNL     1      -7.186   3.926   0.758  0.00  0.00    +0.000 A 
ATOM     29  C   UNL     1      -7.733   1.594   0.441  0.00  0.00    +0.000 A 
ATOM     30  C   UNL     1      -7.861   3.926   1.982  0.00  0.00    +0.000 A 
ATOM     31  C   UNL     1      -8.402   1.590   1.667  0.00  0.00    +0.000 A 
ATOM     32  C   UNL     1      -8.490   2.760   2.428  0.00  0.00    +0.000 A 
ENDBRANCH  24  27
ENDBRANCH  23  24
ENDBRANCH  21  23
ENDBRANCH   5  22
TORSDOF 6
