MODEL 1
REMARK VINA RESULT:      -5.6      0.000      0.000
REMARK  Name = 142505454
REMARK  6 active torsions:
REMARK  status: ('A' for Active; 'I' for Inactive)
REMARK    1  A    between atoms: O_5  and  C_10
REMARK    2  A    between atoms: O_5  and  C_13
REMARK    3  A    between atoms: C_8  and  C_10
REMARK    4  A    between atoms: C_9  and  C_12
REMARK    5  A    between atoms: C_13  and  C_14
REMARK    6  A    between atoms: C_14  and  C_16
REMARK                            x       y       z     vdW  Elec       q    Type
REMARK                         _______ _______ _______ _____ _____    ______ ____
ROOT
ATOM      1  S   UNL     1      -4.307   1.355 -31.659  0.00  0.00    +0.000 S 
ATOM      2  N   UNL     1      -5.456   1.454 -33.956  0.00  0.00    +0.000 N 
ATOM      3  N   UNL     1      -6.920   2.049 -32.391  0.00  0.00    +0.000 NA
ATOM      4  C   UNL     1      -6.621   1.707 -34.650  0.00  0.00    +0.000 A 
ATOM      5  C   UNL     1      -7.533   2.061 -33.644  0.00  0.00    +0.000 A 
ATOM      6  C   UNL     1      -5.700   1.688 -32.639  0.00  0.00    +0.000 A 
ATOM      7  C   UNL     1      -4.180   1.005 -34.237  0.00  0.00    +0.000 A 
ATOM      8  C   UNL     1      -3.431   0.891 -33.126  0.00  0.00    +0.000 A 
ENDROOT
BRANCH   5  10
ATOM      9 CL   UNL     1     -13.400   3.251 -34.217  0.00  0.00    +0.000 Cl
ATOM     10  C   UNL     1      -8.959   2.377 -33.731  0.00  0.00    +0.000 A 
ATOM     11  C   UNL     1      -9.821   1.470 -34.373  0.00  0.00    +0.000 A 
ATOM     12  C   UNL     1      -9.525   3.567 -33.245  0.00  0.00    +0.000 A 
ATOM     13  C   UNL     1     -11.185   1.731 -34.523  0.00  0.00    +0.000 A 
ATOM     14  C   UNL     1     -10.899   3.840 -33.395  0.00  0.00    +0.000 A 
ATOM     15  C   UNL     1     -11.721   2.917 -34.033  0.00  0.00    +0.000 A 
ENDBRANCH   5  10
BRANCH   4  16
ATOM     16  C   UNL     1      -6.698   1.489 -36.115  0.00  0.00    +0.000 C 
BRANCH  16  17
ATOM     17  O   UNL     1      -5.984   2.540 -36.782  0.00  0.00    +0.000 OA
BRANCH  17  18
ATOM     18  C   UNL     1      -6.723   3.763 -36.703  0.00  0.00    +0.000 C 
BRANCH  18  19
ATOM     19  C   UNL     1      -8.175   3.684 -37.200  0.00  0.00    +0.000 C 
BRANCH  19  22
ATOM     20 CL   UNL     1      -9.221   8.163 -34.834  0.00  0.00    +0.000 Cl
ATOM     21 CL   UNL     1     -12.243   7.995 -36.027  0.00  0.00    +0.000 Cl
ATOM     22  C   UNL     1      -9.269   4.609 -36.705  0.00  0.00    +0.000 A 
ATOM     23  C   UNL     1      -8.903   5.741 -35.947  0.00  0.00    +0.000 A 
ATOM     24  C   UNL     1     -10.588   4.527 -37.159  0.00  0.00    +0.000 A 
ATOM     25  C   UNL     1      -9.804   6.783 -35.702  0.00  0.00    +0.000 A 
ATOM     26  C   UNL     1     -11.497   5.567 -36.904  0.00  0.00    +0.000 A 
ATOM     27  C   UNL     1     -11.103   6.706 -36.199  0.00  0.00    +0.000 A 
ENDBRANCH  19  22
ENDBRANCH  18  19
ENDBRANCH  17  18
ENDBRANCH  16  17
ENDBRANCH   4  16
TORSDOF 6
ENDMDL
MODEL 2
REMARK VINA RESULT:      -4.8      3.612      5.682
REMARK  Name = 142505454
REMARK  6 active torsions:
REMARK  status: ('A' for Active; 'I' for Inactive)
REMARK    1  A    between atoms: O_5  and  C_10
REMARK    2  A    between atoms: O_5  and  C_13
REMARK    3  A    between atoms: C_8  and  C_10
REMARK    4  A    between atoms: C_9  and  C_12
REMARK    5  A    between atoms: C_13  and  C_14
REMARK    6  A    between atoms: C_14  and  C_16
REMARK                            x       y       z     vdW  Elec       q    Type
REMARK                         _______ _______ _______ _____ _____    ______ ____
ROOT
ATOM      1  S   UNL     1     -10.434   0.396 -33.100  0.00  0.00    +0.000 S 
ATOM      2  N   UNL     1     -11.276   2.369 -34.517  0.00  0.00    +0.000 N 
ATOM      3  N   UNL     1      -9.061   2.255 -34.683  0.00  0.00    +0.000 NA
ATOM      4  C   UNL     1     -10.936   3.421 -35.342  0.00  0.00    +0.000 A 
ATOM      5  C   UNL     1      -9.537   3.342 -35.416  0.00  0.00    +0.000 A 
ATOM      6  C   UNL     1     -10.129   1.720 -34.180  0.00  0.00    +0.000 A 
ATOM      7  C   UNL     1     -12.422   1.855 -33.940  0.00  0.00    +0.000 A 
ATOM      8  C   UNL     1     -12.157   0.800 -33.150  0.00  0.00    +0.000 A 
ENDROOT
BRANCH   5  10
ATOM      9 CL   UNL     1      -5.463   6.756 -38.228  0.00  0.00    +0.000 Cl
ATOM     10  C   UNL     1      -8.576   4.220 -36.084  0.00  0.00    +0.000 A 
ATOM     11  C   UNL     1      -7.969   3.788 -37.277  0.00  0.00    +0.000 A 
ATOM     12  C   UNL     1      -8.181   5.470 -35.580  0.00  0.00    +0.000 A 
ATOM     13  C   UNL     1      -7.015   4.562 -37.941  0.00  0.00    +0.000 A 
ATOM     14  C   UNL     1      -7.217   6.256 -36.241  0.00  0.00    +0.000 A 
ATOM     15  C   UNL     1      -6.642   5.796 -37.421  0.00  0.00    +0.000 A 
ENDBRANCH   5  10
BRANCH   4  16
ATOM     16  C   UNL     1     -11.968   4.363 -35.839  0.00  0.00    +0.000 C 
BRANCH  16  17
ATOM     17  O   UNL     1     -11.654   5.685 -35.379  0.00  0.00    +0.000 OA
BRANCH  17  18
ATOM     18  C   UNL     1     -11.504   6.572 -36.493  0.00  0.00    +0.000 C 
BRANCH  18  19
ATOM     19  C   UNL     1     -11.478   8.067 -36.141  0.00  0.00    +0.000 C 
BRANCH  19  22
ATOM     20 CL   UNL     1     -12.812   9.381 -31.319  0.00  0.00    +0.000 Cl
ATOM     21 CL   UNL     1      -9.674   9.184 -30.483  0.00  0.00    +0.000 Cl
ATOM     22  C   UNL     1     -10.984   8.593 -34.808  0.00  0.00    +0.000 A 
ATOM     23  C   UNL     1     -11.933   8.894 -33.808  0.00  0.00    +0.000 A 
ATOM     24  C   UNL     1      -9.636   8.571 -34.442  0.00  0.00    +0.000 A 
ATOM     25  C   UNL     1     -11.555   9.105 -32.477  0.00  0.00    +0.000 A 
ATOM     26  C   UNL     1      -9.254   8.795 -33.109  0.00  0.00    +0.000 A 
ATOM     27  C   UNL     1     -10.211   9.036 -32.121  0.00  0.00    +0.000 A 
ENDBRANCH  19  22
ENDBRANCH  18  19
ENDBRANCH  17  18
ENDBRANCH  16  17
ENDBRANCH   4  16
TORSDOF 6
ENDMDL
MODEL 3
REMARK VINA RESULT:      -4.6     20.499     22.387
REMARK  Name = 142505454
REMARK  6 active torsions:
REMARK  status: ('A' for Active; 'I' for Inactive)
REMARK    1  A    between atoms: O_5  and  C_10
REMARK    2  A    between atoms: O_5  and  C_13
REMARK    3  A    between atoms: C_8  and  C_10
REMARK    4  A    between atoms: C_9  and  C_12
REMARK    5  A    between atoms: C_13  and  C_14
REMARK    6  A    between atoms: C_14  and  C_16
REMARK                            x       y       z     vdW  Elec       q    Type
REMARK                         _______ _______ _______ _____ _____    ______ ____
ROOT
ATOM      1  S   UNL     1      -6.124   2.472 -61.267  0.00  0.00    +0.000 S 
ATOM      2  N   UNL     1      -4.866   2.648 -59.033  0.00  0.00    +0.000 N 
ATOM      3  N   UNL     1      -5.622   0.570 -59.272  0.00  0.00    +0.000 NA
ATOM      4  C   UNL     1      -4.463   1.998 -57.885  0.00  0.00    +0.000 A 
ATOM      5  C   UNL     1      -4.966   0.698 -58.048  0.00  0.00    +0.000 A 
ATOM      6  C   UNL     1      -5.528   1.747 -59.807  0.00  0.00    +0.000 A 
ATOM      7  C   UNL     1      -4.810   3.927 -59.553  0.00  0.00    +0.000 A 
ATOM      8  C   UNL     1      -5.434   4.014 -60.741  0.00  0.00    +0.000 A 
ENDROOT
BRANCH   5  10
ATOM      9 CL   UNL     1      -5.058  -3.991 -54.285  0.00  0.00    +0.000 Cl
ATOM     10  C   UNL     1      -4.930  -0.449 -57.141  0.00  0.00    +0.000 A 
ATOM     11  C   UNL     1      -6.035  -1.318 -57.095  0.00  0.00    +0.000 A 
ATOM     12  C   UNL     1      -3.865  -0.719 -56.267  0.00  0.00    +0.000 A 
ATOM     13  C   UNL     1      -6.079  -2.408 -56.223  0.00  0.00    +0.000 A 
ATOM     14  C   UNL     1      -3.902  -1.814 -55.381  0.00  0.00    +0.000 A 
ATOM     15  C   UNL     1      -5.011  -2.653 -55.368  0.00  0.00    +0.000 A 
ENDBRANCH   5  10
BRANCH   4  16
ATOM     16  C   UNL     1      -3.758   2.729 -56.803  0.00  0.00    +0.000 C 
BRANCH  16  17
ATOM     17  O   UNL     1      -4.723   3.199 -55.852  0.00  0.00    +0.000 OA
BRANCH  17  18
ATOM     18  C   UNL     1      -4.469   2.621 -54.566  0.00  0.00    +0.000 C 
BRANCH  18  19
ATOM     19  C   UNL     1      -5.721   2.254 -53.755  0.00  0.00    +0.000 C 
BRANCH  19  22
ATOM     20 CL   UNL     1      -4.987  -2.012 -50.922  0.00  0.00    +0.000 Cl
ATOM     21 CL   UNL     1      -7.897  -3.076 -51.917  0.00  0.00    +0.000 Cl
ATOM     22  C   UNL     1      -6.159   0.822 -53.516  0.00  0.00    +0.000 A 
ATOM     23  C   UNL     1      -5.430   0.038 -52.598  0.00  0.00    +0.000 A 
ATOM     24  C   UNL     1      -7.380   0.321 -53.978  0.00  0.00    +0.000 A 
ATOM     25  C   UNL     1      -5.928  -1.175 -52.111  0.00  0.00    +0.000 A 
ATOM     26  C   UNL     1      -7.876  -0.902 -53.498  0.00  0.00    +0.000 A 
ATOM     27  C   UNL     1      -7.167  -1.640 -52.547  0.00  0.00    +0.000 A 
ENDBRANCH  19  22
ENDBRANCH  18  19
ENDBRANCH  17  18
ENDBRANCH  16  17
ENDBRANCH   4  16
TORSDOF 6
ENDMDL
MODEL 4
REMARK VINA RESULT:      -4.5      9.096     11.561
REMARK  Name = 142505454
REMARK  6 active torsions:
REMARK  status: ('A' for Active; 'I' for Inactive)
REMARK    1  A    between atoms: O_5  and  C_10
REMARK    2  A    between atoms: O_5  and  C_13
REMARK    3  A    between atoms: C_8  and  C_10
REMARK    4  A    between atoms: C_9  and  C_12
REMARK    5  A    between atoms: C_13  and  C_14
REMARK    6  A    between atoms: C_14  and  C_16
REMARK                            x       y       z     vdW  Elec       q    Type
REMARK                         _______ _______ _______ _____ _____    ______ ____
ROOT
ATOM      1  S   UNL     1     -10.146   5.693 -27.043  0.00  0.00    +0.000 S 
ATOM      2  N   UNL     1      -8.491   6.900 -25.490  0.00  0.00    +0.000 N 
ATOM      3  N   UNL     1      -7.959   7.352 -27.602  0.00  0.00    +0.000 NA
ATOM      4  C   UNL     1      -7.379   7.712 -25.401  0.00  0.00    +0.000 A 
ATOM      5  C   UNL     1      -7.051   7.968 -26.741  0.00  0.00    +0.000 A 
ATOM      6  C   UNL     1      -8.783   6.742 -26.809  0.00  0.00    +0.000 A 
ATOM      7  C   UNL     1      -9.317   6.205 -24.627  0.00  0.00    +0.000 A 
ATOM      8  C   UNL     1     -10.256   5.504 -25.287  0.00  0.00    +0.000 A 
ENDROOT
BRANCH   5  10
ATOM      9 CL   UNL     1      -2.486  10.928 -29.303  0.00  0.00    +0.000 Cl
ATOM     10  C   UNL     1      -5.928   8.712 -27.312  0.00  0.00    +0.000 A 
ATOM     11  C   UNL     1      -6.025   9.191 -28.631  0.00  0.00    +0.000 A 
ATOM     12  C   UNL     1      -4.721   8.947 -26.632  0.00  0.00    +0.000 A 
ATOM     13  C   UNL     1      -4.974   9.873 -29.247  0.00  0.00    +0.000 A 
ATOM     14  C   UNL     1      -3.654   9.631 -27.246  0.00  0.00    +0.000 A 
ATOM     15  C   UNL     1      -3.790  10.092 -28.552  0.00  0.00    +0.000 A 
ENDBRANCH   5  10
BRANCH   4  16
ATOM     16  C   UNL     1      -6.772   8.031 -24.086  0.00  0.00    +0.000 C 
BRANCH  16  17
ATOM     17  O   UNL     1      -6.307   6.817 -23.480  0.00  0.00    +0.000 OA
BRANCH  17  18
ATOM     18  C   UNL     1      -5.091   6.391 -24.103  0.00  0.00    +0.000 C 
BRANCH  18  19
ATOM     19  C   UNL     1      -4.830   4.877 -24.062  0.00  0.00    +0.000 C 
BRANCH  19  22
ATOM     20 CL   UNL     1      -7.615   0.523 -23.843  0.00  0.00    +0.000 Cl
ATOM     21 CL   UNL     1      -8.917   1.307 -26.720  0.00  0.00    +0.000 Cl
ATOM     22  C   UNL     1      -5.648   3.877 -24.854  0.00  0.00    +0.000 A 
ATOM     23  C   UNL     1      -6.096   2.707 -24.206  0.00  0.00    +0.000 A 
ATOM     24  C   UNL     1      -6.176   4.165 -26.116  0.00  0.00    +0.000 A 
ATOM     25  C   UNL     1      -7.080   1.886 -24.768  0.00  0.00    +0.000 A 
ATOM     26  C   UNL     1      -7.155   3.336 -26.687  0.00  0.00    +0.000 A 
ATOM     27  C   UNL     1      -7.628   2.212 -26.006  0.00  0.00    +0.000 A 
ENDBRANCH  19  22
ENDBRANCH  18  19
ENDBRANCH  17  18
ENDBRANCH  16  17
ENDBRANCH   4  16
TORSDOF 6
ENDMDL
MODEL 5
REMARK VINA RESULT:      -4.5     17.051     18.664
REMARK  Name = 142505454
REMARK  6 active torsions:
REMARK  status: ('A' for Active; 'I' for Inactive)
REMARK    1  A    between atoms: O_5  and  C_10
REMARK    2  A    between atoms: O_5  and  C_13
REMARK    3  A    between atoms: C_8  and  C_10
REMARK    4  A    between atoms: C_9  and  C_12
REMARK    5  A    between atoms: C_13  and  C_14
REMARK    6  A    between atoms: C_14  and  C_16
REMARK                            x       y       z     vdW  Elec       q    Type
REMARK                         _______ _______ _______ _____ _____    ______ ____
ROOT
ATOM      1  S   UNL     1      -7.898  17.913 -42.973  0.00  0.00    +0.000 S 
ATOM      2  N   UNL     1      -9.600  18.694 -44.734  0.00  0.00    +0.000 N 
ATOM      3  N   UNL     1     -10.511  17.066 -43.524  0.00  0.00    +0.000 NA
ATOM      4  C   UNL     1     -10.858  18.522 -45.275  0.00  0.00    +0.000 A 
ATOM      5  C   UNL     1     -11.405  17.481 -44.510  0.00  0.00    +0.000 A 
ATOM      6  C   UNL     1      -9.470  17.817 -43.703  0.00  0.00    +0.000 A 
ATOM      7  C   UNL     1      -8.478  19.461 -44.987  0.00  0.00    +0.000 A 
ATOM      8  C   UNL     1      -7.472  19.172 -44.142  0.00  0.00    +0.000 A 
ENDROOT
BRANCH   5  10
ATOM      9 CL   UNL     1     -16.628  14.596 -45.257  0.00  0.00    +0.000 Cl
ATOM     10  C   UNL     1     -12.689  16.792 -44.636  0.00  0.00    +0.000 A 
ATOM     11  C   UNL     1     -12.773  15.644 -45.446  0.00  0.00    +0.000 A 
ATOM     12  C   UNL     1     -13.875  17.234 -44.026  0.00  0.00    +0.000 A 
ATOM     13  C   UNL     1     -13.978  14.965 -45.638  0.00  0.00    +0.000 A 
ATOM     14  C   UNL     1     -15.095  16.557 -44.217  0.00  0.00    +0.000 A 
ATOM     15  C   UNL     1     -15.137  15.423 -45.022  0.00  0.00    +0.000 A 
ENDBRANCH   5  10
BRANCH   4  16
ATOM     16  C   UNL     1     -11.289  19.300 -46.462  0.00  0.00    +0.000 C 
BRANCH  16  17
ATOM     17  O   UNL     1     -10.661  18.754 -47.631  0.00  0.00    +0.000 OA
BRANCH  17  18
ATOM     18  C   UNL     1     -11.504  17.759 -48.222  0.00  0.00    +0.000 C 
BRANCH  18  19
ATOM     19  C   UNL     1     -12.905  18.243 -48.626  0.00  0.00    +0.000 C 
BRANCH  19  22
ATOM     20 CL   UNL     1     -17.775  18.260 -46.882  0.00  0.00    +0.000 Cl
ATOM     21 CL   UNL     1     -18.300  15.523 -48.561  0.00  0.00    +0.000 Cl
ATOM     22  C   UNL     1     -14.158  17.417 -48.412  0.00  0.00    +0.000 A 
ATOM     23  C   UNL     1     -15.234  17.993 -47.705  0.00  0.00    +0.000 A 
ATOM     24  C   UNL     1     -14.387  16.210 -49.079  0.00  0.00    +0.000 A 
ATOM     25  C   UNL     1     -16.509  17.419 -47.713  0.00  0.00    +0.000 A 
ATOM     26  C   UNL     1     -15.665  15.626 -49.078  0.00  0.00    +0.000 A 
ATOM     27  C   UNL     1     -16.732  16.239 -48.419  0.00  0.00    +0.000 A 
ENDBRANCH  19  22
ENDBRANCH  18  19
ENDBRANCH  17  18
ENDBRANCH  16  17
ENDBRANCH   4  16
TORSDOF 6
ENDMDL
MODEL 6
REMARK VINA RESULT:      -4.4      3.786      6.144
REMARK  Name = 142505454
REMARK  6 active torsions:
REMARK  status: ('A' for Active; 'I' for Inactive)
REMARK    1  A    between atoms: O_5  and  C_10
REMARK    2  A    between atoms: O_5  and  C_13
REMARK    3  A    between atoms: C_8  and  C_10
REMARK    4  A    between atoms: C_9  and  C_12
REMARK    5  A    between atoms: C_13  and  C_14
REMARK    6  A    between atoms: C_14  and  C_16
REMARK                            x       y       z     vdW  Elec       q    Type
REMARK                         _______ _______ _______ _____ _____    ______ ____
ROOT
ATOM      1  S   UNL     1     -11.218   0.611 -33.253  0.00  0.00    +0.000 S 
ATOM      2  N   UNL     1     -11.465   2.697 -34.735  0.00  0.00    +0.000 N 
ATOM      3  N   UNL     1      -9.311   2.159 -34.599  0.00  0.00    +0.000 NA
ATOM      4  C   UNL     1     -10.819   3.658 -35.486  0.00  0.00    +0.000 A 
ATOM      5  C   UNL     1      -9.465   3.311 -35.370  0.00  0.00    +0.000 A 
ATOM      6  C   UNL     1     -10.520   1.843 -34.257  0.00  0.00    +0.000 A 
ATOM      7  C   UNL     1     -12.756   2.418 -34.329  0.00  0.00    +0.000 A 
ATOM      8  C   UNL     1     -12.808   1.337 -33.530  0.00  0.00    +0.000 A 
ENDROOT
BRANCH   5  10
ATOM      9 CL   UNL     1      -4.555   5.917 -37.665  0.00  0.00    +0.000 Cl
ATOM     10  C   UNL     1      -8.271   3.983 -35.884  0.00  0.00    +0.000 A 
ATOM     11  C   UNL     1      -8.084   4.076 -37.275  0.00  0.00    +0.000 A 
ATOM     12  C   UNL     1      -7.261   4.513 -35.064  0.00  0.00    +0.000 A 
ATOM     13  C   UNL     1      -6.947   4.670 -37.828  0.00  0.00    +0.000 A 
ATOM     14  C   UNL     1      -6.109   5.111 -35.613  0.00  0.00    +0.000 A 
ATOM     15  C   UNL     1      -5.962   5.187 -36.994  0.00  0.00    +0.000 A 
ENDBRANCH   5  10
BRANCH   4  16
ATOM     16  C   UNL     1     -11.574   4.776 -36.103  0.00  0.00    +0.000 C 
BRANCH  16  17
ATOM     17  O   UNL     1     -11.312   5.979 -35.366  0.00  0.00    +0.000 OA
BRANCH  17  18
ATOM     18  C   UNL     1     -11.577   7.124 -36.182  0.00  0.00    +0.000 C 
BRANCH  18  19
ATOM     19  C   UNL     1     -12.663   8.071 -35.648  0.00  0.00    +0.000 C 
BRANCH  19  22
ATOM     20 CL   UNL     1     -15.293   5.998 -31.705  0.00  0.00    +0.000 Cl
ATOM     21 CL   UNL     1     -18.046   7.001 -33.120  0.00  0.00    +0.000 Cl
ATOM     22  C   UNL     1     -14.017   7.587 -35.167  0.00  0.00    +0.000 A 
ATOM     23  C   UNL     1     -14.096   6.940 -33.916  0.00  0.00    +0.000 A 
ATOM     24  C   UNL     1     -15.214   7.958 -35.787  0.00  0.00    +0.000 A 
ATOM     25  C   UNL     1     -15.322   6.724 -33.277  0.00  0.00    +0.000 A 
ATOM     26  C   UNL     1     -16.446   7.731 -35.152  0.00  0.00    +0.000 A 
ATOM     27  C   UNL     1     -16.503   7.139 -33.888  0.00  0.00    +0.000 A 
ENDBRANCH  19  22
ENDBRANCH  18  19
ENDBRANCH  17  18
ENDBRANCH  16  17
ENDBRANCH   4  16
TORSDOF 6
ENDMDL
MODEL 7
REMARK VINA RESULT:      -4.3      5.096      8.221
REMARK  Name = 142505454
REMARK  6 active torsions:
REMARK  status: ('A' for Active; 'I' for Inactive)
REMARK    1  A    between atoms: O_5  and  C_10
REMARK    2  A    between atoms: O_5  and  C_13
REMARK    3  A    between atoms: C_8  and  C_10
REMARK    4  A    between atoms: C_9  and  C_12
REMARK    5  A    between atoms: C_13  and  C_14
REMARK    6  A    between atoms: C_14  and  C_16
REMARK                            x       y       z     vdW  Elec       q    Type
REMARK                         _______ _______ _______ _____ _____    ______ ____
ROOT
ATOM      1  S   UNL     1     -16.264   8.462 -35.237  0.00  0.00    +0.000 S 
ATOM      2  N   UNL     1     -14.951   6.595 -34.056  0.00  0.00    +0.000 N 
ATOM      3  N   UNL     1     -13.740   7.365 -35.756  0.00  0.00    +0.000 NA
ATOM      4  C   UNL     1     -13.798   5.836 -34.033  0.00  0.00    +0.000 A 
ATOM      5  C   UNL     1     -13.060   6.324 -35.122  0.00  0.00    +0.000 A 
ATOM      6  C   UNL     1     -14.842   7.480 -35.083  0.00  0.00    +0.000 A 
ATOM      7  C   UNL     1     -16.145   6.655 -33.365  0.00  0.00    +0.000 A 
ATOM      8  C   UNL     1     -16.967   7.596 -33.863  0.00  0.00    +0.000 A 
ENDROOT
BRANCH   5  10
ATOM      9 CL   UNL     1      -7.877   4.283 -37.385  0.00  0.00    +0.000 Cl
ATOM     10  C   UNL     1     -11.777   5.882 -35.667  0.00  0.00    +0.000 A 
ATOM     11  C   UNL     1     -11.764   4.898 -36.671  0.00  0.00    +0.000 A 
ATOM     12  C   UNL     1     -10.533   6.353 -35.214  0.00  0.00    +0.000 A 
ATOM     13  C   UNL     1     -10.571   4.405 -37.205  0.00  0.00    +0.000 A 
ATOM     14  C   UNL     1      -9.325   5.859 -35.743  0.00  0.00    +0.000 A 
ATOM     15  C   UNL     1      -9.353   4.888 -36.739  0.00  0.00    +0.000 A 
ENDBRANCH   5  10
BRANCH   4  16
ATOM     16  C   UNL     1     -13.632   4.734 -33.054  0.00  0.00    +0.000 C 
BRANCH  16  17
ATOM     17  O   UNL     1     -12.651   5.119 -32.081  0.00  0.00    +0.000 OA
BRANCH  17  18
ATOM     18  C   UNL     1     -11.482   4.303 -32.211  0.00  0.00    +0.000 C 
BRANCH  18  19
ATOM     19  C   UNL     1     -11.611   3.126 -33.191  0.00  0.00    +0.000 C 
BRANCH  19  22
ATOM     20 CL   UNL     1     -10.210  -1.853 -33.142  0.00  0.00    +0.000 Cl
ATOM     21 CL   UNL     1      -7.705  -1.084 -35.071  0.00  0.00    +0.000 Cl
ATOM     22  C   UNL     1     -10.488   2.142 -33.452  0.00  0.00    +0.000 A 
ATOM     23  C   UNL     1     -10.681   0.789 -33.102  0.00  0.00    +0.000 A 
ATOM     24  C   UNL     1      -9.373   2.461 -34.232  0.00  0.00    +0.000 A 
ATOM     25  C   UNL     1      -9.827  -0.218 -33.563  0.00  0.00    +0.000 A 
ATOM     26  C   UNL     1      -8.508   1.452 -34.687  0.00  0.00    +0.000 A 
ATOM     27  C   UNL     1      -8.745   0.112 -34.377  0.00  0.00    +0.000 A 
ENDBRANCH  19  22
ENDBRANCH  18  19
ENDBRANCH  17  18
ENDBRANCH  16  17
ENDBRANCH   4  16
TORSDOF 6
ENDMDL
MODEL 8
REMARK VINA RESULT:      -4.3     17.407     18.844
REMARK  Name = 142505454
REMARK  6 active torsions:
REMARK  status: ('A' for Active; 'I' for Inactive)
REMARK    1  A    between atoms: O_5  and  C_10
REMARK    2  A    between atoms: O_5  and  C_13
REMARK    3  A    between atoms: C_8  and  C_10
REMARK    4  A    between atoms: C_9  and  C_12
REMARK    5  A    between atoms: C_13  and  C_14
REMARK    6  A    between atoms: C_14  and  C_16
REMARK                            x       y       z     vdW  Elec       q    Type
REMARK                         _______ _______ _______ _____ _____    ______ ____
ROOT
ATOM      1  S   UNL     1      -9.928  18.158 -43.357  0.00  0.00    +0.000 S 
ATOM      2  N   UNL     1     -11.153  17.331 -45.460  0.00  0.00    +0.000 N 
ATOM      3  N   UNL     1     -12.574  17.325 -43.748  0.00  0.00    +0.000 NA
ATOM      4  C   UNL     1     -12.335  16.859 -45.992  0.00  0.00    +0.000 A 
ATOM      5  C   UNL     1     -13.208  16.845 -44.894  0.00  0.00    +0.000 A 
ATOM      6  C   UNL     1     -11.370  17.597 -44.144  0.00  0.00    +0.000 A 
ATOM      7  C   UNL     1      -9.858  17.553 -45.889  0.00  0.00    +0.000 A 
ATOM      8  C   UNL     1      -9.068  17.994 -44.894  0.00  0.00    +0.000 A 
ENDROOT
BRANCH   5  10
ATOM      9 CL   UNL     1     -18.916  15.056 -44.274  0.00  0.00    +0.000 Cl
ATOM     10  C   UNL     1     -14.592  16.382 -44.795  0.00  0.00    +0.000 A 
ATOM     11  C   UNL     1     -15.550  17.216 -44.190  0.00  0.00    +0.000 A 
ATOM     12  C   UNL     1     -15.025  15.119 -45.233  0.00  0.00    +0.000 A 
ATOM     13  C   UNL     1     -16.879  16.816 -44.030  0.00  0.00    +0.000 A 
ATOM     14  C   UNL     1     -16.362  14.706 -45.071  0.00  0.00    +0.000 A 
ATOM     15  C   UNL     1     -17.282  15.561 -44.472  0.00  0.00    +0.000 A 
ENDBRANCH   5  10
BRANCH   4  16
ATOM     16  C   UNL     1     -12.412  16.423 -47.408  0.00  0.00    +0.000 C 
BRANCH  16  17
ATOM     17  O   UNL     1     -13.336  17.269 -48.107  0.00  0.00    +0.000 OA
BRANCH  17  18
ATOM     18  C   UNL     1     -13.996  16.528 -49.140  0.00  0.00    +0.000 C 
BRANCH  18  19
ATOM     19  C   UNL     1     -15.219  15.717 -48.684  0.00  0.00    +0.000 C 
BRANCH  19  22
ATOM     20 CL   UNL     1     -20.289  14.874 -48.096  0.00  0.00    +0.000 Cl
ATOM     21 CL   UNL     1     -20.503  17.732 -46.555  0.00  0.00    +0.000 Cl
ATOM     22  C   UNL     1     -16.563  16.349 -48.381  0.00  0.00    +0.000 A 
ATOM     23  C   UNL     1     -17.724  15.556 -48.499  0.00  0.00    +0.000 A 
ATOM     24  C   UNL     1     -16.687  17.599 -47.769  0.00  0.00    +0.000 A 
ATOM     25  C   UNL     1     -18.952  15.967 -47.970  0.00  0.00    +0.000 A 
ATOM     26  C   UNL     1     -17.922  18.019 -47.247  0.00  0.00    +0.000 A 
ATOM     27  C   UNL     1     -19.048  17.197 -47.323  0.00  0.00    +0.000 A 
ENDBRANCH  19  22
ENDBRANCH  18  19
ENDBRANCH  17  18
ENDBRANCH  16  17
ENDBRANCH   4  16
TORSDOF 6
ENDMDL
MODEL 9
REMARK VINA RESULT:      -4.3     15.099     17.306
REMARK  Name = 142505454
REMARK  6 active torsions:
REMARK  status: ('A' for Active; 'I' for Inactive)
REMARK    1  A    between atoms: O_5  and  C_10
REMARK    2  A    between atoms: O_5  and  C_13
REMARK    3  A    between atoms: C_8  and  C_10
REMARK    4  A    between atoms: C_9  and  C_12
REMARK    5  A    between atoms: C_13  and  C_14
REMARK    6  A    between atoms: C_14  and  C_16
REMARK                            x       y       z     vdW  Elec       q    Type
REMARK                         _______ _______ _______ _____ _____    ______ ____
ROOT
ATOM      1  S   UNL     1      -5.746  14.712 -50.824  0.00  0.00    +0.000 S 
ATOM      2  N   UNL     1      -3.759  15.134 -49.249  0.00  0.00    +0.000 N 
ATOM      3  N   UNL     1      -5.595  14.835 -48.030  0.00  0.00    +0.000 NA
ATOM      4  C   UNL     1      -3.335  15.274 -47.944  0.00  0.00    +0.000 A 
ATOM      5  C   UNL     1      -4.509  15.102 -47.196  0.00  0.00    +0.000 A 
ATOM      6  C   UNL     1      -5.092  14.864 -49.224  0.00  0.00    +0.000 A 
ATOM      7  C   UNL     1      -3.213  15.234 -50.515  0.00  0.00    +0.000 A 
ATOM      8  C   UNL     1      -4.133  15.040 -51.476  0.00  0.00    +0.000 A 
ENDROOT
BRANCH   5  10
ATOM      9 CL   UNL     1      -5.613  15.360 -41.290  0.00  0.00    +0.000 Cl
ATOM     10  C   UNL     1      -4.733  15.202 -45.754  0.00  0.00    +0.000 A 
ATOM     11  C   UNL     1      -5.172  14.067 -45.049  0.00  0.00    +0.000 A 
ATOM     12  C   UNL     1      -4.577  16.391 -45.021  0.00  0.00    +0.000 A 
ATOM     13  C   UNL     1      -5.441  14.108 -43.679  0.00  0.00    +0.000 A 
ATOM     14  C   UNL     1      -4.850  16.443 -43.640  0.00  0.00    +0.000 A 
ATOM     15  C   UNL     1      -5.279  15.297 -42.978  0.00  0.00    +0.000 A 
ENDBRANCH   5  10
BRANCH   4  16
ATOM     16  C   UNL     1      -1.929  15.631 -47.634  0.00  0.00    +0.000 C 
BRANCH  16  17
ATOM     17  O   UNL     1      -1.099  14.479 -47.842  0.00  0.00    +0.000 OA
BRANCH  17  18
ATOM     18  C   UNL     1      -0.417  14.138 -46.630  0.00  0.00    +0.000 C 
BRANCH  18  19
ATOM     19  C   UNL     1      -1.197  13.220 -45.676  0.00  0.00    +0.000 C 
BRANCH  19  22
ATOM     20 CL   UNL     1      -2.738  11.630 -41.001  0.00  0.00    +0.000 Cl
ATOM     21 CL   UNL     1      -2.049  14.596 -39.854  0.00  0.00    +0.000 Cl
ATOM     22  C   UNL     1      -1.647  13.654 -44.295  0.00  0.00    +0.000 A 
ATOM     23  C   UNL     1      -2.101  12.669 -43.393  0.00  0.00    +0.000 A 
ATOM     24  C   UNL     1      -1.413  14.938 -43.795  0.00  0.00    +0.000 A 
ATOM     25  C   UNL     1      -2.258  12.938 -42.030  0.00  0.00    +0.000 A 
ATOM     26  C   UNL     1      -1.581  15.213 -42.428  0.00  0.00    +0.000 A 
ATOM     27  C   UNL     1      -1.978  14.211 -41.539  0.00  0.00    +0.000 A 
ENDBRANCH  19  22
ENDBRANCH  18  19
ENDBRANCH  17  18
ENDBRANCH  16  17
ENDBRANCH   4  16
TORSDOF 6
ENDMDL
MODEL 10
REMARK VINA RESULT:      -4.1      4.887      7.107
REMARK  Name = 142505454
REMARK  6 active torsions:
REMARK  status: ('A' for Active; 'I' for Inactive)
REMARK    1  A    between atoms: O_5  and  C_10
REMARK    2  A    between atoms: O_5  and  C_13
REMARK    3  A    between atoms: C_8  and  C_10
REMARK    4  A    between atoms: C_9  and  C_12
REMARK    5  A    between atoms: C_13  and  C_14
REMARK    6  A    between atoms: C_14  and  C_16
REMARK                            x       y       z     vdW  Elec       q    Type
REMARK                         _______ _______ _______ _____ _____    ______ ____
ROOT
ATOM      1  S   UNL     1     -14.795   1.059 -32.877  0.00  0.00    +0.000 S 
ATOM      2  N   UNL     1     -14.478   3.593 -33.168  0.00  0.00    +0.000 N 
ATOM      3  N   UNL     1     -12.791   2.536 -34.160  0.00  0.00    +0.000 NA
ATOM      4  C   UNL     1     -13.685   4.603 -33.673  0.00  0.00    +0.000 A 
ATOM      5  C   UNL     1     -12.620   3.916 -34.275  0.00  0.00    +0.000 A 
ATOM      6  C   UNL     1     -13.901   2.408 -33.504  0.00  0.00    +0.000 A 
ATOM      7  C   UNL     1     -15.629   3.483 -32.411  0.00  0.00    +0.000 A 
ATOM      8  C   UNL     1     -15.943   2.200 -32.159  0.00  0.00    +0.000 A 
ENDROOT
BRANCH   5  10
ATOM      9 CL   UNL     1      -7.683   6.222 -36.819  0.00  0.00    +0.000 Cl
ATOM     10  C   UNL     1     -11.414   4.428 -34.926  0.00  0.00    +0.000 A 
ATOM     11  C   UNL     1     -10.532   5.238 -34.189  0.00  0.00    +0.000 A 
ATOM     12  C   UNL     1     -11.096   4.193 -36.274  0.00  0.00    +0.000 A 
ATOM     13  C   UNL     1      -9.384   5.790 -34.763  0.00  0.00    +0.000 A 
ATOM     14  C   UNL     1      -9.943   4.748 -36.862  0.00  0.00    +0.000 A 
ATOM     15  C   UNL     1      -9.092   5.543 -36.100  0.00  0.00    +0.000 A 
ENDBRANCH   5  10
BRANCH   4  16
ATOM     16  C   UNL     1     -14.017   6.028 -33.426  0.00  0.00    +0.000 C 
BRANCH  16  17
ATOM     17  O   UNL     1     -14.243   6.679 -34.684  0.00  0.00    +0.000 OA
BRANCH  17  18
ATOM     18  C   UNL     1     -13.884   8.062 -34.594  0.00  0.00    +0.000 C 
BRANCH  18  19
ATOM     19  C   UNL     1     -12.420   8.382 -34.932  0.00  0.00    +0.000 C 
BRANCH  19  22
ATOM     20 CL   UNL     1     -10.617   7.724 -30.128  0.00  0.00    +0.000 Cl
ATOM     21 CL   UNL     1      -7.941   9.358 -30.995  0.00  0.00    +0.000 Cl
ATOM     22  C   UNL     1     -11.418   8.856 -33.898  0.00  0.00    +0.000 A 
ATOM     23  C   UNL     1     -11.494   8.328 -32.592  0.00  0.00    +0.000 A 
ATOM     24  C   UNL     1     -10.287   9.606 -34.233  0.00  0.00    +0.000 A 
ATOM     25  C   UNL     1     -10.453   8.489 -31.672  0.00  0.00    +0.000 A 
ATOM     26  C   UNL     1      -9.245   9.778 -33.307  0.00  0.00    +0.000 A 
ATOM     27  C   UNL     1      -9.312   9.202 -32.037  0.00  0.00    +0.000 A 
ENDBRANCH  19  22
ENDBRANCH  18  19
ENDBRANCH  17  18
ENDBRANCH  16  17
ENDBRANCH   4  16
TORSDOF 6
ENDMDL
