MODEL 1
REMARK VINA RESULT:      -5.6      0.000      0.000
REMARK  Name = 142505400
REMARK  6 active torsions:
REMARK  status: ('A' for Active; 'I' for Inactive)
REMARK    1  A    between atoms: O_4  and  N_7
REMARK    2  A    between atoms: O_4  and  C_17
REMARK    3  A    between atoms: C_8  and  C_13
REMARK    4  A    between atoms: C_9  and  C_10
REMARK    5  A    between atoms: C_10  and  C_14
REMARK    6  A    between atoms: C_16  and  C_17
REMARK                            x       y       z     vdW  Elec       q    Type
REMARK                         _______ _______ _______ _____ _____    ______ ____
ROOT
ATOM      1  N   UNL     1      -4.824   1.551 -54.853  0.00  0.00    +0.000 NA
ATOM      2  C   UNL     1      -5.621   1.890 -53.892  0.00  0.00    +0.000 C 
ENDROOT
BRANCH   2   6
ATOM      3  S   UNL     1      -7.740  -2.151 -51.675  0.00  0.00    +0.000 S 
ATOM      4  N   UNL     1      -6.740  -0.132 -52.913  0.00  0.00    +0.000 N 
ATOM      5  N   UNL     1      -5.987  -0.137 -50.811  0.00  0.00    +0.000 NA
ATOM      6  C   UNL     1      -5.915   0.964 -52.834  0.00  0.00    +0.000 A 
ATOM      7  C   UNL     1      -5.464   0.941 -51.510  0.00  0.00    +0.000 A 
ATOM      8  C   UNL     1      -6.731  -0.737 -51.693  0.00  0.00    +0.000 A 
ATOM      9  C   UNL     1      -7.532  -0.748 -53.861  0.00  0.00    +0.000 A 
ATOM     10  C   UNL     1      -8.141  -1.841 -53.372  0.00  0.00    +0.000 A 
BRANCH   7  11
ATOM     11  C   UNL     1      -4.550   1.881 -50.800  0.00  0.00    +0.000 C 
ATOM     12  C   UNL     1      -3.092   1.462 -50.913  0.00  0.00    +0.000 C 
ENDBRANCH   7  11
ENDBRANCH   2   6
BRANCH   1  13
ATOM     13  O   UNL     1      -4.700   2.608 -55.773  0.00  0.00    +0.000 OA
BRANCH  13  14
ATOM     14  C   UNL     1      -4.913   3.833 -55.059  0.00  0.00    +0.000 C 
BRANCH  14  17
ATOM     15 CL   UNL     1      -3.044   5.831 -59.466  0.00  0.00    +0.000 Cl
ATOM     16 CL   UNL     1      -2.112   8.455 -57.784  0.00  0.00    +0.000 Cl
ATOM     17  C   UNL     1      -4.266   5.015 -55.741  0.00  0.00    +0.000 A 
ATOM     18  C   UNL     1      -3.993   4.951 -57.117  0.00  0.00    +0.000 A 
ATOM     19  C   UNL     1      -3.850   6.146 -55.024  0.00  0.00    +0.000 A 
ATOM     20  C   UNL     1      -3.336   6.001 -57.771  0.00  0.00    +0.000 A 
ATOM     21  C   UNL     1      -3.195   7.199 -55.678  0.00  0.00    +0.000 A 
ATOM     22  C   UNL     1      -2.937   7.127 -57.049  0.00  0.00    +0.000 A 
ENDBRANCH  14  17
ENDBRANCH  13  14
ENDBRANCH   1  13
TORSDOF 5
ENDMDL
MODEL 2
REMARK VINA RESULT:      -5.5      6.988     10.717
REMARK  Name = 142505400
REMARK  6 active torsions:
REMARK  status: ('A' for Active; 'I' for Inactive)
REMARK    1  A    between atoms: O_4  and  N_7
REMARK    2  A    between atoms: O_4  and  C_17
REMARK    3  A    between atoms: C_8  and  C_13
REMARK    4  A    between atoms: C_9  and  C_10
REMARK    5  A    between atoms: C_10  and  C_14
REMARK    6  A    between atoms: C_16  and  C_17
REMARK                            x       y       z     vdW  Elec       q    Type
REMARK                         _______ _______ _______ _____ _____    ______ ____
ROOT
ATOM      1  N   UNL     1      -6.168  -2.112 -50.974  0.00  0.00    +0.000 NA
ATOM      2  C   UNL     1      -7.016  -1.219 -51.371  0.00  0.00    +0.000 C 
ENDROOT
BRANCH   2   6
ATOM      3  S   UNL     1      -4.467   2.865 -52.970  0.00  0.00    +0.000 S 
ATOM      4  N   UNL     1      -5.700   0.813 -52.034  0.00  0.00    +0.000 N 
ATOM      5  N   UNL     1      -6.368   1.161 -54.137  0.00  0.00    +0.000 NA
ATOM      6  C   UNL     1      -6.608  -0.188 -52.284  0.00  0.00    +0.000 A 
ATOM      7  C   UNL     1      -7.014   0.058 -53.600  0.00  0.00    +0.000 A 
ATOM      8  C   UNL     1      -5.602   1.564 -53.166  0.00  0.00    +0.000 A 
ATOM      9  C   UNL     1      -4.903   1.230 -50.988  0.00  0.00    +0.000 A 
ATOM     10  C   UNL     1      -4.177   2.313 -51.313  0.00  0.00    +0.000 A 
BRANCH   7  11
ATOM     11  C   UNL     1      -8.002  -0.676 -54.443  0.00  0.00    +0.000 C 
ATOM     12  C   UNL     1      -9.377  -0.025 -54.417  0.00  0.00    +0.000 C 
ENDBRANCH   7  11
ENDBRANCH   2   6
BRANCH   1  13
ATOM     13  O   UNL     1      -6.788  -3.002 -50.079  0.00  0.00    +0.000 OA
BRANCH  13  14
ATOM     14  C   UNL     1      -8.206  -2.848 -50.223  0.00  0.00    +0.000 C 
BRANCH  14  17
ATOM     15 CL   UNL     1      -8.359  -5.509 -45.773  0.00  0.00    +0.000 Cl
ATOM     16 CL   UNL     1     -11.166  -6.828 -46.756  0.00  0.00    +0.000 Cl
ATOM     17  C   UNL     1      -8.981  -3.796 -49.340  0.00  0.00    +0.000 A 
ATOM     18  C   UNL     1      -8.442  -4.177 -48.099  0.00  0.00    +0.000 A 
ATOM     19  C   UNL     1     -10.185  -4.380 -49.758  0.00  0.00    +0.000 A 
ATOM     20  C   UNL     1      -9.100  -5.104 -47.282  0.00  0.00    +0.000 A 
ATOM     21  C   UNL     1     -10.845  -5.306 -48.939  0.00  0.00    +0.000 A 
ATOM     22  C   UNL     1     -10.305  -5.669 -47.703  0.00  0.00    +0.000 A 
ENDBRANCH  14  17
ENDBRANCH  13  14
ENDBRANCH   1  13
TORSDOF 5
ENDMDL
MODEL 3
REMARK VINA RESULT:      -5.3      4.849      8.092
REMARK  Name = 142505400
REMARK  6 active torsions:
REMARK  status: ('A' for Active; 'I' for Inactive)
REMARK    1  A    between atoms: O_4  and  N_7
REMARK    2  A    between atoms: O_4  and  C_17
REMARK    3  A    between atoms: C_8  and  C_13
REMARK    4  A    between atoms: C_9  and  C_10
REMARK    5  A    between atoms: C_10  and  C_14
REMARK    6  A    between atoms: C_16  and  C_17
REMARK                            x       y       z     vdW  Elec       q    Type
REMARK                         _______ _______ _______ _____ _____    ______ ____
ROOT
ATOM      1  N   UNL     1      -5.310   4.826 -54.678  0.00  0.00    +0.000 NA
ATOM      2  C   UNL     1      -4.439   4.363 -55.514  0.00  0.00    +0.000 C 
ENDROOT
BRANCH   2   6
ATOM      3  S   UNL     1      -4.347   5.747 -60.393  0.00  0.00    +0.000 S 
ATOM      4  N   UNL     1      -4.475   4.938 -57.956  0.00  0.00    +0.000 N 
ATOM      5  N   UNL     1      -3.097   6.693 -58.065  0.00  0.00    +0.000 NA
ATOM      6  C   UNL     1      -4.055   5.134 -56.663  0.00  0.00    +0.000 A 
ATOM      7  C   UNL     1      -3.190   6.230 -56.761  0.00  0.00    +0.000 A 
ATOM      8  C   UNL     1      -3.880   5.891 -58.726  0.00  0.00    +0.000 A 
ATOM      9  C   UNL     1      -5.302   4.072 -58.641  0.00  0.00    +0.000 A 
ATOM     10  C   UNL     1      -5.352   4.358 -59.953  0.00  0.00    +0.000 A 
BRANCH   7  11
ATOM     11  C   UNL     1      -2.401   6.917 -55.698  0.00  0.00    +0.000 C 
ATOM     12  C   UNL     1      -1.074   7.449 -56.219  0.00  0.00    +0.000 C 
ENDBRANCH   7  11
ENDBRANCH   2   6
BRANCH   1  13
ATOM     13  O   UNL     1      -5.534   3.894 -53.648  0.00  0.00    +0.000 OA
BRANCH  13  14
ATOM     14  C   UNL     1      -4.994   2.637 -54.074  0.00  0.00    +0.000 C 
BRANCH  14  17
ATOM     15 CL   UNL     1      -8.410  -1.266 -54.046  0.00  0.00    +0.000 Cl
ATOM     16 CL   UNL     1      -7.541  -1.896 -50.975  0.00  0.00    +0.000 Cl
ATOM     17  C   UNL     1      -5.581   1.472 -53.313  0.00  0.00    +0.000 A 
ATOM     18  C   UNL     1      -6.579   0.689 -53.917  0.00  0.00    +0.000 A 
ATOM     19  C   UNL     1      -5.223   1.199 -51.985  0.00  0.00    +0.000 A 
ATOM     20  C   UNL     1      -7.193  -0.359 -53.219  0.00  0.00    +0.000 A 
ATOM     21  C   UNL     1      -5.835   0.149 -51.287  0.00  0.00    +0.000 A 
ATOM     22  C   UNL     1      -6.819  -0.629 -51.902  0.00  0.00    +0.000 A 
ENDBRANCH  14  17
ENDBRANCH  13  14
ENDBRANCH   1  13
TORSDOF 5
ENDMDL
MODEL 4
REMARK VINA RESULT:      -5.3     18.227     19.905
REMARK  Name = 142505400
REMARK  6 active torsions:
REMARK  status: ('A' for Active; 'I' for Inactive)
REMARK    1  A    between atoms: O_4  and  N_7
REMARK    2  A    between atoms: O_4  and  C_17
REMARK    3  A    between atoms: C_8  and  C_13
REMARK    4  A    between atoms: C_9  and  C_10
REMARK    5  A    between atoms: C_10  and  C_14
REMARK    6  A    between atoms: C_16  and  C_17
REMARK                            x       y       z     vdW  Elec       q    Type
REMARK                         _______ _______ _______ _____ _____    ______ ____
ROOT
ATOM      1  N   UNL     1     -10.098   3.730 -35.960  0.00  0.00    +0.000 NA
ATOM      2  C   UNL     1      -9.218   3.803 -36.905  0.00  0.00    +0.000 C 
ENDROOT
BRANCH   2   6
ATOM      3  S   UNL     1      -5.242   1.218 -35.107  0.00  0.00    +0.000 S 
ATOM      4  N   UNL     1      -7.340   2.433 -35.960  0.00  0.00    +0.000 N 
ATOM      5  N   UNL     1      -5.537   3.630 -36.511  0.00  0.00    +0.000 NA
ATOM      6  C   UNL     1      -7.836   3.524 -36.632  0.00  0.00    +0.000 A 
ATOM      7  C   UNL     1      -6.691   4.258 -36.958  0.00  0.00    +0.000 A 
ATOM      8  C   UNL     1      -5.984   2.555 -35.931  0.00  0.00    +0.000 A 
ATOM      9  C   UNL     1      -7.835   1.304 -35.340  0.00  0.00    +0.000 A 
ATOM     10  C   UNL     1      -6.854   0.541 -34.830  0.00  0.00    +0.000 A 
BRANCH   7  11
ATOM     11  C   UNL     1      -6.567   5.557 -37.679  0.00  0.00    +0.000 C 
ATOM     12  C   UNL     1      -6.982   6.738 -36.815  0.00  0.00    +0.000 C 
ENDBRANCH   7  11
ENDBRANCH   2   6
BRANCH   1  13
ATOM     13  O   UNL     1     -11.372   4.057 -36.460  0.00  0.00    +0.000 OA
BRANCH  13  14
ATOM     14  C   UNL     1     -11.275   5.340 -37.091  0.00  0.00    +0.000 C 
BRANCH  14  17
ATOM     15 CL   UNL     1      -9.368   9.205 -34.204  0.00  0.00    +0.000 Cl
ATOM     16 CL   UNL     1     -12.375   9.742 -33.085  0.00  0.00    +0.000 Cl
ATOM     17  C   UNL     1     -11.568   6.474 -36.137  0.00  0.00    +0.000 A 
ATOM     18  C   UNL     1     -10.509   7.266 -35.663  0.00  0.00    +0.000 A 
ATOM     19  C   UNL     1     -12.859   6.706 -35.638  0.00  0.00    +0.000 A 
ATOM     20  C   UNL     1     -10.733   8.284 -34.727  0.00  0.00    +0.000 A 
ATOM     21  C   UNL     1     -13.084   7.726 -34.704  0.00  0.00    +0.000 A 
ATOM     22  C   UNL     1     -12.024   8.514 -34.248  0.00  0.00    +0.000 A 
ENDBRANCH  14  17
ENDBRANCH  13  14
ENDBRANCH   1  13
TORSDOF 5
ENDMDL
MODEL 5
REMARK VINA RESULT:      -5.1      5.019      8.625
REMARK  Name = 142505400
REMARK  6 active torsions:
REMARK  status: ('A' for Active; 'I' for Inactive)
REMARK    1  A    between atoms: O_4  and  N_7
REMARK    2  A    between atoms: O_4  and  C_17
REMARK    3  A    between atoms: C_8  and  C_13
REMARK    4  A    between atoms: C_9  and  C_10
REMARK    5  A    between atoms: C_10  and  C_14
REMARK    6  A    between atoms: C_16  and  C_17
REMARK                            x       y       z     vdW  Elec       q    Type
REMARK                         _______ _______ _______ _____ _____    ______ ____
ROOT
ATOM      1  N   UNL     1      -3.427   3.245 -55.702  0.00  0.00    +0.000 NA
ATOM      2  C   UNL     1      -4.280   4.163 -56.024  0.00  0.00    +0.000 C 
ENDROOT
BRANCH   2   6
ATOM      3  S   UNL     1      -2.762   7.998 -58.976  0.00  0.00    +0.000 S 
ATOM      4  N   UNL     1      -3.481   6.125 -57.370  0.00  0.00    +0.000 N 
ATOM      5  N   UNL     1      -4.167   5.613 -59.433  0.00  0.00    +0.000 NA
ATOM      6  C   UNL     1      -4.114   4.912 -57.238  0.00  0.00    +0.000 A 
ATOM      7  C   UNL     1      -4.539   4.620 -58.539  0.00  0.00    +0.000 A 
ATOM      8  C   UNL     1      -3.543   6.474 -58.685  0.00  0.00    +0.000 A 
ATOM      9  C   UNL     1      -2.832   7.031 -56.558  0.00  0.00    +0.000 A 
ATOM     10  C   UNL     1      -2.383   8.092 -57.250  0.00  0.00    +0.000 A 
BRANCH   7  11
ATOM     11  C   UNL     1      -5.301   3.443 -59.048  0.00  0.00    +0.000 C 
ATOM     12  C   UNL     1      -6.318   3.833 -60.111  0.00  0.00    +0.000 C 
ENDBRANCH   7  11
ENDBRANCH   2   6
BRANCH   1  13
ATOM     13  O   UNL     1      -3.787   2.662 -54.473  0.00  0.00    +0.000 OA
BRANCH  13  14
ATOM     14  C   UNL     1      -5.218   2.591 -54.428  0.00  0.00    +0.000 C 
BRANCH  14  17
ATOM     15 CL   UNL     1      -8.449  -1.439 -53.946  0.00  0.00    +0.000 Cl
ATOM     16 CL   UNL     1      -7.384  -1.821 -50.896  0.00  0.00    +0.000 Cl
ATOM     17  C   UNL     1      -5.710   1.457 -53.560  0.00  0.00    +0.000 A 
ATOM     18  C   UNL     1      -6.703   0.594 -54.052  0.00  0.00    +0.000 A 
ATOM     19  C   UNL     1      -5.267   1.290 -52.239  0.00  0.00    +0.000 A 
ATOM     20  C   UNL     1      -7.230  -0.428 -53.253  0.00  0.00    +0.000 A 
ATOM     21  C   UNL     1      -5.792   0.266 -51.440  0.00  0.00    +0.000 A 
ATOM     22  C   UNL     1      -6.772  -0.592 -51.944  0.00  0.00    +0.000 A 
ENDBRANCH  14  17
ENDBRANCH  13  14
ENDBRANCH   1  13
TORSDOF 5
ENDMDL
MODEL 6
REMARK VINA RESULT:      -5.1     21.398     23.555
REMARK  Name = 142505400
REMARK  6 active torsions:
REMARK  status: ('A' for Active; 'I' for Inactive)
REMARK    1  A    between atoms: O_4  and  N_7
REMARK    2  A    between atoms: O_4  and  C_17
REMARK    3  A    between atoms: C_8  and  C_13
REMARK    4  A    between atoms: C_9  and  C_10
REMARK    5  A    between atoms: C_10  and  C_14
REMARK    6  A    between atoms: C_16  and  C_17
REMARK                            x       y       z     vdW  Elec       q    Type
REMARK                         _______ _______ _______ _____ _____    ______ ____
ROOT
ATOM      1  N   UNL     1     -14.658   7.217 -35.042  0.00  0.00    +0.000 NA
ATOM      2  C   UNL     1     -13.739   7.632 -35.853  0.00  0.00    +0.000 C 
ENDROOT
BRANCH   2   6
ATOM      3  S   UNL     1      -9.422   8.717 -33.420  0.00  0.00    +0.000 S 
ATOM      4  N   UNL     1     -11.669   8.276 -34.588  0.00  0.00    +0.000 N 
ATOM      5  N   UNL     1     -10.152   6.834 -35.369  0.00  0.00    +0.000 NA
ATOM      6  C   UNL     1     -12.352   7.509 -35.502  0.00  0.00    +0.000 A 
ATOM      7  C   UNL     1     -11.381   6.623 -35.979  0.00  0.00    +0.000 A 
ATOM      8  C   UNL     1     -10.386   7.821 -34.555  0.00  0.00    +0.000 A 
ATOM      9  C   UNL     1     -11.934   9.330 -33.739  0.00  0.00    +0.000 A 
ATOM     10  C   UNL     1     -10.847   9.695 -33.038  0.00  0.00    +0.000 A 
BRANCH   7  11
ATOM     11  C   UNL     1     -11.496   5.547 -37.006  0.00  0.00    +0.000 C 
ATOM     12  C   UNL     1     -10.524   4.404 -36.754  0.00  0.00    +0.000 C 
ENDBRANCH   7  11
ENDBRANCH   2   6
BRANCH   1  13
ATOM     13  O   UNL     1     -15.931   7.455 -35.592  0.00  0.00    +0.000 OA
BRANCH  13  14
ATOM     14  C   UNL     1     -16.519   8.546 -34.873  0.00  0.00    +0.000 C 
BRANCH  14  17
ATOM     15 CL   UNL     1     -21.264   9.839 -36.522  0.00  0.00    +0.000 Cl
ATOM     16 CL   UNL     1     -22.501   8.103 -34.065  0.00  0.00    +0.000 Cl
ATOM     17  C   UNL     1     -18.010   8.382 -34.699  0.00  0.00    +0.000 A 
ATOM     18  C   UNL     1     -18.884   9.054 -35.570  0.00  0.00    +0.000 A 
ATOM     19  C   UNL     1     -18.554   7.646 -33.636  0.00  0.00    +0.000 A 
ATOM     20  C   UNL     1     -20.271   8.978 -35.400  0.00  0.00    +0.000 A 
ATOM     21  C   UNL     1     -19.943   7.567 -33.466  0.00  0.00    +0.000 A 
ATOM     22  C   UNL     1     -20.801   8.232 -34.345  0.00  0.00    +0.000 A 
ENDBRANCH  14  17
ENDBRANCH  13  14
ENDBRANCH   1  13
TORSDOF 5
ENDMDL
MODEL 7
REMARK VINA RESULT:      -5.0     18.024     19.524
REMARK  Name = 142505400
REMARK  6 active torsions:
REMARK  status: ('A' for Active; 'I' for Inactive)
REMARK    1  A    between atoms: O_4  and  N_7
REMARK    2  A    between atoms: O_4  and  C_17
REMARK    3  A    between atoms: C_8  and  C_13
REMARK    4  A    between atoms: C_9  and  C_10
REMARK    5  A    between atoms: C_10  and  C_14
REMARK    6  A    between atoms: C_16  and  C_17
REMARK                            x       y       z     vdW  Elec       q    Type
REMARK                         _______ _______ _______ _____ _____    ______ ____
ROOT
ATOM      1  N   UNL     1     -23.392   7.776 -54.300  0.00  0.00    +0.000 NA
ATOM      2  C   UNL     1     -22.494   6.849 -54.227  0.00  0.00    +0.000 C 
ENDROOT
BRANCH   2   6
ATOM      3  S   UNL     1     -18.809   6.971 -57.712  0.00  0.00    +0.000 S 
ATOM      4  N   UNL     1     -20.620   7.023 -55.888  0.00  0.00    +0.000 N 
ATOM      5  N   UNL     1     -21.076   5.365 -57.314  0.00  0.00    +0.000 NA
ATOM      6  C   UNL     1     -21.769   6.448 -55.401  0.00  0.00    +0.000 A 
ATOM      7  C   UNL     1     -22.035   5.421 -56.314  0.00  0.00    +0.000 A 
ATOM      8  C   UNL     1     -20.264   6.334 -57.008  0.00  0.00    +0.000 A 
ATOM      9  C   UNL     1     -19.777   8.062 -55.553  0.00  0.00    +0.000 A 
ATOM     10  C   UNL     1     -18.755   8.178 -56.418  0.00  0.00    +0.000 A 
BRANCH   7  11
ATOM     11  C   UNL     1     -23.160   4.442 -56.343  0.00  0.00    +0.000 C 
ATOM     12  C   UNL     1     -22.677   3.016 -56.559  0.00  0.00    +0.000 C 
ENDBRANCH   7  11
ENDBRANCH   2   6
BRANCH   1  13
ATOM     13  O   UNL     1     -23.973   7.986 -53.036  0.00  0.00    +0.000 OA
BRANCH  13  14
ATOM     14  C   UNL     1     -22.916   8.289 -52.117  0.00  0.00    +0.000 C 
BRANCH  14  17
ATOM     15 CL   UNL     1     -24.850  10.163 -47.683  0.00  0.00    +0.000 Cl
ATOM     16 CL   UNL     1     -24.264   7.275 -46.304  0.00  0.00    +0.000 Cl
ATOM     17  C   UNL     1     -23.303   8.008 -50.684  0.00  0.00    +0.000 A 
ATOM     18  C   UNL     1     -23.859   9.039 -49.907  0.00  0.00    +0.000 A 
ATOM     19  C   UNL     1     -23.044   6.772 -50.076  0.00  0.00    +0.000 A 
ATOM     20  C   UNL     1     -24.170   8.836 -48.557  0.00  0.00    +0.000 A 
ATOM     21  C   UNL     1     -23.358   6.566 -48.725  0.00  0.00    +0.000 A 
ATOM     22  C   UNL     1     -23.919   7.596 -47.966  0.00  0.00    +0.000 A 
ENDBRANCH  14  17
ENDBRANCH  13  14
ENDBRANCH   1  13
TORSDOF 5
ENDMDL
MODEL 8
REMARK VINA RESULT:      -4.9      6.449      8.744
REMARK  Name = 142505400
REMARK  6 active torsions:
REMARK  status: ('A' for Active; 'I' for Inactive)
REMARK    1  A    between atoms: O_4  and  N_7
REMARK    2  A    between atoms: O_4  and  C_17
REMARK    3  A    between atoms: C_8  and  C_13
REMARK    4  A    between atoms: C_9  and  C_10
REMARK    5  A    between atoms: C_10  and  C_14
REMARK    6  A    between atoms: C_16  and  C_17
REMARK                            x       y       z     vdW  Elec       q    Type
REMARK                         _______ _______ _______ _____ _____    ______ ____
ROOT
ATOM      1  N   UNL     1      -8.047  -3.701 -48.867  0.00  0.00    +0.000 NA
ATOM      2  C   UNL     1      -8.679  -3.733 -47.739  0.00  0.00    +0.000 C 
ENDROOT
BRANCH   2   6
ATOM      3  S   UNL     1     -10.009  -8.118 -45.563  0.00  0.00    +0.000 S 
ATOM      4  N   UNL     1      -9.458  -5.896 -46.732  0.00  0.00    +0.000 N 
ATOM      5  N   UNL     1      -7.797  -6.407 -45.328  0.00  0.00    +0.000 NA
ATOM      6  C   UNL     1      -8.554  -4.870 -46.871  0.00  0.00    +0.000 A 
ATOM      7  C   UNL     1      -7.531  -5.211 -45.979  0.00  0.00    +0.000 A 
ATOM      8  C   UNL     1      -8.948  -6.766 -45.816  0.00  0.00    +0.000 A 
ATOM      9  C   UNL     1     -10.684  -6.254 -47.254  0.00  0.00    +0.000 A 
ATOM     10  C   UNL     1     -11.127  -7.415 -46.741  0.00  0.00    +0.000 A 
BRANCH   7  11
ATOM     11  C   UNL     1      -6.268  -4.485 -45.657  0.00  0.00    +0.000 C 
ATOM     12  C   UNL     1      -5.178  -4.743 -46.686  0.00  0.00    +0.000 C 
ENDBRANCH   7  11
ENDBRANCH   2   6
BRANCH   1  13
ATOM     13  O   UNL     1      -8.333  -2.503 -49.547  0.00  0.00    +0.000 OA
BRANCH  13  14
ATOM     14  C   UNL     1      -8.360  -2.794 -50.950  0.00  0.00    +0.000 C 
BRANCH  14  17
ATOM     15 CL   UNL     1      -4.629   0.799 -51.225  0.00  0.00    +0.000 Cl
ATOM     16 CL   UNL     1      -5.819   1.694 -54.118  0.00  0.00    +0.000 Cl
ATOM     17  C   UNL     1      -7.697  -1.715 -51.773  0.00  0.00    +0.000 A 
ATOM     18  C   UNL     1      -6.589  -1.031 -51.247  0.00  0.00    +0.000 A 
ATOM     19  C   UNL     1      -8.209  -1.313 -53.016  0.00  0.00    +0.000 A 
ATOM     20  C   UNL     1      -5.988   0.019 -51.954  0.00  0.00    +0.000 A 
ATOM     21  C   UNL     1      -7.607  -0.265 -53.724  0.00  0.00    +0.000 A 
ATOM     22  C   UNL     1      -6.499   0.401 -53.195  0.00  0.00    +0.000 A 
ENDBRANCH  14  17
ENDBRANCH  13  14
ENDBRANCH   1  13
TORSDOF 5
ENDMDL
MODEL 9
REMARK VINA RESULT:      -4.8     20.574     22.783
REMARK  Name = 142505400
REMARK  6 active torsions:
REMARK  status: ('A' for Active; 'I' for Inactive)
REMARK    1  A    between atoms: O_4  and  N_7
REMARK    2  A    between atoms: O_4  and  C_17
REMARK    3  A    between atoms: C_8  and  C_13
REMARK    4  A    between atoms: C_9  and  C_10
REMARK    5  A    between atoms: C_10  and  C_14
REMARK    6  A    between atoms: C_16  and  C_17
REMARK                            x       y       z     vdW  Elec       q    Type
REMARK                         _______ _______ _______ _____ _____    ______ ____
ROOT
ATOM      1  N   UNL     1     -13.124   6.838 -34.747  0.00  0.00    +0.000 NA
ATOM      2  C   UNL     1     -12.184   7.050 -35.610  0.00  0.00    +0.000 C 
ENDROOT
BRANCH   2   6
ATOM      3  S   UNL     1      -7.807   4.511 -35.970  0.00  0.00    +0.000 S 
ATOM      4  N   UNL     1     -10.079   5.710 -35.881  0.00  0.00    +0.000 N 
ATOM      5  N   UNL     1      -8.710   6.642 -34.382  0.00  0.00    +0.000 NA
ATOM      6  C   UNL     1     -10.824   6.707 -35.299  0.00  0.00    +0.000 A 
ATOM      7  C   UNL     1      -9.949   7.267 -34.362  0.00  0.00    +0.000 A 
ATOM      8  C   UNL     1      -8.847   5.732 -35.302  0.00  0.00    +0.000 A 
ATOM      9  C   UNL     1     -10.247   4.745 -36.852  0.00  0.00    +0.000 A 
ATOM     10  C   UNL     1      -9.134   4.013 -37.030  0.00  0.00    +0.000 A 
BRANCH   7  11
ATOM     11  C   UNL     1     -10.173   8.384 -33.399  0.00  0.00    +0.000 C 
ATOM     12  C   UNL     1      -9.651   9.712 -33.926  0.00  0.00    +0.000 C 
ENDBRANCH   7  11
ENDBRANCH   2   6
BRANCH   1  13
ATOM     13  O   UNL     1     -14.360   7.264 -35.267  0.00  0.00    +0.000 OA
BRANCH  13  14
ATOM     14  C   UNL     1     -14.951   8.153 -34.310  0.00  0.00    +0.000 C 
BRANCH  14  17
ATOM     15 CL   UNL     1     -19.693   9.340 -36.044  0.00  0.00    +0.000 Cl
ATOM     16 CL   UNL     1     -20.934   7.524 -33.647  0.00  0.00    +0.000 Cl
ATOM     17  C   UNL     1     -16.440   7.943 -34.173  0.00  0.00    +0.000 A 
ATOM     18  C   UNL     1     -17.313   8.606 -35.052  0.00  0.00    +0.000 A 
ATOM     19  C   UNL     1     -16.986   7.172 -33.136  0.00  0.00    +0.000 A 
ATOM     20  C   UNL     1     -18.701   8.487 -34.915  0.00  0.00    +0.000 A 
ATOM     21  C   UNL     1     -18.376   7.051 -33.000  0.00  0.00    +0.000 A 
ATOM     22  C   UNL     1     -19.233   7.707 -33.886  0.00  0.00    +0.000 A 
ENDBRANCH  14  17
ENDBRANCH  13  14
ENDBRANCH   1  13
TORSDOF 5
ENDMDL
MODEL 10
REMARK VINA RESULT:      -4.8     18.106     19.216
REMARK  Name = 142505400
REMARK  6 active torsions:
REMARK  status: ('A' for Active; 'I' for Inactive)
REMARK    1  A    between atoms: O_4  and  N_7
REMARK    2  A    between atoms: O_4  and  C_17
REMARK    3  A    between atoms: C_8  and  C_13
REMARK    4  A    between atoms: C_9  and  C_10
REMARK    5  A    between atoms: C_10  and  C_14
REMARK    6  A    between atoms: C_16  and  C_17
REMARK                            x       y       z     vdW  Elec       q    Type
REMARK                         _______ _______ _______ _____ _____    ______ ____
ROOT
ATOM      1  N   UNL     1     -24.739   7.158 -51.537  0.00  0.00    +0.000 NA
ATOM      2  C   UNL     1     -24.032   6.323 -50.847  0.00  0.00    +0.000 C 
ENDROOT
BRANCH   2   6
ATOM      3  S   UNL     1     -26.008   2.183 -48.682  0.00  0.00    +0.000 S 
ATOM      4  N   UNL     1     -24.993   4.208 -49.897  0.00  0.00    +0.000 N 
ATOM      5  N   UNL     1     -25.592   4.826 -47.836  0.00  0.00    +0.000 NA
ATOM      6  C   UNL     1     -24.646   5.535 -49.815  0.00  0.00    +0.000 A 
ATOM      7  C   UNL     1     -25.038   5.897 -48.521  0.00  0.00    +0.000 A 
ATOM      8  C   UNL     1     -25.536   3.854 -48.699  0.00  0.00    +0.000 A 
ATOM      9  C   UNL     1     -24.934   3.193 -50.830  0.00  0.00    +0.000 A 
ATOM     10  C   UNL     1     -25.433   2.041 -50.350  0.00  0.00    +0.000 A 
BRANCH   7  11
ATOM     11  C   UNL     1     -24.942   7.217 -47.833  0.00  0.00    +0.000 C 
ATOM     12  C   UNL     1     -23.959   7.192 -46.673  0.00  0.00    +0.000 C 
ENDBRANCH   7  11
ENDBRANCH   2   6
BRANCH   1  13
ATOM     13  O   UNL     1     -23.924   7.821 -52.473  0.00  0.00    +0.000 OA
BRANCH  13  14
ATOM     14  C   UNL     1     -24.152   7.218 -53.753  0.00  0.00    +0.000 C 
BRANCH  14  17
ATOM     15 CL   UNL     1     -21.382   4.014 -56.748  0.00  0.00    +0.000 Cl
ATOM     16 CL   UNL     1     -18.935   6.156 -56.634  0.00  0.00    +0.000 Cl
ATOM     17  C   UNL     1     -22.869   6.988 -54.517  0.00  0.00    +0.000 A 
ATOM     18  C   UNL     1     -22.698   5.790 -55.231  0.00  0.00    +0.000 A 
ATOM     19  C   UNL     1     -21.804   7.899 -54.465  0.00  0.00    +0.000 A 
ATOM     20  C   UNL     1     -21.498   5.514 -55.897  0.00  0.00    +0.000 A 
ATOM     21  C   UNL     1     -20.603   7.624 -55.133  0.00  0.00    +0.000 A 
ATOM     22  C   UNL     1     -20.449   6.434 -55.848  0.00  0.00    +0.000 A 
ENDBRANCH  14  17
ENDBRANCH  13  14
ENDBRANCH   1  13
TORSDOF 5
ENDMDL
