MODEL 1
REMARK VINA RESULT:      -5.5      0.000      0.000
REMARK  Name = 142505400
REMARK  6 active torsions:
REMARK  status: ('A' for Active; 'I' for Inactive)
REMARK    1  A    between atoms: O_4  and  N_7
REMARK    2  A    between atoms: O_4  and  C_17
REMARK    3  A    between atoms: C_8  and  C_13
REMARK    4  A    between atoms: C_9  and  C_10
REMARK    5  A    between atoms: C_10  and  C_14
REMARK    6  A    between atoms: C_16  and  C_17
REMARK                            x       y       z     vdW  Elec       q    Type
REMARK                         _______ _______ _______ _____ _____    ______ ____
ROOT
ATOM      1  N   UNL     1      -3.044 -12.041  14.959  0.00  0.00    +0.000 NA
ATOM      2  C   UNL     1      -3.302 -10.950  15.604  0.00  0.00    +0.000 C 
ENDROOT
BRANCH   2   6
ATOM      3  S   UNL     1      -7.072 -10.699  18.989  0.00  0.00    +0.000 S 
ATOM      4  N   UNL     1      -5.082 -10.883  17.372  0.00  0.00    +0.000 N 
ATOM      5  N   UNL     1      -6.850 -10.096  16.257  0.00  0.00    +0.000 NA
ATOM      6  C   UNL     1      -4.629 -10.692  16.089  0.00  0.00    +0.000 A 
ATOM      7  C   UNL     1      -5.754 -10.208  15.413  0.00  0.00    +0.000 A 
ATOM      8  C   UNL     1      -6.391 -10.507  17.402  0.00  0.00    +0.000 A 
ATOM      9  C   UNL     1      -4.579 -11.332  18.576  0.00  0.00    +0.000 A 
ATOM     10  C   UNL     1      -5.505 -11.301  19.549  0.00  0.00    +0.000 A 
BRANCH   7  11
ATOM     11  C   UNL     1      -5.911  -9.824  13.980  0.00  0.00    +0.000 C 
ATOM     12  C   UNL     1      -6.337 -11.000  13.113  0.00  0.00    +0.000 C 
ENDBRANCH   7  11
ENDBRANCH   2   6
BRANCH   1  13
ATOM     13  O   UNL     1      -1.691 -12.066  14.574  0.00  0.00    +0.000 OA
BRANCH  13  14
ATOM     14  C   UNL     1      -1.628 -12.578  13.237  0.00  0.00    +0.000 C 
BRANCH  14  17
ATOM     15 CL   UNL     1      -5.088 -11.986   9.417  0.00  0.00    +0.000 Cl
ATOM     16 CL   UNL     1      -4.027  -8.933   9.041  0.00  0.00    +0.000 Cl
ATOM     17  C   UNL     1      -2.261 -11.643  12.233  0.00  0.00    +0.000 A 
ATOM     18  C   UNL     1      -3.278 -12.124  11.391  0.00  0.00    +0.000 A 
ATOM     19  C   UNL     1      -1.803 -10.330  12.054  0.00  0.00    +0.000 A 
ATOM     20  C   UNL     1      -3.843 -11.306  10.404  0.00  0.00    +0.000 A 
ATOM     21  C   UNL     1      -2.370  -9.510  11.069  0.00  0.00    +0.000 A 
ATOM     22  C   UNL     1      -3.387  -9.996  10.244  0.00  0.00    +0.000 A 
ENDBRANCH  14  17
ENDBRANCH  13  14
ENDBRANCH   1  13
TORSDOF 5
ENDMDL
MODEL 2
REMARK VINA RESULT:      -5.1     27.761     28.956
REMARK  Name = 142505400
REMARK  6 active torsions:
REMARK  status: ('A' for Active; 'I' for Inactive)
REMARK    1  A    between atoms: O_4  and  N_7
REMARK    2  A    between atoms: O_4  and  C_17
REMARK    3  A    between atoms: C_8  and  C_13
REMARK    4  A    between atoms: C_9  and  C_10
REMARK    5  A    between atoms: C_10  and  C_14
REMARK    6  A    between atoms: C_16  and  C_17
REMARK                            x       y       z     vdW  Elec       q    Type
REMARK                         _______ _______ _______ _____ _____    ______ ____
ROOT
ATOM      1  N   UNL     1      14.085  10.516  21.807  0.00  0.00    +0.000 NA
ATOM      2  C   UNL     1      13.665   9.296  21.727  0.00  0.00    +0.000 C 
ENDROOT
BRANCH   2   6
ATOM      3  S   UNL     1      16.736   6.161  19.182  0.00  0.00    +0.000 S 
ATOM      4  N   UNL     1      15.279   7.762  20.569  0.00  0.00    +0.000 N 
ATOM      5  N   UNL     1      14.209   7.270  18.671  0.00  0.00    +0.000 NA
ATOM      6  C   UNL     1      14.093   8.452  20.646  0.00  0.00    +0.000 A 
ATOM      7  C   UNL     1      13.449   8.133  19.446  0.00  0.00    +0.000 A 
ATOM      8  C   UNL     1      15.279   7.084  19.387  0.00  0.00    +0.000 A 
ATOM      9  C   UNL     1      16.410   7.586  21.339  0.00  0.00    +0.000 A 
ATOM     10  C   UNL     1      17.294   6.761  20.751  0.00  0.00    +0.000 A 
BRANCH   7  11
ATOM     11  C   UNL     1      12.125   8.585  18.928  0.00  0.00    +0.000 C 
ATOM     12  C   UNL     1      11.036   8.511  19.988  0.00  0.00    +0.000 C 
ENDBRANCH   7  11
ENDBRANCH   2   6
BRANCH   1  13
ATOM     13  O   UNL     1      13.524  11.147  22.932  0.00  0.00    +0.000 OA
BRANCH  13  14
ATOM     14  C   UNL     1      12.125  10.836  22.953  0.00  0.00    +0.000 C 
BRANCH  14  17
ATOM     15 CL   UNL     1       9.944  14.948  20.664  0.00  0.00    +0.000 Cl
ATOM     16 CL   UNL     1       8.878  15.905  23.584  0.00  0.00    +0.000 Cl
ATOM     17  C   UNL     1      11.265  12.067  23.112  0.00  0.00    +0.000 A 
ATOM     18  C   UNL     1      10.982  12.859  21.986  0.00  0.00    +0.000 A 
ATOM     19  C   UNL     1      10.810  12.495  24.368  0.00  0.00    +0.000 A 
ATOM     20  C   UNL     1      10.242  14.042  22.105  0.00  0.00    +0.000 A 
ATOM     21  C   UNL     1      10.068  13.678  24.487  0.00  0.00    +0.000 A 
ATOM     22  C   UNL     1       9.784  14.451  23.359  0.00  0.00    +0.000 A 
ENDBRANCH  14  17
ENDBRANCH  13  14
ENDBRANCH   1  13
TORSDOF 5
ENDMDL
MODEL 3
REMARK VINA RESULT:      -5.1     21.408     23.468
REMARK  Name = 142505400
REMARK  6 active torsions:
REMARK  status: ('A' for Active; 'I' for Inactive)
REMARK    1  A    between atoms: O_4  and  N_7
REMARK    2  A    between atoms: O_4  and  C_17
REMARK    3  A    between atoms: C_8  and  C_13
REMARK    4  A    between atoms: C_9  and  C_10
REMARK    5  A    between atoms: C_10  and  C_14
REMARK    6  A    between atoms: C_16  and  C_17
REMARK                            x       y       z     vdW  Elec       q    Type
REMARK                         _______ _______ _______ _____ _____    ______ ____
ROOT
ATOM      1  N   UNL     1     -16.929   4.795  26.516  0.00  0.00    +0.000 NA
ATOM      2  C   UNL     1     -16.287   3.990  25.733  0.00  0.00    +0.000 C 
ENDROOT
BRANCH   2   6
ATOM      3  S   UNL     1     -18.745   3.554  21.317  0.00  0.00    +0.000 S 
ATOM      4  N   UNL     1     -17.610   3.720  23.618  0.00  0.00    +0.000 N 
ATOM      5  N   UNL     1     -16.168   4.391  22.050  0.00  0.00    +0.000 NA
ATOM      6  C   UNL     1     -16.474   4.061  24.310  0.00  0.00    +0.000 A 
ATOM      7  C   UNL     1     -15.587   4.468  23.307  0.00  0.00    +0.000 A 
ATOM      8  C   UNL     1     -17.365   3.945  22.297  0.00  0.00    +0.000 A 
ATOM      9  C   UNL     1     -18.871   3.236  23.900  0.00  0.00    +0.000 A 
ATOM     10  C   UNL     1     -19.612   3.088  22.788  0.00  0.00    +0.000 A 
BRANCH   7  11
ATOM     11  C   UNL     1     -14.178   4.943  23.419  0.00  0.00    +0.000 C 
ATOM     12  C   UNL     1     -13.605   5.365  22.074  0.00  0.00    +0.000 C 
ENDBRANCH   7  11
ENDBRANCH   2   6
BRANCH   1  13
ATOM     13  O   UNL     1     -16.597   4.531  27.857  0.00  0.00    +0.000 OA
BRANCH  13  14
ATOM     14  C   UNL     1     -15.908   3.274  27.895  0.00  0.00    +0.000 C 
BRANCH  14  17
ATOM     15 CL   UNL     1     -15.090  -0.589  31.259  0.00  0.00    +0.000 Cl
ATOM     16 CL   UNL     1     -14.566   1.643  33.567  0.00  0.00    +0.000 Cl
ATOM     17  C   UNL     1     -15.515   2.877  29.298  0.00  0.00    +0.000 A 
ATOM     18  C   UNL     1     -15.448   1.515  29.635  0.00  0.00    +0.000 A 
ATOM     19  C   UNL     1     -15.298   3.830  30.304  0.00  0.00    +0.000 A 
ATOM     20  C   UNL     1     -15.150   1.109  30.942  0.00  0.00    +0.000 A 
ATOM     21  C   UNL     1     -14.998   3.425  31.612  0.00  0.00    +0.000 A 
ATOM     22  C   UNL     1     -14.925   2.067  31.932  0.00  0.00    +0.000 A 
ENDBRANCH  14  17
ENDBRANCH  13  14
ENDBRANCH   1  13
TORSDOF 5
ENDMDL
MODEL 4
REMARK VINA RESULT:      -5.0     27.738     29.052
REMARK  Name = 142505400
REMARK  6 active torsions:
REMARK  status: ('A' for Active; 'I' for Inactive)
REMARK    1  A    between atoms: O_4  and  N_7
REMARK    2  A    between atoms: O_4  and  C_17
REMARK    3  A    between atoms: C_8  and  C_13
REMARK    4  A    between atoms: C_9  and  C_10
REMARK    5  A    between atoms: C_10  and  C_14
REMARK    6  A    between atoms: C_16  and  C_17
REMARK                            x       y       z     vdW  Elec       q    Type
REMARK                         _______ _______ _______ _____ _____    ______ ____
ROOT
ATOM      1  N   UNL     1      14.081  10.466  21.708  0.00  0.00    +0.000 NA
ATOM      2  C   UNL     1      13.621   9.288  21.435  0.00  0.00    +0.000 C 
ENDROOT
BRANCH   2   6
ATOM      3  S   UNL     1      13.937   8.486  16.436  0.00  0.00    +0.000 S 
ATOM      4  N   UNL     1      13.692   9.000  18.943  0.00  0.00    +0.000 N 
ATOM      5  N   UNL     1      14.925   7.153  18.700  0.00  0.00    +0.000 NA
ATOM      6  C   UNL     1      14.011   8.620  20.225  0.00  0.00    +0.000 A 
ATOM      7  C   UNL     1      14.774   7.461  20.044  0.00  0.00    +0.000 A 
ATOM      8  C   UNL     1      14.267   8.100  18.097  0.00  0.00    +0.000 A 
ATOM      9  C   UNL     1      12.980  10.006  18.323  0.00  0.00    +0.000 A 
ATOM     10  C   UNL     1      13.005   9.888  16.985  0.00  0.00    +0.000 A 
BRANCH   7  11
ATOM     11  C   UNL     1      15.402   6.568  21.060  0.00  0.00    +0.000 C 
ATOM     12  C   UNL     1      16.910   6.755  21.137  0.00  0.00    +0.000 C 
ENDBRANCH   7  11
ENDBRANCH   2   6
BRANCH   1  13
ATOM     13  O   UNL     1      13.552  10.919  22.930  0.00  0.00    +0.000 OA
BRANCH  13  14
ATOM     14  C   UNL     1      12.143  10.654  22.920  0.00  0.00    +0.000 C 
BRANCH  14  17
ATOM     15 CL   UNL     1      10.210  14.890  20.632  0.00  0.00    +0.000 Cl
ATOM     16 CL   UNL     1       9.052  15.822  23.526  0.00  0.00    +0.000 Cl
ATOM     17  C   UNL     1      11.321  11.912  23.069  0.00  0.00    +0.000 A 
ATOM     18  C   UNL     1      11.115  12.737  21.950  0.00  0.00    +0.000 A 
ATOM     19  C   UNL     1      10.827  12.330  24.313  0.00  0.00    +0.000 A 
ATOM     20  C   UNL     1      10.413  13.943  22.064  0.00  0.00    +0.000 A 
ATOM     21  C   UNL     1      10.122  13.536  24.428  0.00  0.00    +0.000 A 
ATOM     22  C   UNL     1       9.915  14.342  23.306  0.00  0.00    +0.000 A 
ENDBRANCH  14  17
ENDBRANCH  13  14
ENDBRANCH   1  13
TORSDOF 5
ENDMDL
MODEL 5
REMARK VINA RESULT:      -5.0     27.823     29.040
REMARK  Name = 142505400
REMARK  6 active torsions:
REMARK  status: ('A' for Active; 'I' for Inactive)
REMARK    1  A    between atoms: O_4  and  N_7
REMARK    2  A    between atoms: O_4  and  C_17
REMARK    3  A    between atoms: C_8  and  C_13
REMARK    4  A    between atoms: C_9  and  C_10
REMARK    5  A    between atoms: C_10  and  C_14
REMARK    6  A    between atoms: C_16  and  C_17
REMARK                            x       y       z     vdW  Elec       q    Type
REMARK                         _______ _______ _______ _____ _____    ______ ____
ROOT
ATOM      1  N   UNL     1      11.771  10.612  21.896  0.00  0.00    +0.000 NA
ATOM      2  C   UNL     1      11.105   9.955  21.003  0.00  0.00    +0.000 C 
ENDROOT
BRANCH   2   6
ATOM      3  S   UNL     1      13.944   7.619  17.508  0.00  0.00    +0.000 S 
ATOM      4  N   UNL     1      12.533   8.924  19.215  0.00  0.00    +0.000 N 
ATOM      5  N   UNL     1      12.375   6.741  19.663  0.00  0.00    +0.000 NA
ATOM      6  C   UNL     1      11.712   8.850  20.314  0.00  0.00    +0.000 A 
ATOM      7  C   UNL     1      11.624   7.477  20.568  0.00  0.00    +0.000 A 
ATOM      8  C   UNL     1      12.891   7.651  18.889  0.00  0.00    +0.000 A 
ATOM      9  C   UNL     1      13.062   9.903  18.399  0.00  0.00    +0.000 A 
ATOM     10  C   UNL     1      13.840   9.385  17.434  0.00  0.00    +0.000 A 
BRANCH   7  11
ATOM     11  C   UNL     1      10.864   6.752  21.626  0.00  0.00    +0.000 C 
ATOM     12  C   UNL     1      11.087   5.248  21.568  0.00  0.00    +0.000 C 
ENDBRANCH   7  11
ENDBRANCH   2   6
BRANCH   1  13
ATOM     13  O   UNL     1      10.980  11.651  22.420  0.00  0.00    +0.000 OA
BRANCH  13  14
ATOM     14  C   UNL     1      11.194  11.690  23.837  0.00  0.00    +0.000 C 
BRANCH  14  17
ATOM     15 CL   UNL     1       9.514  16.530  23.030  0.00  0.00    +0.000 Cl
ATOM     16 CL   UNL     1      10.508  17.288  26.034  0.00  0.00    +0.000 Cl
ATOM     17  C   UNL     1      10.974  13.068  24.414  0.00  0.00    +0.000 A 
ATOM     18  C   UNL     1      10.396  14.066  23.612  0.00  0.00    +0.000 A 
ATOM     19  C   UNL     1      11.409  13.408  25.703  0.00  0.00    +0.000 A 
ATOM     20  C   UNL     1      10.235  15.372  24.090  0.00  0.00    +0.000 A 
ATOM     21  C   UNL     1      11.246  14.714  26.184  0.00  0.00    +0.000 A 
ATOM     22  C   UNL     1      10.661  15.696  25.380  0.00  0.00    +0.000 A 
ENDBRANCH  14  17
ENDBRANCH  13  14
ENDBRANCH   1  13
TORSDOF 5
ENDMDL
MODEL 6
REMARK VINA RESULT:      -4.8     23.526     25.044
REMARK  Name = 142505400
REMARK  6 active torsions:
REMARK  status: ('A' for Active; 'I' for Inactive)
REMARK    1  A    between atoms: O_4  and  N_7
REMARK    2  A    between atoms: O_4  and  C_17
REMARK    3  A    between atoms: C_8  and  C_13
REMARK    4  A    between atoms: C_9  and  C_10
REMARK    5  A    between atoms: C_10  and  C_14
REMARK    6  A    between atoms: C_16  and  C_17
REMARK                            x       y       z     vdW  Elec       q    Type
REMARK                         _______ _______ _______ _____ _____    ______ ____
ROOT
ATOM      1  N   UNL     1      -8.940  13.988  17.076  0.00  0.00    +0.000 NA
ATOM      2  C   UNL     1      -7.814  13.423  16.782  0.00  0.00    +0.000 C 
ENDROOT
BRANCH   2   6
ATOM      3  S   UNL     1      -5.253  15.543  12.951  0.00  0.00    +0.000 S 
ATOM      4  N   UNL     1      -6.637  14.412  14.799  0.00  0.00    +0.000 N 
ATOM      5  N   UNL     1      -4.892  15.448  15.733  0.00  0.00    +0.000 NA
ATOM      6  C   UNL     1      -6.769  14.175  16.146  0.00  0.00    +0.000 A 
ATOM      7  C   UNL     1      -5.664  14.826  16.704  0.00  0.00    +0.000 A 
ATOM      8  C   UNL     1      -5.519  15.170  14.627  0.00  0.00    +0.000 A 
ATOM      9  C   UNL     1      -7.311  14.098  13.636  0.00  0.00    +0.000 A 
ATOM     10  C   UNL     1      -6.711  14.621  12.553  0.00  0.00    +0.000 A 
BRANCH   7  11
ATOM     11  C   UNL     1      -5.236  14.922  18.130  0.00  0.00    +0.000 C 
ATOM     12  C   UNL     1      -6.052  15.945  18.907  0.00  0.00    +0.000 C 
ENDBRANCH   7  11
ENDBRANCH   2   6
BRANCH   1  13
ATOM     13  O   UNL     1      -9.806  13.057  17.676  0.00  0.00    +0.000 OA
BRANCH  13  14
ATOM     14  C   UNL     1      -9.696  11.828  16.947  0.00  0.00    +0.000 C 
BRANCH  14  17
ATOM     15 CL   UNL     1     -12.085  10.169  21.242  0.00  0.00    +0.000 Cl
ATOM     16 CL   UNL     1     -11.711   7.119  20.173  0.00  0.00    +0.000 Cl
ATOM     17  C   UNL     1     -10.248  10.651  17.716  0.00  0.00    +0.000 A 
ATOM     18  C   UNL     1     -10.869  10.871  18.957  0.00  0.00    +0.000 A 
ATOM     19  C   UNL     1     -10.081   9.332  17.271  0.00  0.00    +0.000 A 
ATOM     20  C   UNL     1     -11.334   9.799  19.730  0.00  0.00    +0.000 A 
ATOM     21  C   UNL     1     -10.549   8.259  18.042  0.00  0.00    +0.000 A 
ATOM     22  C   UNL     1     -11.174   8.491  19.270  0.00  0.00    +0.000 A 
ENDBRANCH  14  17
ENDBRANCH  13  14
ENDBRANCH   1  13
TORSDOF 5
ENDMDL
MODEL 7
REMARK VINA RESULT:      -4.7      2.485      3.813
REMARK  Name = 142505400
REMARK  6 active torsions:
REMARK  status: ('A' for Active; 'I' for Inactive)
REMARK    1  A    between atoms: O_4  and  N_7
REMARK    2  A    between atoms: O_4  and  C_17
REMARK    3  A    between atoms: C_8  and  C_13
REMARK    4  A    between atoms: C_9  and  C_10
REMARK    5  A    between atoms: C_10  and  C_14
REMARK    6  A    between atoms: C_16  and  C_17
REMARK                            x       y       z     vdW  Elec       q    Type
REMARK                         _______ _______ _______ _____ _____    ______ ____
ROOT
ATOM      1  N   UNL     1      -7.284 -10.087  14.849  0.00  0.00    +0.000 NA
ATOM      2  C   UNL     1      -7.291 -11.141  15.599  0.00  0.00    +0.000 C 
ENDROOT
BRANCH   2   6
ATOM      3  S   UNL     1      -9.969 -10.906  19.901  0.00  0.00    +0.000 S 
ATOM      4  N   UNL     1      -8.732 -11.029  17.651  0.00  0.00    +0.000 N 
ATOM      5  N   UNL     1      -7.232 -10.798  19.289  0.00  0.00    +0.000 NA
ATOM      6  C   UNL     1      -7.515 -11.022  17.013  0.00  0.00    +0.000 A 
ATOM      7  C   UNL     1      -6.597 -10.869  18.058  0.00  0.00    +0.000 A 
ATOM      8  C   UNL     1      -8.493 -10.901  18.985  0.00  0.00    +0.000 A 
ATOM      9  C   UNL     1     -10.065 -11.129  17.307  0.00  0.00    +0.000 A 
ATOM     10  C   UNL     1     -10.866 -11.082  18.385  0.00  0.00    +0.000 A 
BRANCH   7  11
ATOM     11  C   UNL     1      -5.110 -10.773  18.011  0.00  0.00    +0.000 C 
ATOM     12  C   UNL     1      -4.438 -11.798  18.913  0.00  0.00    +0.000 C 
ENDBRANCH   7  11
ENDBRANCH   2   6
BRANCH   1  13
ATOM     13  O   UNL     1      -7.033 -10.448  13.512  0.00  0.00    +0.000 OA
BRANCH  13  14
ATOM     14  C   UNL     1      -5.955 -11.393  13.512  0.00  0.00    +0.000 C 
BRANCH  14  17
ATOM     15 CL   UNL     1      -3.611  -9.094   9.496  0.00  0.00    +0.000 Cl
ATOM     16 CL   UNL     1      -0.811  -9.257  11.144  0.00  0.00    +0.000 Cl
ATOM     17  C   UNL     1      -4.679 -10.810  12.953  0.00  0.00    +0.000 A 
ATOM     18  C   UNL     1      -4.683 -10.253  11.664  0.00  0.00    +0.000 A 
ATOM     19  C   UNL     1      -3.464 -10.885  13.650  0.00  0.00    +0.000 A 
ATOM     20  C   UNL     1      -3.506  -9.761  11.087  0.00  0.00    +0.000 A 
ATOM     21  C   UNL     1      -2.285 -10.391  13.074  0.00  0.00    +0.000 A 
ATOM     22  C   UNL     1      -2.305  -9.830  11.795  0.00  0.00    +0.000 A 
ENDBRANCH  14  17
ENDBRANCH  13  14
ENDBRANCH   1  13
TORSDOF 5
ENDMDL
MODEL 8
REMARK VINA RESULT:      -4.7     28.358     29.474
REMARK  Name = 142505400
REMARK  6 active torsions:
REMARK  status: ('A' for Active; 'I' for Inactive)
REMARK    1  A    between atoms: O_4  and  N_7
REMARK    2  A    between atoms: O_4  and  C_17
REMARK    3  A    between atoms: C_8  and  C_13
REMARK    4  A    between atoms: C_9  and  C_10
REMARK    5  A    between atoms: C_10  and  C_14
REMARK    6  A    between atoms: C_16  and  C_17
REMARK                            x       y       z     vdW  Elec       q    Type
REMARK                         _______ _______ _______ _____ _____    ______ ____
ROOT
ATOM      1  N   UNL     1      12.460  12.239  22.152  0.00  0.00    +0.000 NA
ATOM      2  C   UNL     1      11.807  11.635  21.213  0.00  0.00    +0.000 C 
ENDROOT
BRANCH   2   6
ATOM      3  S   UNL     1      11.642   6.567  21.086  0.00  0.00    +0.000 S 
ATOM      4  N   UNL     1      11.629   9.132  21.250  0.00  0.00    +0.000 N 
ATOM      5  N   UNL     1      13.200   8.509  19.791  0.00  0.00    +0.000 NA
ATOM      6  C   UNL     1      12.182  10.309  20.807  0.00  0.00    +0.000 A 
ATOM      7  C   UNL     1      13.165   9.891  19.903  0.00  0.00    +0.000 A 
ATOM      8  C   UNL     1      12.268   8.115  20.608  0.00  0.00    +0.000 A 
ATOM      9  C   UNL     1      10.643   8.735  22.130  0.00  0.00    +0.000 A 
ATOM     10  C   UNL     1      10.514   7.398  22.168  0.00  0.00    +0.000 A 
BRANCH   7  11
ATOM     11  C   UNL     1      14.124  10.701  19.099  0.00  0.00    +0.000 C 
ATOM     12  C   UNL     1      14.487  10.026  17.784  0.00  0.00    +0.000 C 
ENDBRANCH   7  11
ENDBRANCH   2   6
BRANCH   1  13
ATOM     13  O   UNL     1      11.923  13.522  22.365  0.00  0.00    +0.000 OA
BRANCH  13  14
ATOM     14  C   UNL     1      10.614  13.548  21.783  0.00  0.00    +0.000 C 
BRANCH  14  17
ATOM     15 CL   UNL     1      10.153  17.340  25.293  0.00  0.00    +0.000 Cl
ATOM     16 CL   UNL     1       7.123  17.849  24.223  0.00  0.00    +0.000 Cl
ATOM     17  C   UNL     1       9.757  14.657  22.346  0.00  0.00    +0.000 A 
ATOM     18  C   UNL     1      10.249  15.438  23.406  0.00  0.00    +0.000 A 
ATOM     19  C   UNL     1       8.445  14.877  21.901  0.00  0.00    +0.000 A 
ATOM     20  C   UNL     1       9.459  16.432  23.996  0.00  0.00    +0.000 A 
ATOM     21  C   UNL     1       7.655  15.874  22.490  0.00  0.00    +0.000 A 
ATOM     22  C   UNL     1       8.160  16.650  23.536  0.00  0.00    +0.000 A 
ENDBRANCH  14  17
ENDBRANCH  13  14
ENDBRANCH   1  13
TORSDOF 5
ENDMDL
MODEL 9
REMARK VINA RESULT:      -4.6     30.101     31.052
REMARK  Name = 142505400
REMARK  6 active torsions:
REMARK  status: ('A' for Active; 'I' for Inactive)
REMARK    1  A    between atoms: O_4  and  N_7
REMARK    2  A    between atoms: O_4  and  C_17
REMARK    3  A    between atoms: C_8  and  C_13
REMARK    4  A    between atoms: C_9  and  C_10
REMARK    5  A    between atoms: C_10  and  C_14
REMARK    6  A    between atoms: C_16  and  C_17
REMARK                            x       y       z     vdW  Elec       q    Type
REMARK                         _______ _______ _______ _____ _____    ______ ____
ROOT
ATOM      1  N   UNL     1       9.583  16.033  23.048  0.00  0.00    +0.000 NA
ATOM      2  C   UNL     1       9.327  14.875  23.564  0.00  0.00    +0.000 C 
ENDROOT
BRANCH   2   6
ATOM      3  S   UNL     1      12.912  11.341  22.946  0.00  0.00    +0.000 S 
ATOM      4  N   UNL     1      11.057  13.111  23.126  0.00  0.00    +0.000 N 
ATOM      5  N   UNL     1      12.024  12.869  25.125  0.00  0.00    +0.000 NA
ATOM      6  C   UNL     1      10.398  13.997  23.944  0.00  0.00    +0.000 A 
ATOM      7  C   UNL     1      11.016  13.820  25.186  0.00  0.00    +0.000 A 
ATOM      8  C   UNL     1      12.003  12.487  23.882  0.00  0.00    +0.000 A 
ATOM      9  C   UNL     1      11.013  12.712  21.806  0.00  0.00    +0.000 A 
ATOM     10  C   UNL     1      11.934  11.773  21.535  0.00  0.00    +0.000 A 
BRANCH   7  11
ATOM     11  C   UNL     1      10.736  14.486  26.492  0.00  0.00    +0.000 C 
ATOM     12  C   UNL     1      11.294  15.900  26.548  0.00  0.00    +0.000 C 
ENDBRANCH   7  11
ENDBRANCH   2   6
BRANCH   1  13
ATOM     13  O   UNL     1       8.384  16.704  22.746  0.00  0.00    +0.000 OA
BRANCH  13  14
ATOM     14  C   UNL     1       7.324  15.740  22.788  0.00  0.00    +0.000 C 
BRANCH  14  17
ATOM     15 CL   UNL     1       2.200  15.272  23.440  0.00  0.00    +0.000 Cl
ATOM     16 CL   UNL     1       2.248  18.041  25.148  0.00  0.00    +0.000 Cl
ATOM     17  C   UNL     1       6.073  16.290  23.430  0.00  0.00    +0.000 A 
ATOM     18  C   UNL     1       4.847  15.634  23.223  0.00  0.00    +0.000 A 
ATOM     19  C   UNL     1       6.080  17.488  24.158  0.00  0.00    +0.000 A 
ATOM     20  C   UNL     1       3.656  16.150  23.748  0.00  0.00    +0.000 A 
ATOM     21  C   UNL     1       4.888  18.004  24.686  0.00  0.00    +0.000 A 
ATOM     22  C   UNL     1       3.678  17.337  24.482  0.00  0.00    +0.000 A 
ENDBRANCH  14  17
ENDBRANCH  13  14
ENDBRANCH   1  13
TORSDOF 5
ENDMDL
MODEL 10
REMARK VINA RESULT:      -4.6     20.108     22.023
REMARK  Name = 142505400
REMARK  6 active torsions:
REMARK  status: ('A' for Active; 'I' for Inactive)
REMARK    1  A    between atoms: O_4  and  N_7
REMARK    2  A    between atoms: O_4  and  C_17
REMARK    3  A    between atoms: C_8  and  C_13
REMARK    4  A    between atoms: C_9  and  C_10
REMARK    5  A    between atoms: C_10  and  C_14
REMARK    6  A    between atoms: C_16  and  C_17
REMARK                            x       y       z     vdW  Elec       q    Type
REMARK                         _______ _______ _______ _____ _____    ______ ____
ROOT
ATOM      1  N   UNL     1     -12.030   8.315  17.261  0.00  0.00    +0.000 NA
ATOM      2  C   UNL     1     -12.478   8.982  16.248  0.00  0.00    +0.000 C 
ENDROOT
BRANCH   2   6
ATOM      3  S   UNL     1     -16.117   6.509  13.723  0.00  0.00    +0.000 S 
ATOM      4  N   UNL     1     -14.355   7.762  15.115  0.00  0.00    +0.000 N 
ATOM      5  N   UNL     1     -13.508   7.329  13.094  0.00  0.00    +0.000 NA
ATOM      6  C   UNL     1     -13.091   8.298  15.144  0.00  0.00    +0.000 A 
ATOM      7  C   UNL     1     -12.581   8.008  13.873  0.00  0.00    +0.000 A 
ATOM      8  C   UNL     1     -14.537   7.215  13.880  0.00  0.00    +0.000 A 
ATOM      9  C   UNL     1     -15.433   7.642  15.967  0.00  0.00    +0.000 A 
ATOM     10  C   UNL     1     -16.462   6.999  15.388  0.00  0.00    +0.000 A 
BRANCH   7  11
ATOM     11  C   UNL     1     -11.243   8.315  13.292  0.00  0.00    +0.000 C 
ATOM     12  C   UNL     1     -10.187   7.304  13.710  0.00  0.00    +0.000 C 
ENDBRANCH   7  11
ENDBRANCH   2   6
BRANCH   1  13
ATOM     13  O   UNL     1     -11.465   9.192  18.205  0.00  0.00    +0.000 OA
BRANCH  13  14
ATOM     14  C   UNL     1     -11.005   8.405  19.311  0.00  0.00    +0.000 C 
BRANCH  14  17
ATOM     15 CL   UNL     1     -13.786   4.955  22.007  0.00  0.00    +0.000 Cl
ATOM     16 CL   UNL     1     -15.486   7.429  23.261  0.00  0.00    +0.000 Cl
ATOM     17  C   UNL     1     -12.085   8.175  20.341  0.00  0.00    +0.000 A 
ATOM     18  C   UNL     1     -12.415   6.860  20.710  0.00  0.00    +0.000 A 
ATOM     19  C   UNL     1     -12.832   9.233  20.879  0.00  0.00    +0.000 A 
ATOM     20  C   UNL     1     -13.455   6.604  21.613  0.00  0.00    +0.000 A 
ATOM     21  C   UNL     1     -13.871   8.978  21.785  0.00  0.00    +0.000 A 
ATOM     22  C   UNL     1     -14.183   7.667  22.152  0.00  0.00    +0.000 A 
ENDBRANCH  14  17
ENDBRANCH  13  14
ENDBRANCH   1  13
TORSDOF 5
ENDMDL
