REMARK  Name = 142505367
REMARK  5 active torsions:
REMARK  status: ('A' for Active; 'I' for Inactive)
REMARK    1  A    between atoms: O_4  and  N_7
REMARK    2  A    between atoms: O_4  and  C_24
REMARK    3  A    between atoms: C_8  and  C_9
REMARK    4  A    between atoms: C_10  and  C_20
REMARK    5  A    between atoms: C_24  and  C_25
REMARK                            x       y       z     vdW  Elec       q    Type
REMARK                         _______ _______ _______ _____ _____    ______ ____
ROOT
ATOM      1  S   UNL     1      -4.639   2.067  -8.468  0.00  0.00    +0.000 S 
ATOM      2  N   UNL     1      -4.838   1.554  -5.959  0.00  0.00    +0.000 N 
ATOM      3  N   UNL     1      -2.781   1.036  -6.637  0.00  0.00    +0.000 NA
ATOM      4  C   UNL     1      -2.907   0.799  -5.275  0.00  0.00    +0.000 A 
ATOM      5  C   UNL     1      -4.193   1.139  -4.823  0.00  0.00    +0.000 A 
ATOM      6  C   UNL     1      -3.942   1.505  -6.981  0.00  0.00    +0.000 A 
ATOM      7  C   UNL     1      -6.096   2.009  -6.308  0.00  0.00    +0.000 A 
ATOM      8  C   UNL     1      -6.164   2.325  -7.612  0.00  0.00    +0.000 A 
ENDROOT
BRANCH   4   9
ATOM      9  C   UNL     1      -1.825   0.195  -4.481  0.00  0.00    +0.000 A 
ATOM     10  C   UNL     1      -0.439   0.411  -4.772  0.00  0.00    +0.000 A 
ATOM     11  C   UNL     1       0.531  -0.225  -3.948  0.00  0.00    +0.000 A 
ATOM     12  C   UNL     1      -2.174  -0.671  -3.425  0.00  0.00    +0.000 A 
ATOM     13  C   UNL     1       0.065   1.207  -5.836  0.00  0.00    +0.000 A 
ATOM     14  C   UNL     1       0.132  -1.022  -2.869  0.00  0.00    +0.000 A 
ATOM     15  C   UNL     1      -1.210  -1.251  -2.609  0.00  0.00    +0.000 A 
ATOM     16  C   UNL     1       1.903  -0.078  -4.215  0.00  0.00    +0.000 A 
ATOM     17  C   UNL     1       1.432   1.327  -6.104  0.00  0.00    +0.000 A 
ATOM     18  C   UNL     1       2.351   0.682  -5.294  0.00  0.00    +0.000 A 
ENDBRANCH   4   9
BRANCH   5  20
ATOM     19  N   UNL     1      -6.024   0.811  -3.360  0.00  0.00    +0.000 NA
ATOM     20  C   UNL     1      -4.767   1.084  -3.513  0.00  0.00    +0.000 C 
BRANCH  19  21
ATOM     21  O   UNL     1      -6.313   0.734  -1.985  0.00  0.00    +0.000 OA
BRANCH  21  22
ATOM     22  C   UNL     1      -7.432  -0.140  -1.805  0.00  0.00    +0.000 C 
BRANCH  22  25
ATOM     23 CL   UNL     1      -8.129   2.417   2.694  0.00  0.00    +0.000 Cl
ATOM     24 CL   UNL     1      -9.431  -0.307   3.906  0.00  0.00    +0.000 Cl
ATOM     25  C   UNL     1      -7.886  -0.156  -0.363  0.00  0.00    +0.000 A 
ATOM     26  C   UNL     1      -7.815   0.991   0.443  0.00  0.00    +0.000 A 
ATOM     27  C   UNL     1      -8.456  -1.320   0.172  0.00  0.00    +0.000 A 
ATOM     28  C   UNL     1      -8.276   0.967   1.765  0.00  0.00    +0.000 A 
ATOM     29  C   UNL     1      -8.923  -1.345   1.489  0.00  0.00    +0.000 A 
ATOM     30  C   UNL     1      -8.833  -0.204   2.289  0.00  0.00    +0.000 A 
ENDBRANCH  22  25
ENDBRANCH  21  22
ENDBRANCH  19  21
ENDBRANCH   5  20
TORSDOF 5
