MODEL 1
REMARK VINA RESULT:      -7.2      0.000      0.000
REMARK  Name = 142505419
REMARK  5 active torsions:
REMARK  status: ('A' for Active; 'I' for Inactive)
REMARK    1  A    between atoms: O_4  and  N_7
REMARK    2  A    between atoms: O_4  and  C_24
REMARK    3  A    between atoms: C_8  and  C_9
REMARK    4  A    between atoms: C_10  and  C_18
REMARK    5  A    between atoms: C_24  and  C_25
REMARK                            x       y       z     vdW  Elec       q    Type
REMARK                         _______ _______ _______ _____ _____    ______ ____
ROOT
ATOM      1  S   UNL     1     -14.445   6.835 -34.090  0.00  0.00    +0.000 S 
ATOM      2  N   UNL     1     -12.167   7.873 -33.531  0.00  0.00    +0.000 N 
ATOM      3  N   UNL     1     -11.843   6.094 -34.839  0.00  0.00    +0.000 NA
ATOM      4  C   UNL     1     -10.626   6.678 -34.501  0.00  0.00    +0.000 A 
ATOM      5  C   UNL     1     -10.805   7.791 -33.668  0.00  0.00    +0.000 A 
ATOM      6  C   UNL     1     -12.716   6.852 -34.241  0.00  0.00    +0.000 A 
ATOM      7  C   UNL     1     -13.065   8.658 -32.838  0.00  0.00    +0.000 A 
ATOM      8  C   UNL     1     -14.330   8.244 -33.023  0.00  0.00    +0.000 A 
ENDROOT
BRANCH   4   9
ATOM      9  C   UNL     1      -9.363   6.121 -34.973  0.00  0.00    +0.000 A 
ATOM     10  C   UNL     1      -7.399   6.312 -36.423  0.00  0.00    +0.000 A 
ATOM     11  C   UNL     1      -8.601   6.834 -35.909  0.00  0.00    +0.000 A 
ATOM     12  C   UNL     1      -6.954   5.043 -35.990  0.00  0.00    +0.000 A 
ATOM     13  C   UNL     1      -8.878   4.890 -34.517  0.00  0.00    +0.000 A 
ATOM     14  C   UNL     1      -7.705   4.343 -35.039  0.00  0.00    +0.000 A 
ATOM     15  C   UNL     1      -6.628   7.018 -37.363  0.00  0.00    +0.000 A 
ATOM     16  C   UNL     1      -5.766   4.505 -36.508  0.00  0.00    +0.000 A 
ATOM     17  C   UNL     1      -5.442   6.476 -37.861  0.00  0.00    +0.000 A 
ATOM     18  C   UNL     1      -5.012   5.223 -37.438  0.00  0.00    +0.000 A 
ENDBRANCH   4   9
BRANCH   5  20
ATOM     19  N   UNL     1      -9.182   8.199 -32.014  0.00  0.00    +0.000 NA
ATOM     20  C   UNL     1      -9.872   8.652 -33.004  0.00  0.00    +0.000 C 
BRANCH  19  21
ATOM     21  O   UNL     1      -8.329   9.185 -31.509  0.00  0.00    +0.000 OA
BRANCH  21  22
ATOM     22  C   UNL     1      -8.387   9.099 -30.082  0.00  0.00    +0.000 C 
BRANCH  22  25
ATOM     23 CL   UNL     1      -4.996   8.275 -26.225  0.00  0.00    +0.000 Cl
ATOM     24 CL   UNL     1      -2.774   9.858 -27.999  0.00  0.00    +0.000 Cl
ATOM     25  C   UNL     1      -7.010   9.321 -29.519  0.00  0.00    +0.000 A 
ATOM     26  C   UNL     1      -6.654   8.789 -28.271  0.00  0.00    +0.000 A 
ATOM     27  C   UNL     1      -6.060  10.045 -30.249  0.00  0.00    +0.000 A 
ATOM     28  C   UNL     1      -5.358   8.957 -27.772  0.00  0.00    +0.000 A 
ATOM     29  C   UNL     1      -4.765  10.212 -29.755  0.00  0.00    +0.000 A 
ATOM     30  C   UNL     1      -4.407   9.656 -28.523  0.00  0.00    +0.000 A 
ENDBRANCH  22  25
ENDBRANCH  21  22
ENDBRANCH  19  21
ENDBRANCH   5  20
TORSDOF 5
ENDMDL
MODEL 2
REMARK VINA RESULT:      -7.2     24.014     26.352
REMARK  Name = 142505419
REMARK  5 active torsions:
REMARK  status: ('A' for Active; 'I' for Inactive)
REMARK    1  A    between atoms: O_4  and  N_7
REMARK    2  A    between atoms: O_4  and  C_24
REMARK    3  A    between atoms: C_8  and  C_9
REMARK    4  A    between atoms: C_10  and  C_18
REMARK    5  A    between atoms: C_24  and  C_25
REMARK                            x       y       z     vdW  Elec       q    Type
REMARK                         _______ _______ _______ _____ _____    ______ ____
ROOT
ATOM      1  S   UNL     1     -23.818   8.023 -48.865  0.00  0.00    +0.000 S 
ATOM      2  N   UNL     1     -23.990   9.225 -51.125  0.00  0.00    +0.000 N 
ATOM      3  N   UNL     1     -22.791   7.362 -51.394  0.00  0.00    +0.000 NA
ATOM      4  C   UNL     1     -22.895   8.052 -52.598  0.00  0.00    +0.000 A 
ATOM      5  C   UNL     1     -23.634   9.234 -52.449  0.00  0.00    +0.000 A 
ATOM      6  C   UNL     1     -23.467   8.103 -50.564  0.00  0.00    +0.000 A 
ATOM      7  C   UNL     1     -24.661  10.060 -50.256  0.00  0.00    +0.000 A 
ATOM      8  C   UNL     1     -24.665   9.572 -49.004  0.00  0.00    +0.000 A 
ENDROOT
BRANCH   4   9
ATOM      9  C   UNL     1     -22.260   7.554 -53.812  0.00  0.00    +0.000 A 
ATOM     10  C   UNL     1     -20.395   7.653 -55.396  0.00  0.00    +0.000 A 
ATOM     11  C   UNL     1     -21.020   8.074 -54.208  0.00  0.00    +0.000 A 
ATOM     12  C   UNL     1     -21.031   6.687 -56.208  0.00  0.00    +0.000 A 
ATOM     13  C   UNL     1     -22.849   6.561 -54.603  0.00  0.00    +0.000 A 
ATOM     14  C   UNL     1     -22.259   6.153 -55.801  0.00  0.00    +0.000 A 
ATOM     15  C   UNL     1     -19.152   8.169 -55.802  0.00  0.00    +0.000 A 
ATOM     16  C   UNL     1     -20.425   6.272 -57.404  0.00  0.00    +0.000 A 
ATOM     17  C   UNL     1     -18.555   7.738 -56.987  0.00  0.00    +0.000 A 
ATOM     18  C   UNL     1     -19.189   6.794 -57.788  0.00  0.00    +0.000 A 
ENDBRANCH   4   9
BRANCH   5  20
ATOM     19  N   UNL     1     -23.155  11.318 -53.431  0.00  0.00    +0.000 NA
ATOM     20  C   UNL     1     -23.938  10.297 -53.361  0.00  0.00    +0.000 C 
BRANCH  19  21
ATOM     21  O   UNL     1     -23.616  12.236 -54.379  0.00  0.00    +0.000 OA
BRANCH  21  22
ATOM     22  C   UNL     1     -22.463  12.806 -55.006  0.00  0.00    +0.000 C 
BRANCH  22  25
ATOM     23 CL   UNL     1     -18.710  11.134 -58.196  0.00  0.00    +0.000 Cl
ATOM     24 CL   UNL     1     -20.914   9.174 -59.570  0.00  0.00    +0.000 Cl
ATOM     25  C   UNL     1     -22.065  11.949 -56.177  0.00  0.00    +0.000 A 
ATOM     26  C   UNL     1     -20.739  11.932 -56.632  0.00  0.00    +0.000 A 
ATOM     27  C   UNL     1     -23.015  11.139 -56.811  0.00  0.00    +0.000 A 
ATOM     28  C   UNL     1     -20.363  11.097 -57.689  0.00  0.00    +0.000 A 
ATOM     29  C   UNL     1     -22.642  10.303 -57.864  0.00  0.00    +0.000 A 
ATOM     30  C   UNL     1     -21.313  10.270 -58.296  0.00  0.00    +0.000 A 
ENDBRANCH  22  25
ENDBRANCH  21  22
ENDBRANCH  19  21
ENDBRANCH   5  20
TORSDOF 5
ENDMDL
MODEL 3
REMARK VINA RESULT:      -7.1     21.143     23.863
REMARK  Name = 142505419
REMARK  5 active torsions:
REMARK  status: ('A' for Active; 'I' for Inactive)
REMARK    1  A    between atoms: O_4  and  N_7
REMARK    2  A    between atoms: O_4  and  C_24
REMARK    3  A    between atoms: C_8  and  C_9
REMARK    4  A    between atoms: C_10  and  C_18
REMARK    5  A    between atoms: C_24  and  C_25
REMARK                            x       y       z     vdW  Elec       q    Type
REMARK                         _______ _______ _______ _____ _____    ______ ____
ROOT
ATOM      1  S   UNL     1      -3.804   6.667 -54.915  0.00  0.00    +0.000 S 
ATOM      2  N   UNL     1      -3.727   4.225 -55.697  0.00  0.00    +0.000 N 
ATOM      3  N   UNL     1      -4.835   4.324 -53.763  0.00  0.00    +0.000 NA
ATOM      4  C   UNL     1      -4.759   3.009 -54.214  0.00  0.00    +0.000 A 
ATOM      5  C   UNL     1      -4.055   2.922 -55.423  0.00  0.00    +0.000 A 
ATOM      6  C   UNL     1      -4.214   4.995 -54.688  0.00  0.00    +0.000 A 
ATOM      7  C   UNL     1      -3.012   4.903 -56.663  0.00  0.00    +0.000 A 
ATOM      8  C   UNL     1      -2.951   6.220 -56.402  0.00  0.00    +0.000 A 
ENDROOT
BRANCH   4   9
ATOM      9  C   UNL     1      -5.342   1.912 -53.450  0.00  0.00    +0.000 A 
ATOM     10  C   UNL     1      -6.973   0.091 -53.304  0.00  0.00    +0.000 A 
ATOM     11  C   UNL     1      -6.354   1.130 -54.024  0.00  0.00    +0.000 A 
ATOM     12  C   UNL     1      -6.568  -0.167 -51.976  0.00  0.00    +0.000 A 
ATOM     13  C   UNL     1      -4.919   1.607 -52.151  0.00  0.00    +0.000 A 
ATOM     14  C   UNL     1      -5.543   0.600 -51.411  0.00  0.00    +0.000 A 
ATOM     15  C   UNL     1      -7.989  -0.698 -53.871  0.00  0.00    +0.000 A 
ATOM     16  C   UNL     1      -7.190  -1.190 -51.243  0.00  0.00    +0.000 A 
ATOM     17  C   UNL     1      -8.590  -1.720 -53.134  0.00  0.00    +0.000 A 
ATOM     18  C   UNL     1      -8.195  -1.965 -51.824  0.00  0.00    +0.000 A 
ENDBRANCH   4   9
BRANCH   5  20
ATOM     19  N   UNL     1      -4.524   1.190 -56.945  0.00  0.00    +0.000 NA
ATOM     20  C   UNL     1      -3.652   1.802 -56.220  0.00  0.00    +0.000 C 
BRANCH  19  21
ATOM     21  O   UNL     1      -3.936   0.135 -57.649  0.00  0.00    +0.000 OA
BRANCH  21  22
ATOM     22  C   UNL     1      -3.044  -0.526 -56.746  0.00  0.00    +0.000 C 
BRANCH  22  25
ATOM     23 CL   UNL     1      -3.995  -2.665 -52.101  0.00  0.00    +0.000 Cl
ATOM     24 CL   UNL     1      -6.355  -4.403 -53.516  0.00  0.00    +0.000 Cl
ATOM     25  C   UNL     1      -3.820  -1.524 -55.931  0.00  0.00    +0.000 A 
ATOM     26  C   UNL     1      -3.587  -1.658 -54.555  0.00  0.00    +0.000 A 
ATOM     27  C   UNL     1      -4.803  -2.315 -56.537  0.00  0.00    +0.000 A 
ATOM     28  C   UNL     1      -4.344  -2.553 -53.791  0.00  0.00    +0.000 A 
ATOM     29  C   UNL     1      -5.562  -3.207 -55.777  0.00  0.00    +0.000 A 
ATOM     30  C   UNL     1      -5.344  -3.317 -54.400  0.00  0.00    +0.000 A 
ENDBRANCH  22  25
ENDBRANCH  21  22
ENDBRANCH  19  21
ENDBRANCH   5  20
TORSDOF 5
ENDMDL
MODEL 4
REMARK VINA RESULT:      -6.7      5.897      8.438
REMARK  Name = 142505419
REMARK  5 active torsions:
REMARK  status: ('A' for Active; 'I' for Inactive)
REMARK    1  A    between atoms: O_4  and  N_7
REMARK    2  A    between atoms: O_4  and  C_24
REMARK    3  A    between atoms: C_8  and  C_9
REMARK    4  A    between atoms: C_10  and  C_18
REMARK    5  A    between atoms: C_24  and  C_25
REMARK                            x       y       z     vdW  Elec       q    Type
REMARK                         _______ _______ _______ _____ _____    ______ ____
ROOT
ATOM      1  S   UNL     1      -5.165   1.336 -35.645  0.00  0.00    +0.000 S 
ATOM      2  N   UNL     1      -7.663   1.374 -35.059  0.00  0.00    +0.000 N 
ATOM      3  N   UNL     1      -7.106   3.341 -35.955  0.00  0.00    +0.000 NA
ATOM      4  C   UNL     1      -8.454   3.328 -35.609  0.00  0.00    +0.000 A 
ATOM      5  C   UNL     1      -8.823   2.105 -35.031  0.00  0.00    +0.000 A 
ATOM      6  C   UNL     1      -6.696   2.154 -35.612  0.00  0.00    +0.000 A 
ATOM      7  C   UNL     1      -7.243   0.132 -34.631  0.00  0.00    +0.000 A 
ATOM      8  C   UNL     1      -5.934  -0.057 -34.866  0.00  0.00    +0.000 A 
ENDROOT
BRANCH   4   9
ATOM      9  C   UNL     1      -9.302   4.494 -35.827  0.00  0.00    +0.000 A 
ATOM     10  C   UNL     1      -9.969   6.755 -35.165  0.00  0.00    +0.000 A 
ATOM     11  C   UNL     1      -9.141   5.627 -35.017  0.00  0.00    +0.000 A 
ATOM     12  C   UNL     1     -10.984   6.745 -36.148  0.00  0.00    +0.000 A 
ATOM     13  C   UNL     1     -10.279   4.523 -36.829  0.00  0.00    +0.000 A 
ATOM     14  C   UNL     1     -11.129   5.622 -36.970  0.00  0.00    +0.000 A 
ATOM     15  C   UNL     1      -9.817   7.896 -34.358  0.00  0.00    +0.000 A 
ATOM     16  C   UNL     1     -11.826   7.858 -36.294  0.00  0.00    +0.000 A 
ATOM     17  C   UNL     1     -10.654   9.001 -34.522  0.00  0.00    +0.000 A 
ATOM     18  C   UNL     1     -11.657   8.983 -35.484  0.00  0.00    +0.000 A 
ENDBRANCH   4   9
BRANCH   5  20
ATOM     19  N   UNL     1     -10.422   2.109 -33.306  0.00  0.00    +0.000 NA
ATOM     20  C   UNL     1     -10.051   1.649 -34.452  0.00  0.00    +0.000 C 
BRANCH  19  21
ATOM     21  O   UNL     1     -11.644   1.551 -32.917  0.00  0.00    +0.000 OA
BRANCH  21  22
ATOM     22  C   UNL     1     -12.583   1.829 -33.961  0.00  0.00    +0.000 C 
BRANCH  22  25
ATOM     23 CL   UNL     1     -16.697   4.112 -31.745  0.00  0.00    +0.000 Cl
ATOM     24 CL   UNL     1     -15.364   6.982 -32.501  0.00  0.00    +0.000 Cl
ATOM     25  C   UNL     1     -13.320   3.099 -33.633  0.00  0.00    +0.000 A 
ATOM     26  C   UNL     1     -14.539   3.059 -32.941  0.00  0.00    +0.000 A 
ATOM     27  C   UNL     1     -12.783   4.338 -33.999  0.00  0.00    +0.000 A 
ATOM     28  C   UNL     1     -15.198   4.243 -32.595  0.00  0.00    +0.000 A 
ATOM     29  C   UNL     1     -13.437   5.522 -33.653  0.00  0.00    +0.000 A 
ATOM     30  C   UNL     1     -14.638   5.478 -32.939  0.00  0.00    +0.000 A 
ENDBRANCH  22  25
ENDBRANCH  21  22
ENDBRANCH  19  21
ENDBRANCH   5  20
TORSDOF 5
ENDMDL
MODEL 5
REMARK VINA RESULT:      -6.6      1.472      2.069
REMARK  Name = 142505419
REMARK  5 active torsions:
REMARK  status: ('A' for Active; 'I' for Inactive)
REMARK    1  A    between atoms: O_4  and  N_7
REMARK    2  A    between atoms: O_4  and  C_24
REMARK    3  A    between atoms: C_8  and  C_9
REMARK    4  A    between atoms: C_10  and  C_18
REMARK    5  A    between atoms: C_24  and  C_25
REMARK                            x       y       z     vdW  Elec       q    Type
REMARK                         _______ _______ _______ _____ _____    ______ ____
ROOT
ATOM      1  S   UNL     1     -15.411   8.435 -33.964  0.00  0.00    +0.000 S 
ATOM      2  N   UNL     1     -12.910   8.347 -33.400  0.00  0.00    +0.000 N 
ATOM      3  N   UNL     1     -13.301   7.002 -35.136  0.00  0.00    +0.000 NA
ATOM      4  C   UNL     1     -11.953   6.970 -34.790  0.00  0.00    +0.000 A 
ATOM      5  C   UNL     1     -11.687   7.799 -33.691  0.00  0.00    +0.000 A 
ATOM      6  C   UNL     1     -13.811   7.840 -34.283  0.00  0.00    +0.000 A 
ATOM      7  C   UNL     1     -13.433   9.194 -32.445  0.00  0.00    +0.000 A 
ATOM      8  C   UNL     1     -14.759   9.353 -32.596  0.00  0.00    +0.000 A 
ENDROOT
BRANCH   4   9
ATOM      9  C   UNL     1     -11.006   6.130 -35.513  0.00  0.00    +0.000 A 
ATOM     10  C   UNL     1      -8.713   5.731 -36.275  0.00  0.00    +0.000 A 
ATOM     11  C   UNL     1      -9.651   6.490 -35.552  0.00  0.00    +0.000 A 
ATOM     12  C   UNL     1      -9.145   4.584 -36.978  0.00  0.00    +0.000 A 
ATOM     13  C   UNL     1     -11.404   4.962 -36.173  0.00  0.00    +0.000 A 
ATOM     14  C   UNL     1     -10.493   4.214 -36.922  0.00  0.00    +0.000 A 
ATOM     15  C   UNL     1      -7.353   6.084 -36.321  0.00  0.00    +0.000 A 
ATOM     16  C   UNL     1      -8.221   3.829 -37.717  0.00  0.00    +0.000 A 
ATOM     17  C   UNL     1      -6.443   5.316 -37.049  0.00  0.00    +0.000 A 
ATOM     18  C   UNL     1      -6.873   4.194 -37.747  0.00  0.00    +0.000 A 
ENDBRANCH   4   9
BRANCH   5  20
ATOM     19  N   UNL     1      -9.912   9.181 -33.001  0.00  0.00    +0.000 NA
ATOM     20  C   UNL     1     -10.494   8.033 -32.933  0.00  0.00    +0.000 C 
BRANCH  19  21
ATOM     21  O   UNL     1      -8.775   9.212 -32.188  0.00  0.00    +0.000 OA
BRANCH  21  22
ATOM     22  C   UNL     1      -9.232   9.270 -30.832  0.00  0.00    +0.000 C 
BRANCH  22  25
ATOM     23 CL   UNL     1      -4.222  10.225 -29.811  0.00  0.00    +0.000 Cl
ATOM     24 CL   UNL     1      -4.630   8.688 -26.971  0.00  0.00    +0.000 Cl
ATOM     25  C   UNL     1      -8.057   9.092 -29.910  0.00  0.00    +0.000 A 
ATOM     26  C   UNL     1      -6.808   9.645 -30.229  0.00  0.00    +0.000 A 
ATOM     27  C   UNL     1      -8.205   8.388 -28.709  0.00  0.00    +0.000 A 
ATOM     28  C   UNL     1      -5.730   9.519 -29.346  0.00  0.00    +0.000 A 
ATOM     29  C   UNL     1      -7.132   8.263 -27.825  0.00  0.00    +0.000 A 
ATOM     30  C   UNL     1      -5.897   8.840 -28.135  0.00  0.00    +0.000 A 
ENDBRANCH  22  25
ENDBRANCH  21  22
ENDBRANCH  19  21
ENDBRANCH   5  20
TORSDOF 5
ENDMDL
MODEL 6
REMARK VINA RESULT:      -6.4     24.685     25.868
REMARK  Name = 142505419
REMARK  5 active torsions:
REMARK  status: ('A' for Active; 'I' for Inactive)
REMARK    1  A    between atoms: O_4  and  N_7
REMARK    2  A    between atoms: O_4  and  C_24
REMARK    3  A    between atoms: C_8  and  C_9
REMARK    4  A    between atoms: C_10  and  C_18
REMARK    5  A    between atoms: C_24  and  C_25
REMARK                            x       y       z     vdW  Elec       q    Type
REMARK                         _______ _______ _______ _____ _____    ______ ____
ROOT
ATOM      1  S   UNL     1     -25.864  10.941 -51.202  0.00  0.00    +0.000 S 
ATOM      2  N   UNL     1     -24.912   8.573 -50.931  0.00  0.00    +0.000 N 
ATOM      3  N   UNL     1     -24.218   9.406 -52.881  0.00  0.00    +0.000 NA
ATOM      4  C   UNL     1     -23.733   8.114 -52.703  0.00  0.00    +0.000 A 
ATOM      5  C   UNL     1     -24.168   7.566 -51.489  0.00  0.00    +0.000 A 
ATOM      6  C   UNL     1     -24.901   9.623 -51.795  0.00  0.00    +0.000 A 
ATOM      7  C   UNL     1     -25.677   8.752 -49.797  0.00  0.00    +0.000 A 
ATOM      8  C   UNL     1     -26.260   9.963 -49.778  0.00  0.00    +0.000 A 
ENDROOT
BRANCH   4   9
ATOM      9  C   UNL     1     -22.905   7.471 -53.717  0.00  0.00    +0.000 A 
ATOM     10  C   UNL     1     -20.863   7.475 -55.069  0.00  0.00    +0.000 A 
ATOM     11  C   UNL     1     -21.671   8.040 -54.065  0.00  0.00    +0.000 A 
ATOM     12  C   UNL     1     -21.304   6.315 -55.742  0.00  0.00    +0.000 A 
ATOM     13  C   UNL     1     -23.300   6.292 -54.359  0.00  0.00    +0.000 A 
ATOM     14  C   UNL     1     -22.525   5.736 -55.379  0.00  0.00    +0.000 A 
ATOM     15  C   UNL     1     -19.625   8.038 -55.425  0.00  0.00    +0.000 A 
ATOM     16  C   UNL     1     -20.514   5.753 -56.757  0.00  0.00    +0.000 A 
ATOM     17  C   UNL     1     -18.843   7.462 -56.428  0.00  0.00    +0.000 A 
ATOM     18  C   UNL     1     -19.285   6.325 -57.094  0.00  0.00    +0.000 A 
ENDBRANCH   4   9
BRANCH   5  20
ATOM     19  N   UNL     1     -24.870   5.344 -51.161  0.00  0.00    +0.000 NA
ATOM     20  C   UNL     1     -24.004   6.266 -50.910  0.00  0.00    +0.000 C 
BRANCH  19  21
ATOM     21  O   UNL     1     -24.531   4.153 -50.513  0.00  0.00    +0.000 OA
BRANCH  21  22
ATOM     22  C   UNL     1     -25.611   3.237 -50.728  0.00  0.00    +0.000 C 
BRANCH  22  25
ATOM     23 CL   UNL     1     -25.324  -0.326 -54.505  0.00  0.00    +0.000 Cl
ATOM     24 CL   UNL     1     -23.164  -1.926 -52.670  0.00  0.00    +0.000 Cl
ATOM     25  C   UNL     1     -25.055   1.926 -51.211  0.00  0.00    +0.000 A 
ATOM     26  C   UNL     1     -25.401   1.425 -52.473  0.00  0.00    +0.000 A 
ATOM     27  C   UNL     1     -24.164   1.202 -50.409  0.00  0.00    +0.000 A 
ATOM     28  C   UNL     1     -24.845   0.229 -52.939  0.00  0.00    +0.000 A 
ATOM     29  C   UNL     1     -23.605   0.009 -50.872  0.00  0.00    +0.000 A 
ATOM     30  C   UNL     1     -23.933  -0.472 -52.143  0.00  0.00    +0.000 A 
ENDBRANCH  22  25
ENDBRANCH  21  22
ENDBRANCH  19  21
ENDBRANCH   5  20
TORSDOF 5
ENDMDL
MODEL 7
REMARK VINA RESULT:      -6.4      5.692      8.328
REMARK  Name = 142505419
REMARK  5 active torsions:
REMARK  status: ('A' for Active; 'I' for Inactive)
REMARK    1  A    between atoms: O_4  and  N_7
REMARK    2  A    between atoms: O_4  and  C_24
REMARK    3  A    between atoms: C_8  and  C_9
REMARK    4  A    between atoms: C_10  and  C_18
REMARK    5  A    between atoms: C_24  and  C_25
REMARK                            x       y       z     vdW  Elec       q    Type
REMARK                         _______ _______ _______ _____ _____    ______ ____
ROOT
ATOM      1  S   UNL     1     -10.223  10.267 -30.519  0.00  0.00    +0.000 S 
ATOM      2  N   UNL     1     -11.467   9.509 -32.631  0.00  0.00    +0.000 N 
ATOM      3  N   UNL     1      -9.587   8.322 -32.441  0.00  0.00    +0.000 NA
ATOM      4  C   UNL     1     -10.285   7.949 -33.586  0.00  0.00    +0.000 A 
ATOM      5  C   UNL     1     -11.464   8.692 -33.732  0.00  0.00    +0.000 A 
ATOM      6  C   UNL     1     -10.342   9.242 -31.915  0.00  0.00    +0.000 A 
ATOM      7  C   UNL     1     -12.258  10.522 -32.129  0.00  0.00    +0.000 A 
ATOM      8  C   UNL     1     -11.741  11.042 -31.003  0.00  0.00    +0.000 A 
ENDROOT
BRANCH   4   9
ATOM      9  C   UNL     1      -9.769   6.923 -34.485  0.00  0.00    +0.000 A 
ATOM     10  C   UNL     1      -8.103   6.230 -36.140  0.00  0.00    +0.000 A 
ATOM     11  C   UNL     1      -8.608   7.175 -35.229  0.00  0.00    +0.000 A 
ATOM     12  C   UNL     1      -8.781   5.003 -36.312  0.00  0.00    +0.000 A 
ATOM     13  C   UNL     1     -10.398   5.681 -34.631  0.00  0.00    +0.000 A 
ATOM     14  C   UNL     1      -9.929   4.743 -35.554  0.00  0.00    +0.000 A 
ATOM     15  C   UNL     1      -6.939   6.473 -36.891  0.00  0.00    +0.000 A 
ATOM     16  C   UNL     1      -8.297   4.059 -37.231  0.00  0.00    +0.000 A 
ATOM     17  C   UNL     1      -6.462   5.521 -37.792  0.00  0.00    +0.000 A 
ATOM     18  C   UNL     1      -7.138   4.318 -37.965  0.00  0.00    +0.000 A 
ENDBRANCH   4   9
BRANCH   5  20
ATOM     19  N   UNL     1     -13.632   8.262 -34.541  0.00  0.00    +0.000 NA
ATOM     20  C   UNL     1     -12.452   8.729 -34.769  0.00  0.00    +0.000 C 
BRANCH  19  21
ATOM     21  O   UNL     1     -14.448   8.396 -35.668  0.00  0.00    +0.000 OA
BRANCH  21  22
ATOM     22  C   UNL     1     -15.282   7.234 -35.721  0.00  0.00    +0.000 C 
BRANCH  22  25
ATOM     23 CL   UNL     1     -19.967   9.491 -35.855  0.00  0.00    +0.000 Cl
ATOM     24 CL   UNL     1     -20.546   8.190 -32.928  0.00  0.00    +0.000 Cl
ATOM     25  C   UNL     1     -16.581   7.530 -35.022  0.00  0.00    +0.000 A 
ATOM     26  C   UNL     1     -17.572   8.298 -35.651  0.00  0.00    +0.000 A 
ATOM     27  C   UNL     1     -16.823   7.019 -33.742  0.00  0.00    +0.000 A 
ATOM     28  C   UNL     1     -18.797   8.531 -35.018  0.00  0.00    +0.000 A 
ATOM     29  C   UNL     1     -18.046   7.248 -33.108  0.00  0.00    +0.000 A 
ATOM     30  C   UNL     1     -19.040   7.991 -33.751  0.00  0.00    +0.000 A 
ENDBRANCH  22  25
ENDBRANCH  21  22
ENDBRANCH  19  21
ENDBRANCH   5  20
TORSDOF 5
ENDMDL
MODEL 8
REMARK VINA RESULT:      -6.0      2.943      3.736
REMARK  Name = 142505419
REMARK  5 active torsions:
REMARK  status: ('A' for Active; 'I' for Inactive)
REMARK    1  A    between atoms: O_4  and  N_7
REMARK    2  A    between atoms: O_4  and  C_24
REMARK    3  A    between atoms: C_8  and  C_9
REMARK    4  A    between atoms: C_10  and  C_18
REMARK    5  A    between atoms: C_24  and  C_25
REMARK                            x       y       z     vdW  Elec       q    Type
REMARK                         _______ _______ _______ _____ _____    ______ ____
ROOT
ATOM      1  S   UNL     1     -14.895  10.897 -30.520  0.00  0.00    +0.000 S 
ATOM      2  N   UNL     1     -12.546   9.940 -30.905  0.00  0.00    +0.000 N 
ATOM      3  N   UNL     1     -13.863   9.307 -32.592  0.00  0.00    +0.000 NA
ATOM      4  C   UNL     1     -12.580   8.795 -32.757  0.00  0.00    +0.000 A 
ATOM      5  C   UNL     1     -11.738   9.169 -31.700  0.00  0.00    +0.000 A 
ATOM      6  C   UNL     1     -13.776   9.982 -31.483  0.00  0.00    +0.000 A 
ATOM      7  C   UNL     1     -12.440  10.598 -29.697  0.00  0.00    +0.000 A 
ATOM      8  C   UNL     1     -13.604  11.166 -29.338  0.00  0.00    +0.000 A 
ENDROOT
BRANCH   4   9
ATOM      9  C   UNL     1     -12.242   7.956 -33.901  0.00  0.00    +0.000 A 
ATOM     10  C   UNL     1     -11.741   5.732 -34.796  0.00  0.00    +0.000 A 
ATOM     11  C   UNL     1     -12.109   6.571 -33.728  0.00  0.00    +0.000 A 
ATOM     12  C   UNL     1     -11.498   6.297 -36.068  0.00  0.00    +0.000 A 
ATOM     13  C   UNL     1     -12.047   8.489 -35.180  0.00  0.00    +0.000 A 
ATOM     14  C   UNL     1     -11.651   7.677 -36.244  0.00  0.00    +0.000 A 
ATOM     15  C   UNL     1     -11.605   4.342 -34.633  0.00  0.00    +0.000 A 
ATOM     16  C   UNL     1     -11.114   5.472 -37.136  0.00  0.00    +0.000 A 
ATOM     17  C   UNL     1     -11.234   3.532 -35.707  0.00  0.00    +0.000 A 
ATOM     18  C   UNL     1     -10.987   4.094 -36.955  0.00  0.00    +0.000 A 
ENDBRANCH   4   9
BRANCH   5  20
ATOM     19  N   UNL     1      -9.423   9.574 -31.816  0.00  0.00    +0.000 NA
ATOM     20  C   UNL     1     -10.382   8.828 -31.387  0.00  0.00    +0.000 C 
BRANCH  19  21
ATOM     21  O   UNL     1      -8.183   9.080 -31.400  0.00  0.00    +0.000 OA
BRANCH  21  22
ATOM     22  C   UNL     1      -8.288   8.810 -29.999  0.00  0.00    +0.000 C 
BRANCH  22  25
ATOM     23 CL   UNL     1      -5.264   8.395 -25.787  0.00  0.00    +0.000 Cl
ATOM     24 CL   UNL     1      -2.856   9.718 -27.531  0.00  0.00    +0.000 Cl
ATOM     25  C   UNL     1      -6.959   9.074 -29.346  0.00  0.00    +0.000 A 
ATOM     26  C   UNL     1      -6.726   8.690 -28.018  0.00  0.00    +0.000 A 
ATOM     27  C   UNL     1      -5.930   9.690 -30.069  0.00  0.00    +0.000 A 
ATOM     28  C   UNL     1      -5.473   8.894 -27.429  0.00  0.00    +0.000 A 
ATOM     29  C   UNL     1      -4.678   9.893 -29.485  0.00  0.00    +0.000 A 
ATOM     30  C   UNL     1      -4.443   9.482 -28.170  0.00  0.00    +0.000 A 
ENDBRANCH  22  25
ENDBRANCH  21  22
ENDBRANCH  19  21
ENDBRANCH   5  20
TORSDOF 5
ENDMDL
MODEL 9
REMARK VINA RESULT:      -6.0      4.006      4.927
REMARK  Name = 142505419
REMARK  5 active torsions:
REMARK  status: ('A' for Active; 'I' for Inactive)
REMARK    1  A    between atoms: O_4  and  N_7
REMARK    2  A    between atoms: O_4  and  C_24
REMARK    3  A    between atoms: C_8  and  C_9
REMARK    4  A    between atoms: C_10  and  C_18
REMARK    5  A    between atoms: C_24  and  C_25
REMARK                            x       y       z     vdW  Elec       q    Type
REMARK                         _______ _______ _______ _____ _____    ______ ____
ROOT
ATOM      1  S   UNL     1     -15.116   3.525 -32.382  0.00  0.00    +0.000 S 
ATOM      2  N   UNL     1     -13.908   5.523 -33.445  0.00  0.00    +0.000 N 
ATOM      3  N   UNL     1     -12.831   3.652 -34.008  0.00  0.00    +0.000 NA
ATOM      4  C   UNL     1     -12.196   4.762 -34.555  0.00  0.00    +0.000 A 
ATOM      5  C   UNL     1     -12.849   5.952 -34.203  0.00  0.00    +0.000 A 
ATOM      6  C   UNL     1     -13.841   4.167 -33.370  0.00  0.00    +0.000 A 
ATOM      7  C   UNL     1     -14.935   6.103 -32.728  0.00  0.00    +0.000 A 
ATOM      8  C   UNL     1     -15.680   5.180 -32.096  0.00  0.00    +0.000 A 
ENDROOT
BRANCH   4   9
ATOM      9  C   UNL     1     -10.988   4.623 -35.360  0.00  0.00    +0.000 A 
ATOM     10  C   UNL     1      -8.568   4.927 -35.582  0.00  0.00    +0.000 A 
ATOM     11  C   UNL     1      -9.751   5.004 -34.823  0.00  0.00    +0.000 A 
ATOM     12  C   UNL     1      -8.630   4.458 -36.913  0.00  0.00    +0.000 A 
ATOM     13  C   UNL     1     -11.020   4.112 -36.663  0.00  0.00    +0.000 A 
ATOM     14  C   UNL     1      -9.862   4.057 -37.441  0.00  0.00    +0.000 A 
ATOM     15  C   UNL     1      -7.323   5.308 -35.053  0.00  0.00    +0.000 A 
ATOM     16  C   UNL     1      -7.460   4.393 -37.686  0.00  0.00    +0.000 A 
ATOM     17  C   UNL     1      -6.165   5.226 -35.828  0.00  0.00    +0.000 A 
ATOM     18  C   UNL     1      -6.232   4.773 -37.141  0.00  0.00    +0.000 A 
ENDBRANCH   4   9
BRANCH   5  20
ATOM     19  N   UNL     1     -11.733   7.949 -33.654  0.00  0.00    +0.000 NA
ATOM     20  C   UNL     1     -12.535   7.328 -34.449  0.00  0.00    +0.000 C 
BRANCH  19  21
ATOM     21  O   UNL     1     -11.549   9.272 -34.066  0.00  0.00    +0.000 OA
BRANCH  21  22
ATOM     22  C   UNL     1     -10.139   9.521 -34.061  0.00  0.00    +0.000 C 
BRANCH  22  25
ATOM     23 CL   UNL     1     -10.777  14.517 -35.355  0.00  0.00    +0.000 Cl
ATOM     24 CL   UNL     1      -9.307  15.307 -32.561  0.00  0.00    +0.000 Cl
ATOM     25  C   UNL     1      -9.896  10.969 -33.734  0.00  0.00    +0.000 A 
ATOM     26  C   UNL     1     -10.363  11.981 -34.585  0.00  0.00    +0.000 A 
ATOM     27  C   UNL     1      -9.219  11.321 -32.561  0.00  0.00    +0.000 A 
ATOM     28  C   UNL     1     -10.177  13.327 -34.254  0.00  0.00    +0.000 A 
ATOM     29  C   UNL     1      -9.035  12.664 -32.226  0.00  0.00    +0.000 A 
ATOM     30  C   UNL     1      -9.526  13.669 -33.064  0.00  0.00    +0.000 A 
ENDBRANCH  22  25
ENDBRANCH  21  22
ENDBRANCH  19  21
ENDBRANCH   5  20
TORSDOF 5
ENDMDL
MODEL 10
REMARK VINA RESULT:      -5.9     17.942     19.913
REMARK  Name = 142505419
REMARK  5 active torsions:
REMARK  status: ('A' for Active; 'I' for Inactive)
REMARK    1  A    between atoms: O_4  and  N_7
REMARK    2  A    between atoms: O_4  and  C_24
REMARK    3  A    between atoms: C_8  and  C_9
REMARK    4  A    between atoms: C_10  and  C_18
REMARK    5  A    between atoms: C_24  and  C_25
REMARK                            x       y       z     vdW  Elec       q    Type
REMARK                         _______ _______ _______ _____ _____    ______ ____
ROOT
ATOM      1  S   UNL     1     -19.544  15.813 -53.683  0.00  0.00    +0.000 S 
ATOM      2  N   UNL     1     -19.510  15.737 -51.118  0.00  0.00    +0.000 N 
ATOM      3  N   UNL     1     -17.416  15.955 -51.857  0.00  0.00    +0.000 NA
ATOM      4  C   UNL     1     -17.438  15.895 -50.467  0.00  0.00    +0.000 A 
ATOM      5  C   UNL     1     -18.745  15.745 -49.981  0.00  0.00    +0.000 A 
ATOM      6  C   UNL     1     -18.673  15.865 -52.182  0.00  0.00    +0.000 A 
ATOM      7  C   UNL     1     -20.844  15.580 -51.435  0.00  0.00    +0.000 A 
ATOM      8  C   UNL     1     -21.043  15.595 -52.764  0.00  0.00    +0.000 A 
ENDROOT
BRANCH   4   9
ATOM      9  C   UNL     1     -16.208  15.959 -49.687  0.00  0.00    +0.000 A 
ATOM     10  C   UNL     1     -15.039  15.547 -47.575  0.00  0.00    +0.000 A 
ATOM     11  C   UNL     1     -16.193  15.464 -48.375  0.00  0.00    +0.000 A 
ATOM     12  C   UNL     1     -13.873  16.144 -48.102  0.00  0.00    +0.000 A 
ATOM     13  C   UNL     1     -15.026  16.499 -50.209  0.00  0.00    +0.000 A 
ATOM     14  C   UNL     1     -13.881  16.618 -49.418  0.00  0.00    +0.000 A 
ATOM     15  C   UNL     1     -15.015  15.055 -46.258  0.00  0.00    +0.000 A 
ATOM     16  C   UNL     1     -12.721  16.248 -47.307  0.00  0.00    +0.000 A 
ATOM     17  C   UNL     1     -13.859  15.153 -45.482  0.00  0.00    +0.000 A 
ATOM     18  C   UNL     1     -12.715  15.749 -46.002  0.00  0.00    +0.000 A 
ENDBRANCH   4   9
BRANCH   5  20
ATOM     19  N   UNL     1     -19.679  16.578 -47.989  0.00  0.00    +0.000 NA
ATOM     20  C   UNL     1     -19.261  15.558 -48.657  0.00  0.00    +0.000 C 
BRANCH  19  21
ATOM     21  O   UNL     1     -20.148  16.189 -46.730  0.00  0.00    +0.000 OA
BRANCH  21  22
ATOM     22  C   UNL     1     -20.067  17.338 -45.880  0.00  0.00    +0.000 C 
BRANCH  22  25
ATOM     23 CL   UNL     1     -15.093  18.859 -45.874  0.00  0.00    +0.000 Cl
ATOM     24 CL   UNL     1     -14.803  17.495 -42.933  0.00  0.00    +0.000 Cl
ATOM     25  C   UNL     1     -18.731  17.344 -45.188  0.00  0.00    +0.000 A 
ATOM     26  C   UNL     1     -17.631  17.995 -45.765  0.00  0.00    +0.000 A 
ATOM     27  C   UNL     1     -18.579  16.717 -43.947  0.00  0.00    +0.000 A 
ATOM     28  C   UNL     1     -16.403  18.040 -45.097  0.00  0.00    +0.000 A 
ATOM     29  C   UNL     1     -17.356  16.762 -43.276  0.00  0.00    +0.000 A 
ATOM     30  C   UNL     1     -16.270  17.436 -43.843  0.00  0.00    +0.000 A 
ENDBRANCH  22  25
ENDBRANCH  21  22
ENDBRANCH  19  21
ENDBRANCH   5  20
TORSDOF 5
ENDMDL
