MODEL 1
REMARK VINA RESULT:      -6.4      0.000      0.000
REMARK  Name = 142505452
REMARK  6 active torsions:
REMARK  status: ('A' for Active; 'I' for Inactive)
REMARK    1  A    between atoms: O_4  and  N_7
REMARK    2  A    between atoms: O_4  and  C_23
REMARK    3  A    between atoms: C_8  and  C_10
REMARK    4  A    between atoms: C_9  and  C_18
REMARK    5  A    between atoms: C_12  and  C_19
REMARK    6  A    between atoms: C_23  and  C_24
REMARK                            x       y       z     vdW  Elec       q    Type
REMARK                         _______ _______ _______ _____ _____    ______ ____
ROOT
ATOM      1  S   UNL     1      12.580  15.052  25.662  0.00  0.00    +0.000 S 
ATOM      2  N   UNL     1      11.615  13.180  24.194  0.00  0.00    +0.000 N 
ATOM      3  N   UNL     1      13.335  14.118  23.123  0.00  0.00    +0.000 NA
ATOM      4  C   UNL     1      12.798  13.081  22.369  0.00  0.00    +0.000 A 
ATOM      5  C   UNL     1      11.704  12.493  23.007  0.00  0.00    +0.000 A 
ATOM      6  C   UNL     1      12.606  14.120  24.200  0.00  0.00    +0.000 A 
ATOM      7  C   UNL     1      10.805  13.173  25.310  0.00  0.00    +0.000 A 
ATOM      8  C   UNL     1      11.182  14.106  26.201  0.00  0.00    +0.000 A 
ENDROOT
BRANCH   4   9
ATOM      9  C   UNL     1      13.370  12.696  21.086  0.00  0.00    +0.000 A 
ATOM     10  C   UNL     1      14.399  11.983  18.518  0.00  0.00    +0.000 A 
ATOM     11  C   UNL     1      14.173  11.561  20.921  0.00  0.00    +0.000 A 
ATOM     12  C   UNL     1      13.130  13.499  19.969  0.00  0.00    +0.000 A 
ATOM     13  C   UNL     1      14.668  11.206  19.657  0.00  0.00    +0.000 A 
ATOM     14  C   UNL     1      13.631  13.144  18.711  0.00  0.00    +0.000 A 
BRANCH  10  15
ATOM     15  C   UNL     1      14.875  11.593  17.169  0.00  0.00    +0.000 A 
ATOM     16  C   UNL     1      14.176  10.658  16.381  0.00  0.00    +0.000 A 
ATOM     17  C   UNL     1      16.020  12.180  16.598  0.00  0.00    +0.000 A 
ATOM     18  C   UNL     1      14.577  10.361  15.073  0.00  0.00    +0.000 A 
ATOM     19  C   UNL     1      16.415  11.896  15.288  0.00  0.00    +0.000 A 
ATOM     20  C   UNL     1      15.687  10.992  14.522  0.00  0.00    +0.000 A 
ENDBRANCH  10  15
ENDBRANCH   4   9
BRANCH   5  22
ATOM     21  N   UNL     1      11.044  10.246  23.110  0.00  0.00    +0.000 NA
ATOM     22  C   UNL     1      10.858  11.419  22.602  0.00  0.00    +0.000 C 
BRANCH  21  23
ATOM     23  O   UNL     1      10.218   9.317  22.461  0.00  0.00    +0.000 OA
BRANCH  23  24
ATOM     24  C   UNL     1      10.965   8.104  22.338  0.00  0.00    +0.000 C 
BRANCH  24  27
ATOM     25 CL   UNL     1      15.368   6.368  20.256  0.00  0.00    +0.000 Cl
ATOM     26 CL   UNL     1      14.317   7.448  17.371  0.00  0.00    +0.000 Cl
ATOM     27  C   UNL     1      11.870   8.102  21.132  0.00  0.00    +0.000 A 
ATOM     28  C   UNL     1      13.104   7.436  21.213  0.00  0.00    +0.000 A 
ATOM     29  C   UNL     1      11.460   8.621  19.898  0.00  0.00    +0.000 A 
ATOM     30  C   UNL     1      13.890   7.245  20.073  0.00  0.00    +0.000 A 
ATOM     31  C   UNL     1      12.247   8.437  18.759  0.00  0.00    +0.000 A 
ATOM     32  C   UNL     1      13.450   7.728  18.838  0.00  0.00    +0.000 A 
ENDBRANCH  24  27
ENDBRANCH  23  24
ENDBRANCH  21  23
ENDBRANCH   5  22
TORSDOF 6
ENDMDL
MODEL 2
REMARK VINA RESULT:      -6.1     27.695     30.854
REMARK  Name = 142505452
REMARK  6 active torsions:
REMARK  status: ('A' for Active; 'I' for Inactive)
REMARK    1  A    between atoms: O_4  and  N_7
REMARK    2  A    between atoms: O_4  and  C_23
REMARK    3  A    between atoms: C_8  and  C_10
REMARK    4  A    between atoms: C_9  and  C_18
REMARK    5  A    between atoms: C_12  and  C_19
REMARK    6  A    between atoms: C_23  and  C_24
REMARK                            x       y       z     vdW  Elec       q    Type
REMARK                         _______ _______ _______ _____ _____    ______ ____
ROOT
ATOM      1  S   UNL     1     -20.361   2.136  21.713  0.00  0.00    +0.000 S 
ATOM      2  N   UNL     1     -18.083   3.119  22.372  0.00  0.00    +0.000 N 
ATOM      3  N   UNL     1     -18.971   2.107  24.153  0.00  0.00    +0.000 NA
ATOM      4  C   UNL     1     -17.722   2.635  24.463  0.00  0.00    +0.000 A 
ATOM      5  C   UNL     1     -17.156   3.294  23.370  0.00  0.00    +0.000 A 
ATOM      6  C   UNL     1     -19.125   2.410  22.898  0.00  0.00    +0.000 A 
ATOM      7  C   UNL     1     -18.227   3.481  21.048  0.00  0.00    +0.000 A 
ATOM      8  C   UNL     1     -19.386   3.031  20.536  0.00  0.00    +0.000 A 
ENDROOT
BRANCH   4   9
ATOM      9  C   UNL     1     -17.129   2.464  25.782  0.00  0.00    +0.000 A 
ATOM     10  C   UNL     1     -15.900   2.222  28.351  0.00  0.00    +0.000 A 
ATOM     11  C   UNL     1     -16.924   1.209  26.368  0.00  0.00    +0.000 A 
ATOM     12  C   UNL     1     -16.763   3.597  26.512  0.00  0.00    +0.000 A 
ATOM     13  C   UNL     1     -16.310   1.091  27.624  0.00  0.00    +0.000 A 
ATOM     14  C   UNL     1     -16.156   3.475  27.767  0.00  0.00    +0.000 A 
BRANCH  10  15
ATOM     15  C   UNL     1     -15.206   2.110  29.656  0.00  0.00    +0.000 A 
ATOM     16  C   UNL     1     -14.346   3.121  30.124  0.00  0.00    +0.000 A 
ATOM     17  C   UNL     1     -15.419   1.008  30.505  0.00  0.00    +0.000 A 
ATOM     18  C   UNL     1     -13.764   3.054  31.396  0.00  0.00    +0.000 A 
ATOM     19  C   UNL     1     -14.850   0.944  31.781  0.00  0.00    +0.000 A 
ATOM     20  C   UNL     1     -14.030   1.973  32.230  0.00  0.00    +0.000 A 
ENDBRANCH  10  15
ENDBRANCH   4   9
BRANCH   5  22
ATOM     21  N   UNL     1     -15.858   5.241  23.502  0.00  0.00    +0.000 NA
ATOM     22  C   UNL     1     -15.911   3.978  23.240  0.00  0.00    +0.000 C 
BRANCH  21  23
ATOM     23  O   UNL     1     -14.592   5.739  23.158  0.00  0.00    +0.000 OA
BRANCH  23  24
ATOM     24  C   UNL     1     -14.758   7.122  22.834  0.00  0.00    +0.000 C 
BRANCH  24  27
ATOM     25 CL   UNL     1     -12.265  11.204  20.873  0.00  0.00    +0.000 Cl
ATOM     26 CL   UNL     1     -10.200   9.135  19.440  0.00  0.00    +0.000 Cl
ATOM     27  C   UNL     1     -13.730   7.611  21.845  0.00  0.00    +0.000 A 
ATOM     28  C   UNL     1     -13.530   8.994  21.705  0.00  0.00    +0.000 A 
ATOM     29  C   UNL     1     -12.875   6.731  21.170  0.00  0.00    +0.000 A 
ATOM     30  C   UNL     1     -12.466   9.490  20.947  0.00  0.00    +0.000 A 
ATOM     31  C   UNL     1     -11.815   7.224  20.406  0.00  0.00    +0.000 A 
ATOM     32  C   UNL     1     -11.592   8.602  20.313  0.00  0.00    +0.000 A 
ENDBRANCH  24  27
ENDBRANCH  23  24
ENDBRANCH  21  23
ENDBRANCH   5  22
TORSDOF 6
ENDMDL
MODEL 3
REMARK VINA RESULT:      -5.8     27.933     31.142
REMARK  Name = 142505452
REMARK  6 active torsions:
REMARK  status: ('A' for Active; 'I' for Inactive)
REMARK    1  A    between atoms: O_4  and  N_7
REMARK    2  A    between atoms: O_4  and  C_23
REMARK    3  A    between atoms: C_8  and  C_10
REMARK    4  A    between atoms: C_9  and  C_18
REMARK    5  A    between atoms: C_12  and  C_19
REMARK    6  A    between atoms: C_23  and  C_24
REMARK                            x       y       z     vdW  Elec       q    Type
REMARK                         _______ _______ _______ _____ _____    ______ ____
ROOT
ATOM      1  S   UNL     1     -19.763   0.034  22.941  0.00  0.00    +0.000 S 
ATOM      2  N   UNL     1     -18.063   1.924  23.301  0.00  0.00    +0.000 N 
ATOM      3  N   UNL     1     -18.474   0.944  25.265  0.00  0.00    +0.000 NA
ATOM      4  C   UNL     1     -17.538   1.961  25.413  0.00  0.00    +0.000 A 
ATOM      5  C   UNL     1     -17.281   2.606  24.202  0.00  0.00    +0.000 A 
ATOM      6  C   UNL     1     -18.737   0.957  23.991  0.00  0.00    +0.000 A 
ATOM      7  C   UNL     1     -18.340   1.984  21.951  0.00  0.00    +0.000 A 
ATOM      8  C   UNL     1     -19.225   1.040  21.586  0.00  0.00    +0.000 A 
ENDROOT
BRANCH   4   9
ATOM      9  C   UNL     1     -16.925   2.250  26.703  0.00  0.00    +0.000 A 
ATOM     10  C   UNL     1     -15.771   2.721  29.274  0.00  0.00    +0.000 A 
ATOM     11  C   UNL     1     -16.714   3.552  27.170  0.00  0.00    +0.000 A 
ATOM     12  C   UNL     1     -16.507   1.187  27.507  0.00  0.00    +0.000 A 
ATOM     13  C   UNL     1     -16.158   3.782  28.438  0.00  0.00    +0.000 A 
ATOM     14  C   UNL     1     -15.947   1.421  28.769  0.00  0.00    +0.000 A 
BRANCH  10  15
ATOM     15  C   UNL     1     -15.228   2.948  30.635  0.00  0.00    +0.000 A 
ATOM     16  C   UNL     1     -13.864   2.761  30.927  0.00  0.00    +0.000 A 
ATOM     17  C   UNL     1     -16.049   3.412  31.681  0.00  0.00    +0.000 A 
ATOM     18  C   UNL     1     -13.339   3.064  32.189  0.00  0.00    +0.000 A 
ATOM     19  C   UNL     1     -15.525   3.728  32.939  0.00  0.00    +0.000 A 
ATOM     20  C   UNL     1     -14.167   3.563  33.189  0.00  0.00    +0.000 A 
ENDBRANCH  10  15
ENDBRANCH   4   9
BRANCH   5  22
ATOM     21  N   UNL     1     -15.144   3.562  24.103  0.00  0.00    +0.000 NA
ATOM     22  C   UNL     1     -16.411   3.693  23.894  0.00  0.00    +0.000 C 
BRANCH  21  23
ATOM     23  O   UNL     1     -14.502   4.791  23.886  0.00  0.00    +0.000 OA
BRANCH  23  24
ATOM     24  C   UNL     1     -14.705   5.134  22.512  0.00  0.00    +0.000 C 
BRANCH  24  27
ATOM     25 CL   UNL     1     -11.130   7.489  19.613  0.00  0.00    +0.000 Cl
ATOM     26 CL   UNL     1     -12.483  10.335  20.427  0.00  0.00    +0.000 Cl
ATOM     27  C   UNL     1     -14.049   6.440  22.140  0.00  0.00    +0.000 A 
ATOM     28  C   UNL     1     -12.957   6.421  21.256  0.00  0.00    +0.000 A 
ATOM     29  C   UNL     1     -14.580   7.673  22.535  0.00  0.00    +0.000 A 
ATOM     30  C   UNL     1     -12.438   7.609  20.735  0.00  0.00    +0.000 A 
ATOM     31  C   UNL     1     -14.059   8.863  22.021  0.00  0.00    +0.000 A 
ATOM     32  C   UNL     1     -13.005   8.834  21.102  0.00  0.00    +0.000 A 
ENDBRANCH  24  27
ENDBRANCH  23  24
ENDBRANCH  21  23
ENDBRANCH   5  22
TORSDOF 6
ENDMDL
MODEL 4
REMARK VINA RESULT:      -5.8     23.726     26.638
REMARK  Name = 142505452
REMARK  6 active torsions:
REMARK  status: ('A' for Active; 'I' for Inactive)
REMARK    1  A    between atoms: O_4  and  N_7
REMARK    2  A    between atoms: O_4  and  C_23
REMARK    3  A    between atoms: C_8  and  C_10
REMARK    4  A    between atoms: C_9  and  C_18
REMARK    5  A    between atoms: C_12  and  C_19
REMARK    6  A    between atoms: C_23  and  C_24
REMARK                            x       y       z     vdW  Elec       q    Type
REMARK                         _______ _______ _______ _____ _____    ______ ____
ROOT
ATOM      1  S   UNL     1       9.530  -5.327  34.363  0.00  0.00    +0.000 S 
ATOM      2  N   UNL     1       7.636  -6.995  34.830  0.00  0.00    +0.000 N 
ATOM      3  N   UNL     1       8.657  -7.580  32.932  0.00  0.00    +0.000 NA
ATOM      4  C   UNL     1       7.636  -8.475  33.233  0.00  0.00    +0.000 A 
ATOM      5  C   UNL     1       6.966  -8.117  34.405  0.00  0.00    +0.000 A 
ATOM      6  C   UNL     1       8.621  -6.735  33.920  0.00  0.00    +0.000 A 
ATOM      7  C   UNL     1       7.552  -6.101  35.877  0.00  0.00    +0.000 A 
ATOM      8  C   UNL     1       8.495  -5.147  35.789  0.00  0.00    +0.000 A 
ENDROOT
BRANCH   4   9
ATOM      9  C   UNL     1       7.368  -9.635  32.394  0.00  0.00    +0.000 A 
ATOM     10  C   UNL     1       6.755 -11.853  30.700  0.00  0.00    +0.000 A 
ATOM     11  C   UNL     1       7.562 -10.951  32.831  0.00  0.00    +0.000 A 
ATOM     12  C   UNL     1       6.916  -9.437  31.088  0.00  0.00    +0.000 A 
ATOM     13  C   UNL     1       7.250 -12.040  32.002  0.00  0.00    +0.000 A 
ATOM     14  C   UNL     1       6.612 -10.525  30.262  0.00  0.00    +0.000 A 
BRANCH  10  15
ATOM     15  C   UNL     1       6.375 -12.993  29.832  0.00  0.00    +0.000 A 
ATOM     16  C   UNL     1       5.092 -13.568  29.888  0.00  0.00    +0.000 A 
ATOM     17  C   UNL     1       7.269 -13.516  28.877  0.00  0.00    +0.000 A 
ATOM     18  C   UNL     1       4.707 -14.584  29.004  0.00  0.00    +0.000 A 
ATOM     19  C   UNL     1       6.883 -14.520  27.985  0.00  0.00    +0.000 A 
ATOM     20  C   UNL     1       5.598 -15.047  28.042  0.00  0.00    +0.000 A 
ENDBRANCH  10  15
ENDBRANCH   4   9
BRANCH   5  22
ATOM     21  N   UNL     1       6.087  -9.752  35.837  0.00  0.00    +0.000 NA
ATOM     22  C   UNL     1       5.867  -8.734  35.073  0.00  0.00    +0.000 C 
BRANCH  21  23
ATOM     23  O   UNL     1       4.865 -10.294  36.260  0.00  0.00    +0.000 OA
BRANCH  23  24
ATOM     24  C   UNL     1       4.034 -10.415  35.102  0.00  0.00    +0.000 C 
BRANCH  24  27
ATOM     25 CL   UNL     1       1.281 -14.552  36.526  0.00  0.00    +0.000 Cl
ATOM     26 CL   UNL     1       1.957 -15.879  33.631  0.00  0.00    +0.000 Cl
ATOM     27  C   UNL     1       3.669 -11.846  34.800  0.00  0.00    +0.000 A 
ATOM     28  C   UNL     1       2.846 -12.539  35.703  0.00  0.00    +0.000 A 
ATOM     29  C   UNL     1       4.007 -12.456  33.586  0.00  0.00    +0.000 A 
ATOM     30  C   UNL     1       2.327 -13.796  35.378  0.00  0.00    +0.000 A 
ATOM     31  C   UNL     1       3.496 -13.714  33.262  0.00  0.00    +0.000 A 
ATOM     32  C   UNL     1       2.636 -14.376  34.144  0.00  0.00    +0.000 A 
ENDBRANCH  24  27
ENDBRANCH  23  24
ENDBRANCH  21  23
ENDBRANCH   5  22
TORSDOF 6
ENDMDL
MODEL 5
REMARK VINA RESULT:      -5.7     29.238     32.284
REMARK  Name = 142505452
REMARK  6 active torsions:
REMARK  status: ('A' for Active; 'I' for Inactive)
REMARK    1  A    between atoms: O_4  and  N_7
REMARK    2  A    between atoms: O_4  and  C_23
REMARK    3  A    between atoms: C_8  and  C_10
REMARK    4  A    between atoms: C_9  and  C_18
REMARK    5  A    between atoms: C_12  and  C_19
REMARK    6  A    between atoms: C_23  and  C_24
REMARK                            x       y       z     vdW  Elec       q    Type
REMARK                         _______ _______ _______ _____ _____    ______ ____
ROOT
ATOM      1  S   UNL     1      -3.863 -10.503  15.561  0.00  0.00    +0.000 S 
ATOM      2  N   UNL     1      -5.605 -10.854  17.413  0.00  0.00    +0.000 N 
ATOM      3  N   UNL     1      -6.566  -9.757  15.722  0.00  0.00    +0.000 NA
ATOM      4  C   UNL     1      -7.485  -9.987  16.739  0.00  0.00    +0.000 A 
ATOM      5  C   UNL     1      -6.902 -10.652  17.820  0.00  0.00    +0.000 A 
ATOM      6  C   UNL     1      -5.475 -10.306  16.169  0.00  0.00    +0.000 A 
ATOM      7  C   UNL     1      -4.458 -11.421  17.929  0.00  0.00    +0.000 A 
ATOM      8  C   UNL     1      -3.430 -11.327  17.068  0.00  0.00    +0.000 A 
ENDROOT
BRANCH   4   9
ATOM      9  C   UNL     1      -8.877  -9.576  16.616  0.00  0.00    +0.000 A 
ATOM     10  C   UNL     1     -11.601  -8.724  16.479  0.00  0.00    +0.000 A 
ATOM     11  C   UNL     1      -9.831 -10.321  15.911  0.00  0.00    +0.000 A 
ATOM     12  C   UNL     1      -9.284  -8.378  17.206  0.00  0.00    +0.000 A 
ATOM     13  C   UNL     1     -11.170  -9.907  15.854  0.00  0.00    +0.000 A 
ATOM     14  C   UNL     1     -10.620  -7.965  17.142  0.00  0.00    +0.000 A 
BRANCH  10  15
ATOM     15  C   UNL     1     -13.022  -8.301  16.469  0.00  0.00    +0.000 A 
ATOM     16  C   UNL     1     -14.011  -9.017  17.169  0.00  0.00    +0.000 A 
ATOM     17  C   UNL     1     -13.432  -7.133  15.798  0.00  0.00    +0.000 A 
ATOM     18  C   UNL     1     -15.334  -8.563  17.232  0.00  0.00    +0.000 A 
ATOM     19  C   UNL     1     -14.750  -6.670  15.870  0.00  0.00    +0.000 A 
ATOM     20  C   UNL     1     -15.699  -7.382  16.595  0.00  0.00    +0.000 A 
ENDBRANCH  10  15
ENDBRANCH   4   9
BRANCH   5  22
ATOM     21  N   UNL     1      -8.329 -12.034  19.065  0.00  0.00    +0.000 NA
ATOM     22  C   UNL     1      -7.461 -11.077  19.061  0.00  0.00    +0.000 C 
BRANCH  21  23
ATOM     23  O   UNL     1      -8.861 -12.180  20.354  0.00  0.00    +0.000 OA
BRANCH  23  24
ATOM     24  C   UNL     1     -10.105 -12.872  20.220  0.00  0.00    +0.000 C 
BRANCH  24  27
ATOM     25 CL   UNL     1     -15.121 -12.256  21.311  0.00  0.00    +0.000 Cl
ATOM     26 CL   UNL     1     -14.721  -9.053  20.887  0.00  0.00    +0.000 Cl
ATOM     27  C   UNL     1     -11.288 -11.936  20.210  0.00  0.00    +0.000 A 
ATOM     28  C   UNL     1     -12.545 -12.432  20.596  0.00  0.00    +0.000 A 
ATOM     29  C   UNL     1     -11.145 -10.565  19.966  0.00  0.00    +0.000 A 
ATOM     30  C   UNL     1     -13.627 -11.566  20.785  0.00  0.00    +0.000 A 
ATOM     31  C   UNL     1     -12.227  -9.700  20.147  0.00  0.00    +0.000 A 
ATOM     32  C   UNL     1     -13.461 -10.193  20.581  0.00  0.00    +0.000 A 
ENDBRANCH  24  27
ENDBRANCH  23  24
ENDBRANCH  21  23
ENDBRANCH   5  22
TORSDOF 6
ENDMDL
MODEL 6
REMARK VINA RESULT:      -5.5     14.288     17.361
REMARK  Name = 142505452
REMARK  6 active torsions:
REMARK  status: ('A' for Active; 'I' for Inactive)
REMARK    1  A    between atoms: O_4  and  N_7
REMARK    2  A    between atoms: O_4  and  C_23
REMARK    3  A    between atoms: C_8  and  C_10
REMARK    4  A    between atoms: C_9  and  C_18
REMARK    5  A    between atoms: C_12  and  C_19
REMARK    6  A    between atoms: C_23  and  C_24
REMARK                            x       y       z     vdW  Elec       q    Type
REMARK                         _______ _______ _______ _____ _____    ______ ____
ROOT
ATOM      1  S   UNL     1      10.423  13.362   8.742  0.00  0.00    +0.000 S 
ATOM      2  N   UNL     1       9.978  10.932   8.047  0.00  0.00    +0.000 N 
ATOM      3  N   UNL     1       9.141  12.289   6.485  0.00  0.00    +0.000 NA
ATOM      4  C   UNL     1       8.940  10.959   6.134  0.00  0.00    +0.000 A 
ATOM      5  C   UNL     1       9.434  10.089   7.108  0.00  0.00    +0.000 A 
ATOM      6  C   UNL     1       9.774  12.212   7.618  0.00  0.00    +0.000 A 
ATOM      7  C   UNL     1      10.622  10.813   9.261  0.00  0.00    +0.000 A 
ATOM      8  C   UNL     1      10.939  12.017   9.771  0.00  0.00    +0.000 A 
ENDROOT
BRANCH   4   9
ATOM      9  C   UNL     1       8.303  10.590   4.877  0.00  0.00    +0.000 A 
ATOM     10  C   UNL     1       7.102   9.959   2.362  0.00  0.00    +0.000 A 
ATOM     11  C   UNL     1       7.041   9.988   4.811  0.00  0.00    +0.000 A 
ATOM     12  C   UNL     1       8.981  10.826   3.679  0.00  0.00    +0.000 A 
ATOM     13  C   UNL     1       6.448   9.689   3.575  0.00  0.00    +0.000 A 
ATOM     14  C   UNL     1       8.388  10.521   2.448  0.00  0.00    +0.000 A 
BRANCH  10  15
ATOM     15  C   UNL     1       6.468   9.693   1.049  0.00  0.00    +0.000 A 
ATOM     16  C   UNL     1       7.230   9.554  -0.126  0.00  0.00    +0.000 A 
ATOM     17  C   UNL     1       5.075   9.519   0.931  0.00  0.00    +0.000 A 
ATOM     18  C   UNL     1       6.636   9.214  -1.347  0.00  0.00    +0.000 A 
ATOM     19  C   UNL     1       4.480   9.166  -0.284  0.00  0.00    +0.000 A 
ATOM     20  C   UNL     1       5.263   9.004  -1.421  0.00  0.00    +0.000 A 
ENDBRANCH  10  15
ENDBRANCH   4   9
BRANCH   5  22
ATOM     21  N   UNL     1      10.535   8.027   6.932  0.00  0.00    +0.000 NA
ATOM     22  C   UNL     1       9.437   8.664   7.166  0.00  0.00    +0.000 C 
BRANCH  21  23
ATOM     23  O   UNL     1      10.279   6.649   6.884  0.00  0.00    +0.000 OA
BRANCH  23  24
ATOM     24  C   UNL     1       9.191   6.455   5.977  0.00  0.00    +0.000 C 
BRANCH  24  27
ATOM     25 CL   UNL     1      11.503   3.401   2.505  0.00  0.00    +0.000 Cl
ATOM     26 CL   UNL     1      10.448   5.413   0.174  0.00  0.00    +0.000 Cl
ATOM     27  C   UNL     1       9.650   6.298   4.549  0.00  0.00    +0.000 A 
ATOM     28  C   UNL     1      10.373   5.147   4.194  0.00  0.00    +0.000 A 
ATOM     29  C   UNL     1       9.259   7.190   3.544  0.00  0.00    +0.000 A 
ATOM     30  C   UNL     1      10.655   4.866   2.854  0.00  0.00    +0.000 A 
ATOM     31  C   UNL     1       9.547   6.914   2.205  0.00  0.00    +0.000 A 
ATOM     32  C   UNL     1      10.222   5.741   1.854  0.00  0.00    +0.000 A 
ENDBRANCH  24  27
ENDBRANCH  23  24
ENDBRANCH  21  23
ENDBRANCH   5  22
TORSDOF 6
ENDMDL
MODEL 7
REMARK VINA RESULT:      -5.5     35.317     36.814
REMARK  Name = 142505452
REMARK  6 active torsions:
REMARK  status: ('A' for Active; 'I' for Inactive)
REMARK    1  A    between atoms: O_4  and  N_7
REMARK    2  A    between atoms: O_4  and  C_23
REMARK    3  A    between atoms: C_8  and  C_10
REMARK    4  A    between atoms: C_9  and  C_18
REMARK    5  A    between atoms: C_12  and  C_19
REMARK    6  A    between atoms: C_23  and  C_24
REMARK                            x       y       z     vdW  Elec       q    Type
REMARK                         _______ _______ _______ _____ _____    ______ ____
ROOT
ATOM      1  S   UNL     1     -10.437  -9.939  41.027  0.00  0.00    +0.000 S 
ATOM      2  N   UNL     1      -9.270 -11.006  39.005  0.00  0.00    +0.000 N 
ATOM      3  N   UNL     1     -11.472 -10.994  38.639  0.00  0.00    +0.000 NA
ATOM      4  C   UNL     1     -10.800 -11.545  37.554  0.00  0.00    +0.000 A 
ATOM      5  C   UNL     1      -9.421 -11.586  37.768  0.00  0.00    +0.000 A 
ATOM      6  C   UNL     1     -10.515 -10.678  39.460  0.00  0.00    +0.000 A 
ATOM      7  C   UNL     1      -8.232 -10.710  39.864  0.00  0.00    +0.000 A 
ATOM      8  C   UNL     1      -8.676 -10.128  40.993  0.00  0.00    +0.000 A 
ENDROOT
BRANCH   4   9
ATOM      9  C   UNL     1     -11.511 -11.987  36.362  0.00  0.00    +0.000 A 
ATOM     10  C   UNL     1     -13.003 -12.812  34.069  0.00  0.00    +0.000 A 
ATOM     11  C   UNL     1     -11.150 -13.131  35.640  0.00  0.00    +0.000 A 
ATOM     12  C   UNL     1     -12.590 -11.231  35.898  0.00  0.00    +0.000 A 
ATOM     13  C   UNL     1     -11.890 -13.541  34.521  0.00  0.00    +0.000 A 
ATOM     14  C   UNL     1     -13.323 -11.641  34.778  0.00  0.00    +0.000 A 
BRANCH  10  15
ATOM     15  C   UNL     1     -13.824 -13.261  32.918  0.00  0.00    +0.000 A 
ATOM     16  C   UNL     1     -15.151 -12.827  32.744  0.00  0.00    +0.000 A 
ATOM     17  C   UNL     1     -13.290 -14.102  31.923  0.00  0.00    +0.000 A 
ATOM     18  C   UNL     1     -15.892 -13.180  31.609  0.00  0.00    +0.000 A 
ATOM     19  C   UNL     1     -14.022 -14.445  30.783  0.00  0.00    +0.000 A 
ATOM     20  C   UNL     1     -15.321 -13.976  30.622  0.00  0.00    +0.000 A 
ENDBRANCH  10  15
ENDBRANCH   4   9
BRANCH   5  22
ATOM     21  N   UNL     1      -7.962 -11.342  35.950  0.00  0.00    +0.000 NA
ATOM     22  C   UNL     1      -8.365 -12.067  36.940  0.00  0.00    +0.000 C 
BRANCH  21  23
ATOM     23  O   UNL     1      -7.039 -12.067  35.181  0.00  0.00    +0.000 OA
BRANCH  23  24
ATOM     24  C   UNL     1      -7.078 -13.420  35.643  0.00  0.00    +0.000 C 
BRANCH  24  27
ATOM     25 CL   UNL     1      -9.349 -14.713  31.183  0.00  0.00    +0.000 Cl
ATOM     26 CL   UNL     1      -6.998 -16.919  30.736  0.00  0.00    +0.000 Cl
ATOM     27  C   UNL     1      -7.151 -14.414  34.513  0.00  0.00    +0.000 A 
ATOM     28  C   UNL     1      -8.138 -14.247  33.527  0.00  0.00    +0.000 A 
ATOM     29  C   UNL     1      -6.184 -15.412  34.340  0.00  0.00    +0.000 A 
ATOM     30  C   UNL     1      -8.129 -15.025  32.366  0.00  0.00    +0.000 A 
ATOM     31  C   UNL     1      -6.177 -16.195  33.184  0.00  0.00    +0.000 A 
ATOM     32  C   UNL     1      -7.132 -15.987  32.183  0.00  0.00    +0.000 A 
ENDBRANCH  24  27
ENDBRANCH  23  24
ENDBRANCH  21  23
ENDBRANCH   5  22
TORSDOF 6
ENDMDL
MODEL 8
REMARK VINA RESULT:      -5.5     29.653     32.238
REMARK  Name = 142505452
REMARK  6 active torsions:
REMARK  status: ('A' for Active; 'I' for Inactive)
REMARK    1  A    between atoms: O_4  and  N_7
REMARK    2  A    between atoms: O_4  and  C_23
REMARK    3  A    between atoms: C_8  and  C_10
REMARK    4  A    between atoms: C_9  and  C_18
REMARK    5  A    between atoms: C_12  and  C_19
REMARK    6  A    between atoms: C_23  and  C_24
REMARK                            x       y       z     vdW  Elec       q    Type
REMARK                         _______ _______ _______ _____ _____    ______ ____
ROOT
ATOM      1  S   UNL     1      -4.187 -10.871  17.243  0.00  0.00    +0.000 S 
ATOM      2  N   UNL     1      -6.624 -11.105  18.014  0.00  0.00    +0.000 N 
ATOM      3  N   UNL     1      -6.508  -9.486  16.481  0.00  0.00    +0.000 NA
ATOM      4  C   UNL     1      -7.819  -9.660  16.909  0.00  0.00    +0.000 A 
ATOM      5  C   UNL     1      -7.915 -10.653  17.887  0.00  0.00    +0.000 A 
ATOM      6  C   UNL     1      -5.847 -10.379  17.157  0.00  0.00    +0.000 A 
ATOM      7  C   UNL     1      -5.949 -12.043  18.768  0.00  0.00    +0.000 A 
ATOM      8  C   UNL     1      -4.636 -12.058  18.478  0.00  0.00    +0.000 A 
ENDROOT
BRANCH   4   9
ATOM      9  C   UNL     1      -8.914  -8.881  16.347  0.00  0.00    +0.000 A 
ATOM     10  C   UNL     1     -11.112  -7.353  15.347  0.00  0.00    +0.000 A 
ATOM     11  C   UNL     1      -9.360  -9.036  15.028  0.00  0.00    +0.000 A 
ATOM     12  C   UNL     1      -9.542  -7.921  17.144  0.00  0.00    +0.000 A 
ATOM     13  C   UNL     1     -10.446  -8.293  14.542  0.00  0.00    +0.000 A 
ATOM     14  C   UNL     1     -10.621  -7.178  16.653  0.00  0.00    +0.000 A 
BRANCH  10  15
ATOM     15  C   UNL     1     -12.292  -6.597  14.863  0.00  0.00    +0.000 A 
ATOM     16  C   UNL     1     -12.155  -5.431  14.087  0.00  0.00    +0.000 A 
ATOM     17  C   UNL     1     -13.602  -7.045  15.117  0.00  0.00    +0.000 A 
ATOM     18  C   UNL     1     -13.270  -4.771  13.556  0.00  0.00    +0.000 A 
ATOM     19  C   UNL     1     -14.717  -6.397  14.577  0.00  0.00    +0.000 A 
ATOM     20  C   UNL     1     -14.549  -5.264  13.788  0.00  0.00    +0.000 A 
ENDBRANCH  10  15
ENDBRANCH   4   9
BRANCH   5  22
ATOM     21  N   UNL     1      -9.244 -10.757  19.815  0.00  0.00    +0.000 NA
ATOM     22  C   UNL     1      -9.045 -11.149  18.600  0.00  0.00    +0.000 C 
BRANCH  21  23
ATOM     23  O   UNL     1     -10.307 -11.482  20.375  0.00  0.00    +0.000 OA
BRANCH  23  24
ATOM     24  C   UNL     1     -11.499 -11.070  19.701  0.00  0.00    +0.000 C 
BRANCH  24  27
ATOM     25 CL   UNL     1     -15.864  -8.757  21.225  0.00  0.00    +0.000 Cl
ATOM     26 CL   UNL     1     -16.735 -11.552  22.647  0.00  0.00    +0.000 Cl
ATOM     27  C   UNL     1     -12.717 -11.144  20.586  0.00  0.00    +0.000 A 
ATOM     28  C   UNL     1     -13.594 -10.046  20.623  0.00  0.00    +0.000 A 
ATOM     29  C   UNL     1     -13.074 -12.319  21.258  0.00  0.00    +0.000 A 
ATOM     30  C   UNL     1     -14.827 -10.138  21.275  0.00  0.00    +0.000 A 
ATOM     31  C   UNL     1     -14.302 -12.410  21.916  0.00  0.00    +0.000 A 
ATOM     32  C   UNL     1     -15.192 -11.331  21.905  0.00  0.00    +0.000 A 
ENDBRANCH  24  27
ENDBRANCH  23  24
ENDBRANCH  21  23
ENDBRANCH   5  22
TORSDOF 6
ENDMDL
MODEL 9
REMARK VINA RESULT:      -5.4     25.243     28.791
REMARK  Name = 142505452
REMARK  6 active torsions:
REMARK  status: ('A' for Active; 'I' for Inactive)
REMARK    1  A    between atoms: O_4  and  N_7
REMARK    2  A    between atoms: O_4  and  C_23
REMARK    3  A    between atoms: C_8  and  C_10
REMARK    4  A    between atoms: C_9  and  C_18
REMARK    5  A    between atoms: C_12  and  C_19
REMARK    6  A    between atoms: C_23  and  C_24
REMARK                            x       y       z     vdW  Elec       q    Type
REMARK                         _______ _______ _______ _____ _____    ______ ____
ROOT
ATOM      1  S   UNL     1       0.170 -14.730  39.164  0.00  0.00    +0.000 S 
ATOM      2  N   UNL     1       1.469 -14.850  36.953  0.00  0.00    +0.000 N 
ATOM      3  N   UNL     1       1.801 -12.843  37.872  0.00  0.00    +0.000 NA
ATOM      4  C   UNL     1       2.508 -12.957  36.681  0.00  0.00    +0.000 A 
ATOM      5  C   UNL     1       2.298 -14.197  36.073  0.00  0.00    +0.000 A 
ATOM      6  C   UNL     1       1.218 -14.000  37.991  0.00  0.00    +0.000 A 
ATOM      7  C   UNL     1       0.843 -16.077  37.033  0.00  0.00    +0.000 A 
ATOM      8  C   UNL     1       0.111 -16.186  38.156  0.00  0.00    +0.000 A 
ENDROOT
BRANCH   4   9
ATOM      9  C   UNL     1       3.362 -11.882  36.196  0.00  0.00    +0.000 A 
ATOM     10  C   UNL     1       4.963  -9.755  35.158  0.00  0.00    +0.000 A 
ATOM     11  C   UNL     1       4.756 -11.903  36.319  0.00  0.00    +0.000 A 
ATOM     12  C   UNL     1       2.772 -10.766  35.597  0.00  0.00    +0.000 A 
ATOM     13  C   UNL     1       5.542 -10.863  35.799  0.00  0.00    +0.000 A 
ATOM     14  C   UNL     1       3.559  -9.728  35.085  0.00  0.00    +0.000 A 
BRANCH  10  15
ATOM     15  C   UNL     1       5.783  -8.674  34.560  0.00  0.00    +0.000 A 
ATOM     16  C   UNL     1       6.791  -8.020  35.293  0.00  0.00    +0.000 A 
ATOM     17  C   UNL     1       5.621  -8.291  33.215  0.00  0.00    +0.000 A 
ATOM     18  C   UNL     1       7.624  -7.064  34.699  0.00  0.00    +0.000 A 
ATOM     19  C   UNL     1       6.459  -7.347  32.614  0.00  0.00    +0.000 A 
ATOM     20  C   UNL     1       7.467  -6.740  33.355  0.00  0.00    +0.000 A 
ENDBRANCH  10  15
ENDBRANCH   4   9
BRANCH   5  22
ATOM     21  N   UNL     1       2.338 -14.304  33.732  0.00  0.00    +0.000 NA
ATOM     22  C   UNL     1       2.809 -14.734  34.855  0.00  0.00    +0.000 C 
BRANCH  21  23
ATOM     23  O   UNL     1       2.859 -15.071  32.680  0.00  0.00    +0.000 OA
BRANCH  23  24
ATOM     24  C   UNL     1       4.282 -15.077  32.827  0.00  0.00    +0.000 C 
BRANCH  24  27
ATOM     25 CL   UNL     1       7.678 -11.181  32.939  0.00  0.00    +0.000 Cl
ATOM     26 CL   UNL     1       7.518 -11.076  29.689  0.00  0.00    +0.000 Cl
ATOM     27  C   UNL     1       4.948 -13.968  32.053  0.00  0.00    +0.000 A 
ATOM     28  C   UNL     1       5.816 -13.096  32.731  0.00  0.00    +0.000 A 
ATOM     29  C   UNL     1       4.838 -13.868  30.661  0.00  0.00    +0.000 A 
ATOM     30  C   UNL     1       6.599 -12.177  32.028  0.00  0.00    +0.000 A 
ATOM     31  C   UNL     1       5.615 -12.945  29.957  0.00  0.00    +0.000 A 
ATOM     32  C   UNL     1       6.514 -12.116  30.634  0.00  0.00    +0.000 A 
ENDBRANCH  24  27
ENDBRANCH  23  24
ENDBRANCH  21  23
ENDBRANCH   5  22
TORSDOF 6
ENDMDL
MODEL 10
REMARK VINA RESULT:      -5.4     18.062     22.876
REMARK  Name = 142505452
REMARK  6 active torsions:
REMARK  status: ('A' for Active; 'I' for Inactive)
REMARK    1  A    between atoms: O_4  and  N_7
REMARK    2  A    between atoms: O_4  and  C_23
REMARK    3  A    between atoms: C_8  and  C_10
REMARK    4  A    between atoms: C_9  and  C_18
REMARK    5  A    between atoms: C_12  and  C_19
REMARK    6  A    between atoms: C_23  and  C_24
REMARK                            x       y       z     vdW  Elec       q    Type
REMARK                         _______ _______ _______ _____ _____    ______ ____
ROOT
ATOM      1  S   UNL     1      -6.440  13.311  34.027  0.00  0.00    +0.000 S 
ATOM      2  N   UNL     1      -3.997  12.714  34.543  0.00  0.00    +0.000 N 
ATOM      3  N   UNL     1      -5.330  11.366  35.722  0.00  0.00    +0.000 NA
ATOM      4  C   UNL     1      -3.995  11.059  35.956  0.00  0.00    +0.000 A 
ATOM      5  C   UNL     1      -3.139  11.905  35.248  0.00  0.00    +0.000 A 
ATOM      6  C   UNL     1      -5.271  12.342  34.865  0.00  0.00    +0.000 A 
ATOM      7  C   UNL     1      -3.898  13.766  33.656  0.00  0.00    +0.000 A 
ATOM      8  C   UNL     1      -5.110  14.204  33.272  0.00  0.00    +0.000 A 
ENDROOT
BRANCH   4   9
ATOM      9  C   UNL     1      -3.608   9.960  36.832  0.00  0.00    +0.000 A 
ATOM     10  C   UNL     1      -2.904   7.858  38.635  0.00  0.00    +0.000 A 
ATOM     11  C   UNL     1      -2.398   9.270  36.697  0.00  0.00    +0.000 A 
ATOM     12  C   UNL     1      -4.485   9.557  37.841  0.00  0.00    +0.000 A 
ATOM     13  C   UNL     1      -2.048   8.245  37.590  0.00  0.00    +0.000 A 
ATOM     14  C   UNL     1      -4.135   8.531  38.726  0.00  0.00    +0.000 A 
BRANCH  10  15
ATOM     15  C   UNL     1      -2.526   6.812  39.615  0.00  0.00    +0.000 A 
ATOM     16  C   UNL     1      -1.526   5.862  39.333  0.00  0.00    +0.000 A 
ATOM     17  C   UNL     1      -3.119   6.757  40.891  0.00  0.00    +0.000 A 
ATOM     18  C   UNL     1      -1.109   4.934  40.295  0.00  0.00    +0.000 A 
ATOM     19  C   UNL     1      -2.696   5.840  41.858  0.00  0.00    +0.000 A 
ATOM     20  C   UNL     1      -1.683   4.934  41.562  0.00  0.00    +0.000 A 
ENDBRANCH  10  15
ENDBRANCH   4   9
BRANCH   5  22
ATOM     21  N   UNL     1      -1.085  12.761  35.984  0.00  0.00    +0.000 NA
ATOM     22  C   UNL     1      -1.715  11.955  35.195  0.00  0.00    +0.000 C 
BRANCH  21  23
ATOM     23  O   UNL     1       0.279  12.767  35.658  0.00  0.00    +0.000 OA
BRANCH  23  24
ATOM     24  C   UNL     1       0.382  12.426  34.273  0.00  0.00    +0.000 C 
BRANCH  24  27
ATOM     25 CL   UNL     1       2.371  17.197  34.235  0.00  0.00    +0.000 Cl
ATOM     26 CL   UNL     1       3.025  16.796  31.071  0.00  0.00    +0.000 Cl
ATOM     27  C   UNL     1       0.877  13.574  33.430  0.00  0.00    +0.000 A 
ATOM     28  C   UNL     1       1.255  14.767  34.069  0.00  0.00    +0.000 A 
ATOM     29  C   UNL     1       1.103  13.440  32.055  0.00  0.00    +0.000 A 
ATOM     30  C   UNL     1       1.894  15.787  33.358  0.00  0.00    +0.000 A 
ATOM     31  C   UNL     1       1.736  14.461  31.342  0.00  0.00    +0.000 A 
ATOM     32  C   UNL     1       2.155  15.625  31.994  0.00  0.00    +0.000 A 
ENDBRANCH  24  27
ENDBRANCH  23  24
ENDBRANCH  21  23
ENDBRANCH   5  22
TORSDOF 6
ENDMDL
