MODEL 1
REMARK VINA RESULT:      -6.1      0.000      0.000
REMARK  Name = 142505419
REMARK  5 active torsions:
REMARK  status: ('A' for Active; 'I' for Inactive)
REMARK    1  A    between atoms: O_4  and  N_7
REMARK    2  A    between atoms: O_4  and  C_24
REMARK    3  A    between atoms: C_8  and  C_9
REMARK    4  A    between atoms: C_10  and  C_18
REMARK    5  A    between atoms: C_24  and  C_25
REMARK                            x       y       z     vdW  Elec       q    Type
REMARK                         _______ _______ _______ _____ _____    ______ ____
ROOT
ATOM      1  S   UNL     1     -16.618   3.453  23.462  0.00  0.00    +0.000 S 
ATOM      2  N   UNL     1     -16.031   5.947  23.331  0.00  0.00    +0.000 N 
ATOM      3  N   UNL     1     -14.845   4.850  21.792  0.00  0.00    +0.000 NA
ATOM      4  C   UNL     1     -14.543   6.208  21.762  0.00  0.00    +0.000 A 
ATOM      5  C   UNL     1     -15.268   6.916  22.731  0.00  0.00    +0.000 A 
ATOM      6  C   UNL     1     -15.737   4.761  22.735  0.00  0.00    +0.000 A 
ATOM      7  C   UNL     1     -16.930   5.875  24.375  0.00  0.00    +0.000 A 
ATOM      8  C   UNL     1     -17.346   4.615  24.584  0.00  0.00    +0.000 A 
ENDROOT
BRANCH   4   9
ATOM      9  C   UNL     1     -13.560   6.743  20.827  0.00  0.00    +0.000 A 
ATOM     10  C   UNL     1     -13.081   7.923  18.735  0.00  0.00    +0.000 A 
ATOM     11  C   UNL     1     -13.995   7.429  19.685  0.00  0.00    +0.000 A 
ATOM     12  C   UNL     1     -11.697   7.721  18.936  0.00  0.00    +0.000 A 
ATOM     13  C   UNL     1     -12.183   6.599  21.034  0.00  0.00    +0.000 A 
ATOM     14  C   UNL     1     -11.263   7.054  20.088  0.00  0.00    +0.000 A 
ATOM     15  C   UNL     1     -13.507   8.611  17.586  0.00  0.00    +0.000 A 
ATOM     16  C   UNL     1     -10.777   8.193  17.988  0.00  0.00    +0.000 A 
ATOM     17  C   UNL     1     -12.580   9.087  16.657  0.00  0.00    +0.000 A 
ATOM     18  C   UNL     1     -11.220   8.878  16.854  0.00  0.00    +0.000 A 
ENDBRANCH   4   9
BRANCH   5  20
ATOM     19  N   UNL     1     -15.693   9.196  22.336  0.00  0.00    +0.000 NA
ATOM     20  C   UNL     1     -15.241   8.290  23.134  0.00  0.00    +0.000 C 
BRANCH  19  21
ATOM     21  O   UNL     1     -15.587  10.465  22.911  0.00  0.00    +0.000 OA
BRANCH  21  22
ATOM     22  C   UNL     1     -14.202  10.682  23.198  0.00  0.00    +0.000 C 
BRANCH  22  25
ATOM     23 CL   UNL     1     -14.074  13.459  18.802  0.00  0.00    +0.000 Cl
ATOM     24 CL   UNL     1     -11.149  12.163  18.207  0.00  0.00    +0.000 Cl
ATOM     25  C   UNL     1     -13.484  11.026  21.922  0.00  0.00    +0.000 A 
ATOM     26  C   UNL     1     -14.029  11.955  21.024  0.00  0.00    +0.000 A 
ATOM     27  C   UNL     1     -12.249  10.436  21.628  0.00  0.00    +0.000 A 
ATOM     28  C   UNL     1     -13.336  12.309  19.861  0.00  0.00    +0.000 A 
ATOM     29  C   UNL     1     -11.554  10.790  20.470  0.00  0.00    +0.000 A 
ATOM     30  C   UNL     1     -12.088  11.737  19.592  0.00  0.00    +0.000 A 
ENDBRANCH  22  25
ENDBRANCH  21  22
ENDBRANCH  19  21
ENDBRANCH   5  20
TORSDOF 5
ENDMDL
MODEL 2
REMARK VINA RESULT:      -5.5     23.393     25.602
REMARK  Name = 142505419
REMARK  5 active torsions:
REMARK  status: ('A' for Active; 'I' for Inactive)
REMARK    1  A    between atoms: O_4  and  N_7
REMARK    2  A    between atoms: O_4  and  C_24
REMARK    3  A    between atoms: C_8  and  C_9
REMARK    4  A    between atoms: C_10  and  C_18
REMARK    5  A    between atoms: C_24  and  C_25
REMARK                            x       y       z     vdW  Elec       q    Type
REMARK                         _______ _______ _______ _____ _____    ______ ____
ROOT
ATOM      1  S   UNL     1      11.675  17.217  27.639  0.00  0.00    +0.000 S 
ATOM      2  N   UNL     1      11.584  15.134  26.143  0.00  0.00    +0.000 N 
ATOM      3  N   UNL     1      10.306  16.724  25.238  0.00  0.00    +0.000 NA
ATOM      4  C   UNL     1      10.270  15.570  24.461  0.00  0.00    +0.000 A 
ATOM      5  C   UNL     1      11.057  14.552  25.019  0.00  0.00    +0.000 A 
ATOM      6  C   UNL     1      11.106  16.405  26.213  0.00  0.00    +0.000 A 
ATOM      7  C   UNL     1      12.388  14.748  27.196  0.00  0.00    +0.000 A 
ATOM      8  C   UNL     1      12.542  15.739  28.090  0.00  0.00    +0.000 A 
ENDROOT
BRANCH   4   9
ATOM      9  C   UNL     1       9.466  15.500  23.246  0.00  0.00    +0.000 A 
ATOM     10  C   UNL     1       7.270  15.647  22.174  0.00  0.00    +0.000 A 
ATOM     11  C   UNL     1       8.088  15.747  23.314  0.00  0.00    +0.000 A 
ATOM     12  C   UNL     1       7.848  15.286  20.937  0.00  0.00    +0.000 A 
ATOM     13  C   UNL     1      10.028  15.195  22.001  0.00  0.00    +0.000 A 
ATOM     14  C   UNL     1       9.227  15.060  20.866  0.00  0.00    +0.000 A 
ATOM     15  C   UNL     1       5.887  15.892  22.231  0.00  0.00    +0.000 A 
ATOM     16  C   UNL     1       7.039  15.166  19.796  0.00  0.00    +0.000 A 
ATOM     17  C   UNL     1       5.096  15.781  21.086  0.00  0.00    +0.000 A 
ATOM     18  C   UNL     1       5.668  15.417  19.873  0.00  0.00    +0.000 A 
ENDBRANCH   4   9
BRANCH   5  20
ATOM     19  N   UNL     1      10.517  12.265  25.137  0.00  0.00    +0.000 NA
ATOM     20  C   UNL     1      11.269  13.187  24.640  0.00  0.00    +0.000 C 
BRANCH  19  21
ATOM     21  O   UNL     1      10.875  11.008  24.641  0.00  0.00    +0.000 OA
BRANCH  21  22
ATOM     22  C   UNL     1      10.802  11.084  23.214  0.00  0.00    +0.000 C 
BRANCH  22  25
ATOM     23 CL   UNL     1      11.147   6.137  21.646  0.00  0.00    +0.000 Cl
ATOM     24 CL   UNL     1      14.166   6.795  20.624  0.00  0.00    +0.000 Cl
ATOM     25  C   UNL     1      11.639   9.985  22.619  0.00  0.00    +0.000 A 
ATOM     26  C   UNL     1      11.106   8.701  22.434  0.00  0.00    +0.000 A 
ATOM     27  C   UNL     1      12.957  10.241  22.223  0.00  0.00    +0.000 A 
ATOM     28  C   UNL     1      11.872   7.694  21.837  0.00  0.00    +0.000 A 
ATOM     29  C   UNL     1      13.723   9.239  21.624  0.00  0.00    +0.000 A 
ATOM     30  C   UNL     1      13.178   7.969  21.417  0.00  0.00    +0.000 A 
ENDBRANCH  22  25
ENDBRANCH  21  22
ENDBRANCH  19  21
ENDBRANCH   5  20
TORSDOF 5
ENDMDL
MODEL 3
REMARK VINA RESULT:      -5.5      4.311      8.349
REMARK  Name = 142505419
REMARK  5 active torsions:
REMARK  status: ('A' for Active; 'I' for Inactive)
REMARK    1  A    between atoms: O_4  and  N_7
REMARK    2  A    between atoms: O_4  and  C_24
REMARK    3  A    between atoms: C_8  and  C_9
REMARK    4  A    between atoms: C_10  and  C_18
REMARK    5  A    between atoms: C_24  and  C_25
REMARK                            x       y       z     vdW  Elec       q    Type
REMARK                         _______ _______ _______ _____ _____    ______ ____
ROOT
ATOM      1  S   UNL     1     -20.910   2.110  24.334  0.00  0.00    +0.000 S 
ATOM      2  N   UNL     1     -18.600   3.225  24.324  0.00  0.00    +0.000 N 
ATOM      3  N   UNL     1     -18.929   2.275  26.316  0.00  0.00    +0.000 NA
ATOM      4  C   UNL     1     -17.689   2.905  26.276  0.00  0.00    +0.000 A 
ATOM      5  C   UNL     1     -17.466   3.521  25.036  0.00  0.00    +0.000 A 
ATOM      6  C   UNL     1     -19.415   2.493  25.129  0.00  0.00    +0.000 A 
ATOM      7  C   UNL     1     -19.114   3.523  23.079  0.00  0.00    +0.000 A 
ATOM      8  C   UNL     1     -20.343   3.005  22.914  0.00  0.00    +0.000 A 
ENDROOT
BRANCH   4   9
ATOM      9  C   UNL     1     -16.802   2.904  27.434  0.00  0.00    +0.000 A 
ATOM     10  C   UNL     1     -15.486   1.638  29.066  0.00  0.00    +0.000 A 
ATOM     11  C   UNL     1     -16.308   1.686  27.925  0.00  0.00    +0.000 A 
ATOM     12  C   UNL     1     -15.154   2.838  29.731  0.00  0.00    +0.000 A 
ATOM     13  C   UNL     1     -16.419   4.086  28.076  0.00  0.00    +0.000 A 
ATOM     14  C   UNL     1     -15.629   4.054  29.228  0.00  0.00    +0.000 A 
ATOM     15  C   UNL     1     -14.987   0.423  29.567  0.00  0.00    +0.000 A 
ATOM     16  C   UNL     1     -14.349   2.800  30.880  0.00  0.00    +0.000 A 
ATOM     17  C   UNL     1     -14.177   0.401  30.703  0.00  0.00    +0.000 A 
ATOM     18  C   UNL     1     -13.860   1.584  31.360  0.00  0.00    +0.000 A 
ENDBRANCH   4   9
BRANCH   5  20
ATOM     19  N   UNL     1     -15.277   3.798  24.219  0.00  0.00    +0.000 NA
ATOM     20  C   UNL     1     -16.397   4.343  24.551  0.00  0.00    +0.000 C 
BRANCH  19  21
ATOM     21  O   UNL     1     -14.370   4.761  23.767  0.00  0.00    +0.000 OA
BRANCH  21  22
ATOM     22  C   UNL     1     -14.479   4.802  22.340  0.00  0.00    +0.000 C 
BRANCH  22  25
ATOM     23 CL   UNL     1     -14.603   9.935  21.509  0.00  0.00    +0.000 Cl
ATOM     24 CL   UNL     1     -11.527   9.721  20.467  0.00  0.00    +0.000 Cl
ATOM     25  C   UNL     1     -13.782   6.033  21.829  0.00  0.00    +0.000 A 
ATOM     26  C   UNL     1     -14.419   7.282  21.867  0.00  0.00    +0.000 A 
ATOM     27  C   UNL     1     -12.478   5.947  21.330  0.00  0.00    +0.000 A 
ATOM     28  C   UNL     1     -13.751   8.432  21.435  0.00  0.00    +0.000 A 
ATOM     29  C   UNL     1     -11.807   7.093  20.901  0.00  0.00    +0.000 A 
ATOM     30  C   UNL     1     -12.436   8.340  20.966  0.00  0.00    +0.000 A 
ENDBRANCH  22  25
ENDBRANCH  21  22
ENDBRANCH  19  21
ENDBRANCH   5  20
TORSDOF 5
ENDMDL
MODEL 4
REMARK VINA RESULT:      -5.4     18.383     20.140
REMARK  Name = 142505419
REMARK  5 active torsions:
REMARK  status: ('A' for Active; 'I' for Inactive)
REMARK    1  A    between atoms: O_4  and  N_7
REMARK    2  A    between atoms: O_4  and  C_24
REMARK    3  A    between atoms: C_8  and  C_9
REMARK    4  A    between atoms: C_10  and  C_18
REMARK    5  A    between atoms: C_24  and  C_25
REMARK                            x       y       z     vdW  Elec       q    Type
REMARK                         _______ _______ _______ _____ _____    ______ ____
ROOT
ATOM      1  S   UNL     1      -0.016  12.750  34.647  0.00  0.00    +0.000 S 
ATOM      2  N   UNL     1      -2.132  11.628  35.566  0.00  0.00    +0.000 N 
ATOM      3  N   UNL     1      -0.350  10.483  36.269  0.00  0.00    +0.000 NA
ATOM      4  C   UNL     1      -1.522   9.895  36.736  0.00  0.00    +0.000 A 
ATOM      5  C   UNL     1      -2.656  10.592  36.295  0.00  0.00    +0.000 A 
ATOM      6  C   UNL     1      -0.778  11.508  35.590  0.00  0.00    +0.000 A 
ATOM      7  C   UNL     1      -2.617  12.671  34.805  0.00  0.00    +0.000 A 
ATOM      8  C   UNL     1      -1.622  13.376  34.239  0.00  0.00    +0.000 A 
ENDROOT
BRANCH   4   9
ATOM      9  C   UNL     1      -1.489   8.688  37.554  0.00  0.00    +0.000 A 
ATOM     10  C   UNL     1      -2.370   7.416  39.452  0.00  0.00    +0.000 A 
ATOM     11  C   UNL     1      -2.398   8.544  38.611  0.00  0.00    +0.000 A 
ATOM     12  C   UNL     1      -1.405   6.410  39.227  0.00  0.00    +0.000 A 
ATOM     13  C   UNL     1      -0.574   7.656  37.316  0.00  0.00    +0.000 A 
ATOM     14  C   UNL     1      -0.511   6.544  38.159  0.00  0.00    +0.000 A 
ATOM     15  C   UNL     1      -3.277   7.263  40.515  0.00  0.00    +0.000 A 
ATOM     16  C   UNL     1      -1.356   5.288  40.070  0.00  0.00    +0.000 A 
ATOM     17  C   UNL     1      -3.225   6.136  41.337  0.00  0.00    +0.000 A 
ATOM     18  C   UNL     1      -2.268   5.152  41.118  0.00  0.00    +0.000 A 
ENDBRANCH   4   9
BRANCH   5  20
ATOM     19  N   UNL     1      -4.731  10.968  37.338  0.00  0.00    +0.000 NA
ATOM     20  C   UNL     1      -4.058  10.333  36.441  0.00  0.00    +0.000 C 
BRANCH  19  21
ATOM     21  O   UNL     1      -6.075  10.583  37.318  0.00  0.00    +0.000 OA
BRANCH  21  22
ATOM     22  C   UNL     1      -6.362  10.132  35.990  0.00  0.00    +0.000 C 
BRANCH  22  25
ATOM     23 CL   UNL     1     -10.210   7.337  38.096  0.00  0.00    +0.000 Cl
ATOM     24 CL   UNL     1     -12.170   8.506  35.776  0.00  0.00    +0.000 Cl
ATOM     25  C   UNL     1      -7.792   9.671  35.927  0.00  0.00    +0.000 A 
ATOM     26  C   UNL     1      -8.307   8.802  36.899  0.00  0.00    +0.000 A 
ATOM     27  C   UNL     1      -8.633  10.125  34.903  0.00  0.00    +0.000 A 
ATOM     28  C   UNL     1      -9.650   8.413  36.864  0.00  0.00    +0.000 A 
ATOM     29  C   UNL     1      -9.974   9.741  34.867  0.00  0.00    +0.000 A 
ATOM     30  C   UNL     1     -10.489   8.897  35.855  0.00  0.00    +0.000 A 
ENDBRANCH  22  25
ENDBRANCH  21  22
ENDBRANCH  19  21
ENDBRANCH   5  20
TORSDOF 5
ENDMDL
MODEL 5
REMARK VINA RESULT:      -5.2     17.517     19.478
REMARK  Name = 142505419
REMARK  5 active torsions:
REMARK  status: ('A' for Active; 'I' for Inactive)
REMARK    1  A    between atoms: O_4  and  N_7
REMARK    2  A    between atoms: O_4  and  C_24
REMARK    3  A    between atoms: C_8  and  C_9
REMARK    4  A    between atoms: C_10  and  C_18
REMARK    5  A    between atoms: C_24  and  C_25
REMARK                            x       y       z     vdW  Elec       q    Type
REMARK                         _______ _______ _______ _____ _____    ______ ____
ROOT
ATOM      1  S   UNL     1      -0.641  20.276  27.238  0.00  0.00    +0.000 S 
ATOM      2  N   UNL     1      -0.399  19.242  24.902  0.00  0.00    +0.000 N 
ATOM      3  N   UNL     1       1.422  18.751  26.095  0.00  0.00    +0.000 NA
ATOM      4  C   UNL     1       1.522  18.219  24.813  0.00  0.00    +0.000 A 
ATOM      5  C   UNL     1       0.393  18.527  24.041  0.00  0.00    +0.000 A 
ATOM      6  C   UNL     1       0.260  19.337  26.088  0.00  0.00    +0.000 A 
ATOM      7  C   UNL     1      -1.607  19.905  24.845  0.00  0.00    +0.000 A 
ATOM      8  C   UNL     1      -1.893  20.515  26.008  0.00  0.00    +0.000 A 
ENDROOT
BRANCH   4   9
ATOM      9  C   UNL     1       2.701  17.470  24.395  0.00  0.00    +0.000 A 
ATOM     10  C   UNL     1       5.120  17.408  24.013  0.00  0.00    +0.000 A 
ATOM     11  C   UNL     1       3.963  18.081  24.449  0.00  0.00    +0.000 A 
ATOM     12  C   UNL     1       5.008  16.094  23.509  0.00  0.00    +0.000 A 
ATOM     13  C   UNL     1       2.619  16.149  23.941  0.00  0.00    +0.000 A 
ATOM     14  C   UNL     1       3.751  15.478  23.475  0.00  0.00    +0.000 A 
ATOM     15  C   UNL     1       6.389  18.011  24.062  0.00  0.00    +0.000 A 
ATOM     16  C   UNL     1       6.152  15.420  23.055  0.00  0.00    +0.000 A 
ATOM     17  C   UNL     1       7.520  17.325  23.620  0.00  0.00    +0.000 A 
ATOM     18  C   UNL     1       7.404  16.035  23.116  0.00  0.00    +0.000 A 
ENDBRANCH   4   9
BRANCH   5  20
ATOM     19  N   UNL     1      -0.106  17.066  22.266  0.00  0.00    +0.000 NA
ATOM     20  C   UNL     1       0.074  18.277  22.666  0.00  0.00    +0.000 C 
BRANCH  19  21
ATOM     21  O   UNL     1      -0.414  17.032  20.902  0.00  0.00    +0.000 OA
BRANCH  21  22
ATOM     22  C   UNL     1       0.479  17.941  20.249  0.00  0.00    +0.000 C 
BRANCH  22  25
ATOM     23 CL   UNL     1       5.670  18.072  20.542  0.00  0.00    +0.000 Cl
ATOM     24 CL   UNL     1       5.692  15.009  19.440  0.00  0.00    +0.000 Cl
ATOM     25  C   UNL     1       1.793  17.250  20.006  0.00  0.00    +0.000 A 
ATOM     26  C   UNL     1       3.003  17.885  20.319  0.00  0.00    +0.000 A 
ATOM     27  C   UNL     1       1.818  15.951  19.483  0.00  0.00    +0.000 A 
ATOM     28  C   UNL     1       4.221  17.221  20.136  0.00  0.00    +0.000 A 
ATOM     29  C   UNL     1       3.032  15.285  19.302  0.00  0.00    +0.000 A 
ATOM     30  C   UNL     1       4.234  15.913  19.642  0.00  0.00    +0.000 A 
ENDBRANCH  22  25
ENDBRANCH  21  22
ENDBRANCH  19  21
ENDBRANCH   5  20
TORSDOF 5
ENDMDL
MODEL 6
REMARK VINA RESULT:      -5.0     10.369     12.640
REMARK  Name = 142505419
REMARK  5 active torsions:
REMARK  status: ('A' for Active; 'I' for Inactive)
REMARK    1  A    between atoms: O_4  and  N_7
REMARK    2  A    between atoms: O_4  and  C_24
REMARK    3  A    between atoms: C_8  and  C_9
REMARK    4  A    between atoms: C_10  and  C_18
REMARK    5  A    between atoms: C_24  and  C_25
REMARK                            x       y       z     vdW  Elec       q    Type
REMARK                         _______ _______ _______ _____ _____    ______ ____
ROOT
ATOM      1  S   UNL     1     -23.863   4.375  30.392  0.00  0.00    +0.000 S 
ATOM      2  N   UNL     1     -21.682   3.312  29.558  0.00  0.00    +0.000 N 
ATOM      3  N   UNL     1     -21.179   5.028  30.893  0.00  0.00    +0.000 NA
ATOM      4  C   UNL     1     -20.019   4.433  30.407  0.00  0.00    +0.000 A 
ATOM      5  C   UNL     1     -20.312   3.360  29.554  0.00  0.00    +0.000 A 
ATOM      6  C   UNL     1     -22.128   4.314  30.361  0.00  0.00    +0.000 A 
ATOM      7  C   UNL     1     -22.667   2.576  28.932  0.00  0.00    +0.000 A 
ATOM      8  C   UNL     1     -23.895   3.009  29.264  0.00  0.00    +0.000 A 
ENDROOT
BRANCH   4   9
ATOM      9  C   UNL     1     -18.700   4.942  30.767  0.00  0.00    +0.000 A 
ATOM     10  C   UNL     1     -16.774   4.895  32.279  0.00  0.00    +0.000 A 
ATOM     11  C   UNL     1     -18.028   4.401  31.872  0.00  0.00    +0.000 A 
ATOM     12  C   UNL     1     -16.182   5.957  31.560  0.00  0.00    +0.000 A 
ATOM     13  C   UNL     1     -18.073   5.958  30.037  0.00  0.00    +0.000 A 
ATOM     14  C   UNL     1     -16.844   6.481  30.444  0.00  0.00    +0.000 A 
ATOM     15  C   UNL     1     -16.092   4.360  33.386  0.00  0.00    +0.000 A 
ATOM     16  C   UNL     1     -14.940   6.469  31.967  0.00  0.00    +0.000 A 
ATOM     17  C   UNL     1     -14.852   4.871  33.772  0.00  0.00    +0.000 A 
ATOM     18  C   UNL     1     -14.277   5.922  33.067  0.00  0.00    +0.000 A 
ENDBRANCH   4   9
BRANCH   5  20
ATOM     19  N   UNL     1     -18.804   3.007  27.783  0.00  0.00    +0.000 NA
ATOM     20  C   UNL     1     -19.475   2.507  28.763  0.00  0.00    +0.000 C 
BRANCH  19  21
ATOM     21  O   UNL     1     -18.048   2.021  27.142  0.00  0.00    +0.000 OA
BRANCH  21  22
ATOM     22  C   UNL     1     -16.717   2.532  27.013  0.00  0.00    +0.000 C 
BRANCH  22  25
ATOM     23 CL   UNL     1     -15.347  -0.591  30.940  0.00  0.00    +0.000 Cl
ATOM     24 CL   UNL     1     -13.621   1.887  32.153  0.00  0.00    +0.000 Cl
ATOM     25  C   UNL     1     -15.996   2.362  28.323  0.00  0.00    +0.000 A 
ATOM     26  C   UNL     1     -16.001   1.127  28.986  0.00  0.00    +0.000 A 
ATOM     27  C   UNL     1     -15.292   3.435  28.882  0.00  0.00    +0.000 A 
ATOM     28  C   UNL     1     -15.290   0.960  30.180  0.00  0.00    +0.000 A 
ATOM     29  C   UNL     1     -14.580   3.271  30.071  0.00  0.00    +0.000 A 
ATOM     30  C   UNL     1     -14.565   2.030  30.714  0.00  0.00    +0.000 A 
ENDBRANCH  22  25
ENDBRANCH  21  22
ENDBRANCH  19  21
ENDBRANCH   5  20
TORSDOF 5
ENDMDL
MODEL 7
REMARK VINA RESULT:      -5.0     20.440     23.980
REMARK  Name = 142505419
REMARK  5 active torsions:
REMARK  status: ('A' for Active; 'I' for Inactive)
REMARK    1  A    between atoms: O_4  and  N_7
REMARK    2  A    between atoms: O_4  and  C_24
REMARK    3  A    between atoms: C_8  and  C_9
REMARK    4  A    between atoms: C_10  and  C_18
REMARK    5  A    between atoms: C_24  and  C_25
REMARK                            x       y       z     vdW  Elec       q    Type
REMARK                         _______ _______ _______ _____ _____    ______ ____
ROOT
ATOM      1  S   UNL     1       3.124  13.164   4.099  0.00  0.00    +0.000 S 
ATOM      2  N   UNL     1       1.774  11.849   2.358  0.00  0.00    +0.000 N 
ATOM      3  N   UNL     1       0.760  11.669   4.338  0.00  0.00    +0.000 NA
ATOM      4  C   UNL     1       0.064  10.955   3.367  0.00  0.00    +0.000 A 
ATOM      5  C   UNL     1       0.691  11.043   2.117  0.00  0.00    +0.000 A 
ATOM      6  C   UNL     1       1.757  12.181   3.676  0.00  0.00    +0.000 A 
ATOM      7  C   UNL     1       2.852  12.329   1.644  0.00  0.00    +0.000 A 
ATOM      8  C   UNL     1       3.677  13.053   2.419  0.00  0.00    +0.000 A 
ENDROOT
BRANCH   4   9
ATOM      9  C   UNL     1      -1.145  10.209   3.698  0.00  0.00    +0.000 A 
ATOM     10  C   UNL     1      -3.519   9.770   3.283  0.00  0.00    +0.000 A 
ATOM     11  C   UNL     1      -2.320  10.436   2.967  0.00  0.00    +0.000 A 
ATOM     12  C   UNL     1      -3.540   8.858   4.361  0.00  0.00    +0.000 A 
ATOM     13  C   UNL     1      -1.174   9.263   4.729  0.00  0.00    +0.000 A 
ATOM     14  C   UNL     1      -2.362   8.616   5.077  0.00  0.00    +0.000 A 
ATOM     15  C   UNL     1      -4.702   9.991   2.556  0.00  0.00    +0.000 A 
ATOM     16  C   UNL     1      -4.734   8.201   4.696  0.00  0.00    +0.000 A 
ATOM     17  C   UNL     1      -5.879   9.321   2.893  0.00  0.00    +0.000 A 
ATOM     18  C   UNL     1      -5.898   8.431   3.960  0.00  0.00    +0.000 A 
ENDBRANCH   4   9
BRANCH   5  20
ATOM     19  N   UNL     1      -0.239  11.087  -0.044  0.00  0.00    +0.000 NA
ATOM     20  C   UNL     1       0.407  10.427   0.855  0.00  0.00    +0.000 C 
BRANCH  19  21
ATOM     21  O   UNL     1      -0.409  10.320  -1.200  0.00  0.00    +0.000 OA
BRANCH  21  22
ATOM     22  C   UNL     1      -1.433   9.360  -0.919  0.00  0.00    +0.000 C 
BRANCH  22  25
ATOM     23 CL   UNL     1      -3.715  11.641  -4.999  0.00  0.00    +0.000 Cl
ATOM     24 CL   UNL     1      -6.586  10.829  -3.698  0.00  0.00    +0.000 Cl
ATOM     25  C   UNL     1      -2.704   9.783  -1.604  0.00  0.00    +0.000 A 
ATOM     26  C   UNL     1      -2.663  10.458  -2.832  0.00  0.00    +0.000 A 
ATOM     27  C   UNL     1      -3.945   9.486  -1.029  0.00  0.00    +0.000 A 
ATOM     28  C   UNL     1      -3.848  10.808  -3.490  0.00  0.00    +0.000 A 
ATOM     29  C   UNL     1      -5.129   9.830  -1.684  0.00  0.00    +0.000 A 
ATOM     30  C   UNL     1      -5.083  10.479  -2.922  0.00  0.00    +0.000 A 
ENDBRANCH  22  25
ENDBRANCH  21  22
ENDBRANCH  19  21
ENDBRANCH   5  20
TORSDOF 5
ENDMDL
MODEL 8
REMARK VINA RESULT:      -5.0     18.318     20.728
REMARK  Name = 142505419
REMARK  5 active torsions:
REMARK  status: ('A' for Active; 'I' for Inactive)
REMARK    1  A    between atoms: O_4  and  N_7
REMARK    2  A    between atoms: O_4  and  C_24
REMARK    3  A    between atoms: C_8  and  C_9
REMARK    4  A    between atoms: C_10  and  C_18
REMARK    5  A    between atoms: C_24  and  C_25
REMARK                            x       y       z     vdW  Elec       q    Type
REMARK                         _______ _______ _______ _____ _____    ______ ____
ROOT
ATOM      1  S   UNL     1       4.354  20.843  27.177  0.00  0.00    +0.000 S 
ATOM      2  N   UNL     1       5.400  19.192  25.514  0.00  0.00    +0.000 N 
ATOM      3  N   UNL     1       3.183  18.946  25.471  0.00  0.00    +0.000 NA
ATOM      4  C   UNL     1       3.790  18.054  24.591  0.00  0.00    +0.000 A 
ATOM      5  C   UNL     1       5.185  18.183  24.612  0.00  0.00    +0.000 A 
ATOM      6  C   UNL     1       4.188  19.596  25.980  0.00  0.00    +0.000 A 
ATOM      7  C   UNL     1       6.489  19.823  26.081  0.00  0.00    +0.000 A 
ATOM      8  C   UNL     1       6.113  20.736  26.993  0.00  0.00    +0.000 A 
ENDROOT
BRANCH   4   9
ATOM      9  C   UNL     1       3.001  17.116  23.801  0.00  0.00    +0.000 A 
ATOM     10  C   UNL     1       1.364  16.730  22.021  0.00  0.00    +0.000 A 
ATOM     11  C   UNL     1       2.174  17.597  22.776  0.00  0.00    +0.000 A 
ATOM     12  C   UNL     1       1.380  15.346  22.304  0.00  0.00    +0.000 A 
ATOM     13  C   UNL     1       3.042  15.736  24.031  0.00  0.00    +0.000 A 
ATOM     14  C   UNL     1       2.221  14.863  23.313  0.00  0.00    +0.000 A 
ATOM     15  C   UNL     1       0.531  17.203  20.992  0.00  0.00    +0.000 A 
ATOM     16  C   UNL     1       0.563  14.473  21.569  0.00  0.00    +0.000 A 
ATOM     17  C   UNL     1      -0.267  16.322  20.260  0.00  0.00    +0.000 A 
ATOM     18  C   UNL     1      -0.254  14.962  20.548  0.00  0.00    +0.000 A 
ENDBRANCH   4   9
BRANCH   5  20
ATOM     19  N   UNL     1       6.492  17.687  22.719  0.00  0.00    +0.000 NA
ATOM     20  C   UNL     1       6.227  17.448  23.957  0.00  0.00    +0.000 C 
BRANCH  19  21
ATOM     21  O   UNL     1       7.538  16.877  22.267  0.00  0.00    +0.000 OA
BRANCH  21  22
ATOM     22  C   UNL     1       6.967  15.613  21.915  0.00  0.00    +0.000 C 
BRANCH  22  25
ATOM     23 CL   UNL     1       6.975  16.316  16.762  0.00  0.00    +0.000 Cl
ATOM     24 CL   UNL     1       3.736  16.006  16.833  0.00  0.00    +0.000 Cl
ATOM     25  C   UNL     1       6.179  15.767  20.643  0.00  0.00    +0.000 A 
ATOM     26  C   UNL     1       6.832  15.969  19.418  0.00  0.00    +0.000 A 
ATOM     27  C   UNL     1       4.782  15.687  20.667  0.00  0.00    +0.000 A 
ATOM     28  C   UNL     1       6.099  16.064  18.231  0.00  0.00    +0.000 A 
ATOM     29  C   UNL     1       4.048  15.779  19.483  0.00  0.00    +0.000 A 
ATOM     30  C   UNL     1       4.705  15.953  18.261  0.00  0.00    +0.000 A 
ENDBRANCH  22  25
ENDBRANCH  21  22
ENDBRANCH  19  21
ENDBRANCH   5  20
TORSDOF 5
ENDMDL
MODEL 9
REMARK VINA RESULT:      -4.8      2.531      6.393
REMARK  Name = 142505419
REMARK  5 active torsions:
REMARK  status: ('A' for Active; 'I' for Inactive)
REMARK    1  A    between atoms: O_4  and  N_7
REMARK    2  A    between atoms: O_4  and  C_24
REMARK    3  A    between atoms: C_8  and  C_9
REMARK    4  A    between atoms: C_10  and  C_18
REMARK    5  A    between atoms: C_24  and  C_25
REMARK                            x       y       z     vdW  Elec       q    Type
REMARK                         _______ _______ _______ _____ _____    ______ ____
ROOT
ATOM      1  S   UNL     1     -19.020   5.473  18.685  0.00  0.00    +0.000 S 
ATOM      2  N   UNL     1     -16.805   5.816  19.933  0.00  0.00    +0.000 N 
ATOM      3  N   UNL     1     -18.222   4.731  21.272  0.00  0.00    +0.000 NA
ATOM      4  C   UNL     1     -17.010   4.949  21.920  0.00  0.00    +0.000 A 
ATOM      5  C   UNL     1     -16.108   5.642  21.101  0.00  0.00    +0.000 A 
ATOM      6  C   UNL     1     -18.034   5.259  20.098  0.00  0.00    +0.000 A 
ATOM      7  C   UNL     1     -16.598   6.437  18.719  0.00  0.00    +0.000 A 
ATOM      8  C   UNL     1     -17.681   6.351  17.927  0.00  0.00    +0.000 A 
ENDROOT
BRANCH   4   9
ATOM      9  C   UNL     1     -16.795   4.506  23.293  0.00  0.00    +0.000 A 
ATOM     10  C   UNL     1     -17.052   4.915  25.694  0.00  0.00    +0.000 A 
ATOM     11  C   UNL     1     -17.277   5.285  24.355  0.00  0.00    +0.000 A 
ATOM     12  C   UNL     1     -16.325   3.737  25.974  0.00  0.00    +0.000 A 
ATOM     13  C   UNL     1     -16.122   3.316  23.591  0.00  0.00    +0.000 A 
ATOM     14  C   UNL     1     -15.863   2.949  24.914  0.00  0.00    +0.000 A 
ATOM     15  C   UNL     1     -17.530   5.690  26.766  0.00  0.00    +0.000 A 
ATOM     16  C   UNL     1     -16.080   3.368  27.306  0.00  0.00    +0.000 A 
ATOM     17  C   UNL     1     -17.290   5.304  28.085  0.00  0.00    +0.000 A 
ATOM     18  C   UNL     1     -16.566   4.149  28.357  0.00  0.00    +0.000 A 
ENDBRANCH   4   9
BRANCH   5  20
ATOM     19  N   UNL     1     -14.649   7.396  21.678  0.00  0.00    +0.000 NA
ATOM     20  C   UNL     1     -14.794   6.160  21.343  0.00  0.00    +0.000 C 
BRANCH  19  21
ATOM     21  O   UNL     1     -13.300   7.704  21.876  0.00  0.00    +0.000 OA
BRANCH  21  22
ATOM     22  C   UNL     1     -12.546   6.878  20.983  0.00  0.00    +0.000 C 
BRANCH  22  25
ATOM     23 CL   UNL     1     -11.352  11.645  19.278  0.00  0.00    +0.000 Cl
ATOM     24 CL   UNL     1      -9.933  10.242  16.707  0.00  0.00    +0.000 Cl
ATOM     25  C   UNL     1     -11.947   7.739  19.904  0.00  0.00    +0.000 A 
ATOM     26  C   UNL     1     -11.930   9.135  20.033  0.00  0.00    +0.000 A 
ATOM     27  C   UNL     1     -11.380   7.151  18.768  0.00  0.00    +0.000 A 
ATOM     28  C   UNL     1     -11.330   9.931  19.051  0.00  0.00    +0.000 A 
ATOM     29  C   UNL     1     -10.778   7.942  17.788  0.00  0.00    +0.000 A 
ATOM     30  C   UNL     1     -10.739   9.332  17.934  0.00  0.00    +0.000 A 
ENDBRANCH  22  25
ENDBRANCH  21  22
ENDBRANCH  19  21
ENDBRANCH   5  20
TORSDOF 5
ENDMDL
MODEL 10
REMARK VINA RESULT:      -4.8     19.112     21.002
REMARK  Name = 142505419
REMARK  5 active torsions:
REMARK  status: ('A' for Active; 'I' for Inactive)
REMARK    1  A    between atoms: O_4  and  N_7
REMARK    2  A    between atoms: O_4  and  C_24
REMARK    3  A    between atoms: C_8  and  C_9
REMARK    4  A    between atoms: C_10  and  C_18
REMARK    5  A    between atoms: C_24  and  C_25
REMARK                            x       y       z     vdW  Elec       q    Type
REMARK                         _______ _______ _______ _____ _____    ______ ____
ROOT
ATOM      1  S   UNL     1       1.543  20.355  28.485  0.00  0.00    +0.000 S 
ATOM      2  N   UNL     1       1.596  19.482  26.073  0.00  0.00    +0.000 N 
ATOM      3  N   UNL     1       3.644  19.313  26.942  0.00  0.00    +0.000 NA
ATOM      4  C   UNL     1       3.635  18.861  25.626  0.00  0.00    +0.000 A 
ATOM      5  C   UNL     1       2.359  18.970  25.055  0.00  0.00    +0.000 A 
ATOM      6  C   UNL     1       2.407  19.659  27.150  0.00  0.00    +0.000 A 
ATOM      7  C   UNL     1       0.291  19.895  26.245  0.00  0.00    +0.000 A 
ATOM      8  C   UNL     1       0.086  20.391  27.477  0.00  0.00    +0.000 A 
ENDROOT
BRANCH   4   9
ATOM      9  C   UNL     1       4.851  18.376  24.984  0.00  0.00    +0.000 A 
ATOM     10  C   UNL     1       5.975  16.663  23.642  0.00  0.00    +0.000 A 
ATOM     11  C   UNL     1       4.814  17.188  24.240  0.00  0.00    +0.000 A 
ATOM     12  C   UNL     1       7.202  17.345  23.797  0.00  0.00    +0.000 A 
ATOM     13  C   UNL     1       6.066  19.064  25.081  0.00  0.00    +0.000 A 
ATOM     14  C   UNL     1       7.234  18.542  24.521  0.00  0.00    +0.000 A 
ATOM     15  C   UNL     1       5.949  15.472  22.895  0.00  0.00    +0.000 A 
ATOM     16  C   UNL     1       8.370  16.822  23.220  0.00  0.00    +0.000 A 
ATOM     17  C   UNL     1       7.115  14.970  22.316  0.00  0.00    +0.000 A 
ATOM     18  C   UNL     1       8.322  15.639  22.478  0.00  0.00    +0.000 A 
ENDBRANCH   4   9
BRANCH   5  20
ATOM     19  N   UNL     1       2.314  19.425  22.747  0.00  0.00    +0.000 NA
ATOM     20  C   UNL     1       1.875  18.717  23.731  0.00  0.00    +0.000 C 
BRANCH  19  21
ATOM     21  O   UNL     1       1.730  19.021  21.543  0.00  0.00    +0.000 OA
BRANCH  21  22
ATOM     22  C   UNL     1       2.601  19.449  20.491  0.00  0.00    +0.000 C 
BRANCH  22  25
ATOM     23 CL   UNL     1       3.150  14.715  18.409  0.00  0.00    +0.000 Cl
ATOM     24 CL   UNL     1       6.362  15.035  18.821  0.00  0.00    +0.000 Cl
ATOM     25  C   UNL     1       3.514  18.314  20.115  0.00  0.00    +0.000 A 
ATOM     26  C   UNL     1       3.001  17.151  19.522  0.00  0.00    +0.000 A 
ATOM     27  C   UNL     1       4.892  18.417  20.335  0.00  0.00    +0.000 A 
ATOM     28  C   UNL     1       3.858  16.117  19.130  0.00  0.00    +0.000 A 
ATOM     29  C   UNL     1       5.750  17.388  19.942  0.00  0.00    +0.000 A 
ATOM     30  C   UNL     1       5.237  16.243  19.326  0.00  0.00    +0.000 A 
ENDBRANCH  22  25
ENDBRANCH  21  22
ENDBRANCH  19  21
ENDBRANCH   5  20
TORSDOF 5
ENDMDL
