MODEL 1
REMARK VINA RESULT:      -4.8      0.000      0.000
REMARK  Name = 142505488
REMARK  7 active torsions:
REMARK  status: ('A' for Active; 'I' for Inactive)
REMARK    1  A    between atoms: N_5  and  C_8
REMARK    2  A    between atoms: N_5  and  C_10
REMARK    3  A    between atoms: N_5  and  C_14
REMARK    4  A    between atoms: C_8  and  C_9
REMARK    5  A    between atoms: C_10  and  C_12
REMARK    6  A    between atoms: C_11  and  C_15
REMARK    7  A    between atoms: C_12  and  C_16
REMARK                            x       y       z     vdW  Elec       q    Type
REMARK                         _______ _______ _______ _____ _____    ______ ____
ROOT
ATOM      1  S   UNL     1      13.570   9.501  17.411  0.00  0.00    +0.000 S 
ATOM      2  N   UNL     1      13.282   9.764  19.955  0.00  0.00    +0.000 N 
ATOM      3  N   UNL     1      13.224  11.777  19.007  0.00  0.00    +0.000 NA
ATOM      4  C   UNL     1      12.987  10.626  21.000  0.00  0.00    +0.000 A 
ATOM      5  C   UNL     1      13.065  11.889  20.387  0.00  0.00    +0.000 A 
ATOM      6  C   UNL     1      13.315  10.498  18.810  0.00  0.00    +0.000 A 
ATOM      7  C   UNL     1      13.523   8.418  19.776  0.00  0.00    +0.000 A 
ATOM      8  C   UNL     1      13.678   8.100  18.479  0.00  0.00    +0.000 A 
ENDROOT
BRANCH   5  10
ATOM      9 CL   UNL     1      12.606  17.441  22.601  0.00  0.00    +0.000 Cl
ATOM     10  C   UNL     1      12.957  13.215  20.991  0.00  0.00    +0.000 A 
ATOM     11  C   UNL     1      11.947  14.086  20.531  0.00  0.00    +0.000 A 
ATOM     12  C   UNL     1      13.849  13.694  21.954  0.00  0.00    +0.000 A 
ATOM     13  C   UNL     1      11.833  15.389  21.027  0.00  0.00    +0.000 A 
ATOM     14  C   UNL     1      13.724  14.991  22.468  0.00  0.00    +0.000 A 
ATOM     15  C   UNL     1      12.723  15.835  21.998  0.00  0.00    +0.000 A 
ENDBRANCH   5  10
BRANCH   4  16
ATOM     16  C   UNL     1      12.679  10.136  22.378  0.00  0.00    +0.000 C 
BRANCH  16  17
ATOM     17  N   UNL     1      11.259  10.139  22.780  0.00  0.00    +0.000 NA
ATOM     18  C   UNL     1      10.655   8.803  22.732  0.00  0.00    +0.000 C 
BRANCH  17  19
ATOM     19  C   UNL     1      10.979  10.753  24.081  0.00  0.00    +0.000 C 
BRANCH  19  20
ATOM     20  C   UNL     1      11.851  11.967  24.458  0.00  0.00    +0.000 C 
BRANCH  20  23
ATOM     21 CL   UNL     1       8.060  14.935  22.446  0.00  0.00    +0.000 Cl
ATOM     22 CL   UNL     1       9.256  17.409  24.191  0.00  0.00    +0.000 Cl
ATOM     23  C   UNL     1      11.061  13.261  24.495  0.00  0.00    +0.000 A 
ATOM     24  C   UNL     1       9.936  13.477  23.679  0.00  0.00    +0.000 A 
ATOM     25  C   UNL     1      11.478  14.298  25.338  0.00  0.00    +0.000 A 
ATOM     26  C   UNL     1       9.351  14.742  23.577  0.00  0.00    +0.000 A 
ATOM     27  C   UNL     1      10.883  15.559  25.254  0.00  0.00    +0.000 A 
ATOM     28  C   UNL     1       9.849  15.795  24.344  0.00  0.00    +0.000 A 
ENDBRANCH  20  23
ENDBRANCH  19  20
ENDBRANCH  17  19
ENDBRANCH  16  17
ENDBRANCH   4  16
TORSDOF 6
ENDMDL
MODEL 2
REMARK VINA RESULT:      -4.7     29.880     32.345
REMARK  Name = 142505488
REMARK  7 active torsions:
REMARK  status: ('A' for Active; 'I' for Inactive)
REMARK    1  A    between atoms: N_5  and  C_8
REMARK    2  A    between atoms: N_5  and  C_10
REMARK    3  A    between atoms: N_5  and  C_14
REMARK    4  A    between atoms: C_8  and  C_9
REMARK    5  A    between atoms: C_10  and  C_12
REMARK    6  A    between atoms: C_11  and  C_15
REMARK    7  A    between atoms: C_12  and  C_16
REMARK                            x       y       z     vdW  Elec       q    Type
REMARK                         _______ _______ _______ _____ _____    ______ ____
ROOT
ATOM      1  S   UNL     1     -12.591 -14.236  19.268  0.00  0.00    +0.000 S 
ATOM      2  N   UNL     1     -11.474 -11.939  18.955  0.00  0.00    +0.000 N 
ATOM      3  N   UNL     1      -9.894 -13.495  19.131  0.00  0.00    +0.000 NA
ATOM      4  C   UNL     1     -10.291 -11.251  18.732  0.00  0.00    +0.000 A 
ATOM      5  C   UNL     1      -9.316 -12.239  18.956  0.00  0.00    +0.000 A 
ATOM      6  C   UNL     1     -11.168 -13.257  19.090  0.00  0.00    +0.000 A 
ATOM      7  C   UNL     1     -12.820 -11.653  19.056  0.00  0.00    +0.000 A 
ATOM      8  C   UNL     1     -13.563 -12.763  19.204  0.00  0.00    +0.000 A 
ENDROOT
BRANCH   5  10
ATOM      9 CL   UNL     1      -3.328 -11.991  19.080  0.00  0.00    +0.000 Cl
ATOM     10  C   UNL     1      -7.860 -12.110  18.976  0.00  0.00    +0.000 A 
ATOM     11  C   UNL     1      -7.093 -13.002  18.200  0.00  0.00    +0.000 A 
ATOM     12  C   UNL     1      -7.183 -11.191  19.782  0.00  0.00    +0.000 A 
ATOM     13  C   UNL     1      -5.695 -12.967  18.226  0.00  0.00    +0.000 A 
ATOM     14  C   UNL     1      -5.784 -11.139  19.794  0.00  0.00    +0.000 A 
ATOM     15  C   UNL     1      -5.046 -12.031  19.023  0.00  0.00    +0.000 A 
ENDBRANCH   5  10
BRANCH   4  16
ATOM     16  C   UNL     1     -10.266  -9.807  18.344  0.00  0.00    +0.000 C 
BRANCH  16  17
ATOM     17  N   UNL     1     -10.544  -9.498  16.928  0.00  0.00    +0.000 NA
ATOM     18  C   UNL     1     -11.573  -8.465  16.767  0.00  0.00    +0.000 C 
BRANCH  17  19
ATOM     19  C   UNL     1      -9.370  -9.144  16.124  0.00  0.00    +0.000 C 
BRANCH  19  20
ATOM     20  C   UNL     1      -8.020  -9.126  16.868  0.00  0.00    +0.000 C 
BRANCH  20  23
ATOM     21 CL   UNL     1      -6.688 -13.067  13.717  0.00  0.00    +0.000 Cl
ATOM     22 CL   UNL     1      -3.589 -12.491  14.531  0.00  0.00    +0.000 Cl
ATOM     23  C   UNL     1      -6.935  -9.878  16.121  0.00  0.00    +0.000 A 
ATOM     24  C   UNL     1      -7.228 -10.919  15.222  0.00  0.00    +0.000 A 
ATOM     25  C   UNL     1      -5.593  -9.560  16.354  0.00  0.00    +0.000 A 
ATOM     26  C   UNL     1      -6.214 -11.732  14.706  0.00  0.00    +0.000 A 
ATOM     27  C   UNL     1      -4.575 -10.356  15.824  0.00  0.00    +0.000 A 
ATOM     28  C   UNL     1      -4.885 -11.468  15.035  0.00  0.00    +0.000 A 
ENDBRANCH  20  23
ENDBRANCH  19  20
ENDBRANCH  17  19
ENDBRANCH  16  17
ENDBRANCH   4  16
TORSDOF 6
ENDMDL
MODEL 3
REMARK VINA RESULT:      -4.6     28.894     30.757
REMARK  Name = 142505488
REMARK  7 active torsions:
REMARK  status: ('A' for Active; 'I' for Inactive)
REMARK    1  A    between atoms: N_5  and  C_8
REMARK    2  A    between atoms: N_5  and  C_10
REMARK    3  A    between atoms: N_5  and  C_14
REMARK    4  A    between atoms: C_8  and  C_9
REMARK    5  A    between atoms: C_10  and  C_12
REMARK    6  A    between atoms: C_11  and  C_15
REMARK    7  A    between atoms: C_12  and  C_16
REMARK                            x       y       z     vdW  Elec       q    Type
REMARK                         _______ _______ _______ _____ _____    ______ ____
ROOT
ATOM      1  S   UNL     1      -7.747 -13.908  16.139  0.00  0.00    +0.000 S 
ATOM      2  N   UNL     1      -5.346 -13.531  15.292  0.00  0.00    +0.000 N 
ATOM      3  N   UNL     1      -6.747 -12.310  14.068  0.00  0.00    +0.000 NA
ATOM      4  C   UNL     1      -4.518 -12.794  14.458  0.00  0.00    +0.000 A 
ATOM      5  C   UNL     1      -5.436 -12.121  13.633  0.00  0.00    +0.000 A 
ATOM      6  C   UNL     1      -6.626 -13.127  15.068  0.00  0.00    +0.000 A 
ATOM      7  C   UNL     1      -5.218 -14.509  16.256  0.00  0.00    +0.000 A 
ATOM      8  C   UNL     1      -6.397 -14.815  16.826  0.00  0.00    +0.000 A 
ENDROOT
BRANCH   5  10
ATOM      9 CL   UNL     1      -4.120  -8.698   8.891  0.00  0.00    +0.000 Cl
ATOM     10  C   UNL     1      -5.181 -11.264  12.477  0.00  0.00    +0.000 A 
ATOM     11  C   UNL     1      -4.509 -11.812  11.366  0.00  0.00    +0.000 A 
ATOM     12  C   UNL     1      -5.508  -9.905  12.443  0.00  0.00    +0.000 A 
ATOM     13  C   UNL     1      -4.182 -11.025  10.256  0.00  0.00    +0.000 A 
ATOM     14  C   UNL     1      -5.201  -9.120  11.325  0.00  0.00    +0.000 A 
ATOM     15  C   UNL     1      -4.534  -9.680  10.240  0.00  0.00    +0.000 A 
ENDBRANCH   5  10
BRANCH   4  16
ATOM     16  C   UNL     1      -3.029 -12.833  14.573  0.00  0.00    +0.000 C 
BRANCH  16  17
ATOM     17  N   UNL     1      -2.384 -11.678  15.227  0.00  0.00    +0.000 NA
ATOM     18  C   UNL     1      -2.261 -10.520  14.334  0.00  0.00    +0.000 C 
BRANCH  17  19
ATOM     19  C   UNL     1      -2.994 -11.256  16.491  0.00  0.00    +0.000 C 
BRANCH  19  20
ATOM     20  C   UNL     1      -3.947 -10.047  16.412  0.00  0.00    +0.000 C 
BRANCH  20  23
ATOM     21 CL   UNL     1      -8.990  -8.802  16.915  0.00  0.00    +0.000 Cl
ATOM     22 CL   UNL     1      -9.067 -10.738  19.531  0.00  0.00    +0.000 Cl
ATOM     23  C   UNL     1      -5.293 -10.327  17.053  0.00  0.00    +0.000 A 
ATOM     24  C   UNL     1      -6.464  -9.654  16.661  0.00  0.00    +0.000 A 
ATOM     25  C   UNL     1      -5.379 -11.256  18.096  0.00  0.00    +0.000 A 
ATOM     26  C   UNL     1      -7.646  -9.773  17.399  0.00  0.00    +0.000 A 
ATOM     27  C   UNL     1      -6.563 -11.394  18.824  0.00  0.00    +0.000 A 
ATOM     28  C   UNL     1      -7.684 -10.622  18.504  0.00  0.00    +0.000 A 
ENDBRANCH  20  23
ENDBRANCH  19  20
ENDBRANCH  17  19
ENDBRANCH  16  17
ENDBRANCH   4  16
TORSDOF 6
ENDMDL
MODEL 4
REMARK VINA RESULT:      -4.5     29.704     33.170
REMARK  Name = 142505488
REMARK  7 active torsions:
REMARK  status: ('A' for Active; 'I' for Inactive)
REMARK    1  A    between atoms: N_5  and  C_8
REMARK    2  A    between atoms: N_5  and  C_10
REMARK    3  A    between atoms: N_5  and  C_14
REMARK    4  A    between atoms: C_8  and  C_9
REMARK    5  A    between atoms: C_10  and  C_12
REMARK    6  A    between atoms: C_11  and  C_15
REMARK    7  A    between atoms: C_12  and  C_16
REMARK                            x       y       z     vdW  Elec       q    Type
REMARK                         _______ _______ _______ _____ _____    ______ ____
ROOT
ATOM      1  S   UNL     1      -9.323  -6.824   7.746  0.00  0.00    +0.000 S 
ATOM      2  N   UNL     1      -7.451  -8.450   7.057  0.00  0.00    +0.000 N 
ATOM      3  N   UNL     1      -7.247  -7.985   9.223  0.00  0.00    +0.000 NA
ATOM      4  C   UNL     1      -6.416  -9.267   7.485  0.00  0.00    +0.000 A 
ATOM      5  C   UNL     1      -6.246  -8.870   8.823  0.00  0.00    +0.000 A 
ATOM      6  C   UNL     1      -7.944  -7.800   8.145  0.00  0.00    +0.000 A 
ATOM      7  C   UNL     1      -8.095  -8.149   5.874  0.00  0.00    +0.000 A 
ATOM      8  C   UNL     1      -9.131  -7.314   6.060  0.00  0.00    +0.000 A 
ENDROOT
BRANCH   5  10
ATOM      9 CL   UNL     1      -1.939 -10.702  12.568  0.00  0.00    +0.000 Cl
ATOM     10  C   UNL     1      -5.233  -9.290   9.789  0.00  0.00    +0.000 A 
ATOM     11  C   UNL     1      -3.881  -8.999   9.518  0.00  0.00    +0.000 A 
ATOM     12  C   UNL     1      -5.529 -10.031  10.937  0.00  0.00    +0.000 A 
ATOM     13  C   UNL     1      -2.861  -9.430  10.374  0.00  0.00    +0.000 A 
ATOM     14  C   UNL     1      -4.513 -10.445  11.807  0.00  0.00    +0.000 A 
ATOM     15  C   UNL     1      -3.184 -10.149  11.519  0.00  0.00    +0.000 A 
ENDBRANCH   5  10
BRANCH   4  16
ATOM     16  C   UNL     1      -5.771 -10.275   6.590  0.00  0.00    +0.000 C 
BRANCH  16  17
ATOM     17  N   UNL     1      -5.625 -11.642   7.128  0.00  0.00    +0.000 NA
ATOM     18  C   UNL     1      -6.890 -12.387   7.127  0.00  0.00    +0.000 C 
BRANCH  17  19
ATOM     19  C   UNL     1      -4.581 -12.454   6.498  0.00  0.00    +0.000 C 
BRANCH  19  20
ATOM     20  C   UNL     1      -4.005 -11.909   5.176  0.00  0.00    +0.000 C 
BRANCH  20  23
ATOM     21 CL   UNL     1       0.063 -15.109   5.844  0.00  0.00    +0.000 Cl
ATOM     22 CL   UNL     1       0.511 -14.992   2.622  0.00  0.00    +0.000 Cl
ATOM     23  C   UNL     1      -2.973 -12.838   4.566  0.00  0.00    +0.000 A 
ATOM     24  C   UNL     1      -2.102 -13.612   5.353  0.00  0.00    +0.000 A 
ATOM     25  C   UNL     1      -2.848 -12.907   3.174  0.00  0.00    +0.000 A 
ATOM     26  C   UNL     1      -1.028 -14.298   4.778  0.00  0.00    +0.000 A 
ATOM     27  C   UNL     1      -1.788 -13.608   2.593  0.00  0.00    +0.000 A 
ATOM     28  C   UNL     1      -0.852 -14.268   3.395  0.00  0.00    +0.000 A 
ENDBRANCH  20  23
ENDBRANCH  19  20
ENDBRANCH  17  19
ENDBRANCH  16  17
ENDBRANCH   4  16
TORSDOF 6
ENDMDL
MODEL 5
REMARK VINA RESULT:      -4.4     10.841     13.203
REMARK  Name = 142505488
REMARK  7 active torsions:
REMARK  status: ('A' for Active; 'I' for Inactive)
REMARK    1  A    between atoms: N_5  and  C_8
REMARK    2  A    between atoms: N_5  and  C_10
REMARK    3  A    between atoms: N_5  and  C_14
REMARK    4  A    between atoms: C_8  and  C_9
REMARK    5  A    between atoms: C_10  and  C_12
REMARK    6  A    between atoms: C_11  and  C_15
REMARK    7  A    between atoms: C_12  and  C_16
REMARK                            x       y       z     vdW  Elec       q    Type
REMARK                         _______ _______ _______ _____ _____    ______ ____
ROOT
ATOM      1  S   UNL     1      -4.749  15.732  17.155  0.00  0.00    +0.000 S 
ATOM      2  N   UNL     1      -2.301  16.527  17.162  0.00  0.00    +0.000 N 
ATOM      3  N   UNL     1      -2.774  15.621  19.138  0.00  0.00    +0.000 NA
ATOM      4  C   UNL     1      -1.091  16.534  17.839  0.00  0.00    +0.000 A 
ATOM      5  C   UNL     1      -1.450  16.057  19.112  0.00  0.00    +0.000 A 
ATOM      6  C   UNL     1      -3.213  15.896  17.949  0.00  0.00    +0.000 A 
ATOM      7  C   UNL     1      -2.797  16.956  15.948  0.00  0.00    +0.000 A 
ATOM      8  C   UNL     1      -4.080  16.598  15.770  0.00  0.00    +0.000 A 
ENDROOT
BRANCH   5  10
ATOM      9 CL   UNL     1       2.065  15.768  23.959  0.00  0.00    +0.000 Cl
ATOM     10  C   UNL     1      -0.630  15.932  20.315  0.00  0.00    +0.000 A 
ATOM     11  C   UNL     1      -0.365  17.090  21.074  0.00  0.00    +0.000 A 
ATOM     12  C   UNL     1      -0.035  14.733  20.716  0.00  0.00    +0.000 A 
ATOM     13  C   UNL     1       0.463  17.044  22.201  0.00  0.00    +0.000 A 
ATOM     14  C   UNL     1       0.777  14.679  21.855  0.00  0.00    +0.000 A 
ATOM     15  C   UNL     1       1.029  15.835  22.588  0.00  0.00    +0.000 A 
ENDBRANCH   5  10
BRANCH   4  16
ATOM     16  C   UNL     1       0.184  16.971  17.193  0.00  0.00    +0.000 C 
BRANCH  16  17
ATOM     17  N   UNL     1       1.095  15.903  16.736  0.00  0.00    +0.000 NA
ATOM     18  C   UNL     1       1.118  15.767  15.275  0.00  0.00    +0.000 C 
BRANCH  17  19
ATOM     19  C   UNL     1       2.469  15.997  17.238  0.00  0.00    +0.000 C 
BRANCH  19  20
ATOM     20  C   UNL     1       2.759  15.257  18.558  0.00  0.00    +0.000 C 
BRANCH  20  23
ATOM     21 CL   UNL     1       5.598  15.741  22.910  0.00  0.00    +0.000 Cl
ATOM     22 CL   UNL     1       4.572  18.827  23.074  0.00  0.00    +0.000 Cl
ATOM     23  C   UNL     1       3.381  16.160  19.606  0.00  0.00    +0.000 A 
ATOM     24  C   UNL     1       4.248  15.671  20.599  0.00  0.00    +0.000 A 
ATOM     25  C   UNL     1       3.059  17.522  19.618  0.00  0.00    +0.000 A 
ATOM     26  C   UNL     1       4.642  16.475  21.672  0.00  0.00    +0.000 A 
ATOM     27  C   UNL     1       3.468  18.335  20.678  0.00  0.00    +0.000 A 
ATOM     28  C   UNL     1       4.223  17.803  21.728  0.00  0.00    +0.000 A 
ENDBRANCH  20  23
ENDBRANCH  19  20
ENDBRANCH  17  19
ENDBRANCH  16  17
ENDBRANCH   4  16
TORSDOF 6
ENDMDL
MODEL 6
REMARK VINA RESULT:      -4.3     27.790     29.961
REMARK  Name = 142505488
REMARK  7 active torsions:
REMARK  status: ('A' for Active; 'I' for Inactive)
REMARK    1  A    between atoms: N_5  and  C_8
REMARK    2  A    between atoms: N_5  and  C_10
REMARK    3  A    between atoms: N_5  and  C_14
REMARK    4  A    between atoms: C_8  and  C_9
REMARK    5  A    between atoms: C_10  and  C_12
REMARK    6  A    between atoms: C_11  and  C_15
REMARK    7  A    between atoms: C_12  and  C_16
REMARK                            x       y       z     vdW  Elec       q    Type
REMARK                         _______ _______ _______ _____ _____    ______ ____
ROOT
ATOM      1  S   UNL     1     -18.363   2.008  27.847  0.00  0.00    +0.000 S 
ATOM      2  N   UNL     1     -16.423   2.571  29.442  0.00  0.00    +0.000 N 
ATOM      3  N   UNL     1     -18.000   4.129  29.640  0.00  0.00    +0.000 NA
ATOM      4  C   UNL     1     -15.975   3.381  30.475  0.00  0.00    +0.000 A 
ATOM      5  C   UNL     1     -16.937   4.407  30.498  0.00  0.00    +0.000 A 
ATOM      6  C   UNL     1     -17.653   3.018  29.069  0.00  0.00    +0.000 A 
ATOM      7  C   UNL     1     -15.978   1.472  28.737  0.00  0.00    +0.000 A 
ATOM      8  C   UNL     1     -16.895   1.028  27.861  0.00  0.00    +0.000 A 
ENDROOT
BRANCH   5  10
ATOM      9 CL   UNL     1     -16.773   9.430  33.765  0.00  0.00    +0.000 Cl
ATOM     10  C   UNL     1     -16.965   5.626  31.303  0.00  0.00    +0.000 A 
ATOM     11  C   UNL     1     -16.295   6.769  30.821  0.00  0.00    +0.000 A 
ATOM     12  C   UNL     1     -17.565   5.698  32.564  0.00  0.00    +0.000 A 
ATOM     13  C   UNL     1     -16.236   7.946  31.576  0.00  0.00    +0.000 A 
ATOM     14  C   UNL     1     -17.525   6.881  33.312  0.00  0.00    +0.000 A 
ATOM     15  C   UNL     1     -16.856   7.997  32.819  0.00  0.00    +0.000 A 
ENDBRANCH   5  10
BRANCH   4  16
ATOM     16  C   UNL     1     -14.746   3.064  31.264  0.00  0.00    +0.000 C 
BRANCH  16  17
ATOM     17  N   UNL     1     -14.759   3.441  32.690  0.00  0.00    +0.000 NA
ATOM     18  C   UNL     1     -14.611   2.285  33.582  0.00  0.00    +0.000 C 
BRANCH  17  19
ATOM     19  C   UNL     1     -13.795   4.476  33.072  0.00  0.00    +0.000 C 
BRANCH  19  20
ATOM     20  C   UNL     1     -14.258   5.466  34.160  0.00  0.00    +0.000 C 
BRANCH  20  23
ATOM     21 CL   UNL     1     -11.721   8.978  31.251  0.00  0.00    +0.000 Cl
ATOM     22 CL   UNL     1     -10.818  10.423  34.025  0.00  0.00    +0.000 Cl
ATOM     23  C   UNL     1     -13.547   6.803  34.069  0.00  0.00    +0.000 A 
ATOM     24  C   UNL     1     -13.125   7.346  32.842  0.00  0.00    +0.000 A 
ATOM     25  C   UNL     1     -13.262   7.511  35.241  0.00  0.00    +0.000 A 
ATOM     26  C   UNL     1     -12.294   8.470  32.799  0.00  0.00    +0.000 A 
ATOM     27  C   UNL     1     -12.449   8.646  35.202  0.00  0.00    +0.000 A 
ATOM     28  C   UNL     1     -11.929   9.102  33.987  0.00  0.00    +0.000 A 
ENDBRANCH  20  23
ENDBRANCH  19  20
ENDBRANCH  17  19
ENDBRANCH  16  17
ENDBRANCH   4  16
TORSDOF 6
ENDMDL
MODEL 7
REMARK VINA RESULT:      -4.3     29.973     32.399
REMARK  Name = 142505488
REMARK  7 active torsions:
REMARK  status: ('A' for Active; 'I' for Inactive)
REMARK    1  A    between atoms: N_5  and  C_8
REMARK    2  A    between atoms: N_5  and  C_10
REMARK    3  A    between atoms: N_5  and  C_14
REMARK    4  A    between atoms: C_8  and  C_9
REMARK    5  A    between atoms: C_10  and  C_12
REMARK    6  A    between atoms: C_11  and  C_15
REMARK    7  A    between atoms: C_12  and  C_16
REMARK                            x       y       z     vdW  Elec       q    Type
REMARK                         _______ _______ _______ _____ _____    ______ ____
ROOT
ATOM      1  S   UNL     1      -8.590  -7.526   6.657  0.00  0.00    +0.000 S 
ATOM      2  N   UNL     1      -6.644  -9.209   6.584  0.00  0.00    +0.000 N 
ATOM      3  N   UNL     1      -6.938  -8.531   8.683  0.00  0.00    +0.000 NA
ATOM      4  C   UNL     1      -5.754  -9.977   7.319  0.00  0.00    +0.000 A 
ATOM      5  C   UNL     1      -5.891  -9.448   8.614  0.00  0.00    +0.000 A 
ATOM      6  C   UNL     1      -7.362  -8.455   7.460  0.00  0.00    +0.000 A 
ATOM      7  C   UNL     1      -6.989  -9.028   5.261  0.00  0.00    +0.000 A 
ATOM      8  C   UNL     1      -8.022  -8.180   5.119  0.00  0.00    +0.000 A 
ENDROOT
BRANCH   5  10
ATOM      9 CL   UNL     1      -2.908 -10.527  13.701  0.00  0.00    +0.000 Cl
ATOM     10  C   UNL     1      -5.138  -9.769   9.825  0.00  0.00    +0.000 A 
ATOM     11  C   UNL     1      -5.801  -9.709  11.068  0.00  0.00    +0.000 A 
ATOM     12  C   UNL     1      -3.772 -10.064   9.823  0.00  0.00    +0.000 A 
ATOM     13  C   UNL     1      -5.118  -9.945  12.266  0.00  0.00    +0.000 A 
ATOM     14  C   UNL     1      -3.090 -10.322  11.019  0.00  0.00    +0.000 A 
ATOM     15  C   UNL     1      -3.763 -10.255  12.235  0.00  0.00    +0.000 A 
ENDBRANCH   5  10
BRANCH   4  16
ATOM     16  C   UNL     1      -4.940 -11.067   6.701  0.00  0.00    +0.000 C 
BRANCH  16  17
ATOM     17  N   UNL     1      -5.448 -12.444   6.859  0.00  0.00    +0.000 NA
ATOM     18  C   UNL     1      -5.262 -13.257   5.652  0.00  0.00    +0.000 C 
BRANCH  17  19
ATOM     19  C   UNL     1      -4.928 -13.172   8.020  0.00  0.00    +0.000 C 
BRANCH  19  20
ATOM     20  C   UNL     1      -5.882 -13.294   9.225  0.00  0.00    +0.000 C 
BRANCH  20  23
ATOM     21 CL   UNL     1      -5.830 -13.322  14.443  0.00  0.00    +0.000 Cl
ATOM     22 CL   UNL     1      -2.642 -13.961  14.273  0.00  0.00    +0.000 Cl
ATOM     23  C   UNL     1      -5.152 -13.629  10.512  0.00  0.00    +0.000 A 
ATOM     24  C   UNL     1      -5.762 -13.508  11.773  0.00  0.00    +0.000 A 
ATOM     25  C   UNL     1      -3.814 -14.034  10.458  0.00  0.00    +0.000 A 
ATOM     26  C   UNL     1      -5.015 -13.620  12.949  0.00  0.00    +0.000 A 
ATOM     27  C   UNL     1      -3.068 -14.167  11.632  0.00  0.00    +0.000 A 
ATOM     28  C   UNL     1      -3.655 -13.918  12.875  0.00  0.00    +0.000 A 
ENDBRANCH  20  23
ENDBRANCH  19  20
ENDBRANCH  17  19
ENDBRANCH  16  17
ENDBRANCH   4  16
TORSDOF 6
ENDMDL
MODEL 8
REMARK VINA RESULT:      -4.2     29.484     31.268
REMARK  Name = 142505488
REMARK  7 active torsions:
REMARK  status: ('A' for Active; 'I' for Inactive)
REMARK    1  A    between atoms: N_5  and  C_8
REMARK    2  A    between atoms: N_5  and  C_10
REMARK    3  A    between atoms: N_5  and  C_14
REMARK    4  A    between atoms: C_8  and  C_9
REMARK    5  A    between atoms: C_10  and  C_12
REMARK    6  A    between atoms: C_11  and  C_15
REMARK    7  A    between atoms: C_12  and  C_16
REMARK                            x       y       z     vdW  Elec       q    Type
REMARK                         _______ _______ _______ _____ _____    ______ ____
ROOT
ATOM      1  S   UNL     1      -8.249 -15.114  16.257  0.00  0.00    +0.000 S 
ATOM      2  N   UNL     1      -7.161 -12.917  17.040  0.00  0.00    +0.000 N 
ATOM      3  N   UNL     1      -9.252 -12.502  16.400  0.00  0.00    +0.000 NA
ATOM      4  C   UNL     1      -7.354 -11.578  17.348  0.00  0.00    +0.000 A 
ATOM      5  C   UNL     1      -8.639 -11.328  16.835  0.00  0.00    +0.000 A 
ATOM      6  C   UNL     1      -8.341 -13.409  16.576  0.00  0.00    +0.000 A 
ATOM      7  C   UNL     1      -6.139 -13.842  17.094  0.00  0.00    +0.000 A 
ATOM      8  C   UNL     1      -6.549 -15.070  16.731  0.00  0.00    +0.000 A 
ENDROOT
BRANCH   5  10
ATOM      9 CL   UNL     1     -11.396  -6.019  16.453  0.00  0.00    +0.000 Cl
ATOM     10  C   UNL     1      -9.371 -10.066  16.756  0.00  0.00    +0.000 A 
ATOM     11  C   UNL     1      -9.140  -9.220  15.652  0.00  0.00    +0.000 A 
ATOM     12  C   UNL     1     -10.238  -9.620  17.756  0.00  0.00    +0.000 A 
ATOM     13  C   UNL     1      -9.765  -7.972  15.553  0.00  0.00    +0.000 A 
ATOM     14  C   UNL     1     -10.882  -8.380  17.649  0.00  0.00    +0.000 A 
ATOM     15  C   UNL     1     -10.638  -7.559  16.553  0.00  0.00    +0.000 A 
ENDBRANCH   5  10
BRANCH   4  16
ATOM     16  C   UNL     1      -6.325 -10.767  18.068  0.00  0.00    +0.000 C 
BRANCH  16  17
ATOM     17  N   UNL     1      -5.232 -10.208  17.250  0.00  0.00    +0.000 NA
ATOM     18  C   UNL     1      -4.023 -11.039  17.279  0.00  0.00    +0.000 C 
BRANCH  17  19
ATOM     19  C   UNL     1      -5.583  -9.909  15.858  0.00  0.00    +0.000 C 
BRANCH  19  20
ATOM     20  C   UNL     1      -4.845 -10.730  14.783  0.00  0.00    +0.000 C 
BRANCH  20  23
ATOM     21 CL   UNL     1      -2.983  -9.446  10.080  0.00  0.00    +0.000 Cl
ATOM     22 CL   UNL     1      -5.845  -8.011   9.488  0.00  0.00    +0.000 Cl
ATOM     23  C   UNL     1      -5.110 -10.220  13.379  0.00  0.00    +0.000 A 
ATOM     24  C   UNL     1      -4.112 -10.196  12.389  0.00  0.00    +0.000 A 
ATOM     25  C   UNL     1      -6.376  -9.716  13.058  0.00  0.00    +0.000 A 
ATOM     26  C   UNL     1      -4.317  -9.534  11.174  0.00  0.00    +0.000 A 
ATOM     27  C   UNL     1      -6.592  -9.072  11.837  0.00  0.00    +0.000 A 
ATOM     28  C   UNL     1      -5.551  -8.942  10.912  0.00  0.00    +0.000 A 
ENDBRANCH  20  23
ENDBRANCH  19  20
ENDBRANCH  17  19
ENDBRANCH  16  17
ENDBRANCH   4  16
TORSDOF 6
ENDMDL
MODEL 9
REMARK VINA RESULT:      -4.1     35.889     38.541
REMARK  Name = 142505488
REMARK  7 active torsions:
REMARK  status: ('A' for Active; 'I' for Inactive)
REMARK    1  A    between atoms: N_5  and  C_8
REMARK    2  A    between atoms: N_5  and  C_10
REMARK    3  A    between atoms: N_5  and  C_14
REMARK    4  A    between atoms: C_8  and  C_9
REMARK    5  A    between atoms: C_10  and  C_12
REMARK    6  A    between atoms: C_11  and  C_15
REMARK    7  A    between atoms: C_12  and  C_16
REMARK                            x       y       z     vdW  Elec       q    Type
REMARK                         _______ _______ _______ _____ _____    ______ ____
ROOT
ATOM      1  S   UNL     1       2.509 -13.956   0.549  0.00  0.00    +0.000 S 
ATOM      2  N   UNL     1       4.603 -15.447   0.665  0.00  0.00    +0.000 N 
ATOM      3  N   UNL     1       3.220 -16.011   2.315  0.00  0.00    +0.000 NA
ATOM      4  C   UNL     1       5.205 -16.549   1.255  0.00  0.00    +0.000 A 
ATOM      5  C   UNL     1       4.363 -16.807   2.351  0.00  0.00    +0.000 A 
ATOM      6  C   UNL     1       3.406 -15.251   1.280  0.00  0.00    +0.000 A 
ATOM      7  C   UNL     1       4.879 -14.550  -0.345  0.00  0.00    +0.000 A 
ATOM      8  C   UNL     1       3.862 -13.697  -0.556  0.00  0.00    +0.000 A 
ENDROOT
BRANCH   5  10
ATOM      9 CL   UNL     1       5.227 -20.670   6.853  0.00  0.00    +0.000 Cl
ATOM     10  C   UNL     1       4.520 -17.786   3.424  0.00  0.00    +0.000 A 
ATOM     11  C   UNL     1       4.653 -17.321   4.748  0.00  0.00    +0.000 A 
ATOM     12  C   UNL     1       4.618 -19.162   3.198  0.00  0.00    +0.000 A 
ATOM     13  C   UNL     1       4.867 -18.207   5.810  0.00  0.00    +0.000 A 
ATOM     14  C   UNL     1       4.812 -20.053   4.261  0.00  0.00    +0.000 A 
ATOM     15  C   UNL     1       4.942 -19.573   5.560  0.00  0.00    +0.000 A 
ENDBRANCH   5  10
BRANCH   4  16
ATOM     16  C   UNL     1       6.445 -17.174   0.702  0.00  0.00    +0.000 C 
BRANCH  16  17
ATOM     17  N   UNL     1       6.284 -18.473   0.021  0.00  0.00    +0.000 NA
ATOM     18  C   UNL     1       4.967 -18.621  -0.609  0.00  0.00    +0.000 C 
BRANCH  17  19
ATOM     19  C   UNL     1       7.328 -18.801  -0.954  0.00  0.00    +0.000 C 
BRANCH  19  20
ATOM     20  C   UNL     1       8.771 -18.446  -0.545  0.00  0.00    +0.000 C 
BRANCH  20  23
ATOM     21 CL   UNL     1      13.542 -18.343  -2.660  0.00  0.00    +0.000 Cl
ATOM     22 CL   UNL     1      12.550 -20.697  -4.679  0.00  0.00    +0.000 Cl
ATOM     23  C   UNL     1       9.806 -19.100  -1.441  0.00  0.00    +0.000 A 
ATOM     24  C   UNL     1      11.122 -18.614  -1.546  0.00  0.00    +0.000 A 
ATOM     25  C   UNL     1       9.441 -20.200  -2.225  0.00  0.00    +0.000 A 
ATOM     26  C   UNL     1      11.994 -19.098  -2.526  0.00  0.00    +0.000 A 
ATOM     27  C   UNL     1      10.316 -20.701  -3.192  0.00  0.00    +0.000 A 
ATOM     28  C   UNL     1      11.576 -20.123  -3.373  0.00  0.00    +0.000 A 
ENDBRANCH  20  23
ENDBRANCH  19  20
ENDBRANCH  17  19
ENDBRANCH  16  17
ENDBRANCH   4  16
TORSDOF 6
ENDMDL
MODEL 10
REMARK VINA RESULT:      -4.1     36.679     38.151
REMARK  Name = 142505488
REMARK  7 active torsions:
REMARK  status: ('A' for Active; 'I' for Inactive)
REMARK    1  A    between atoms: N_5  and  C_8
REMARK    2  A    between atoms: N_5  and  C_10
REMARK    3  A    between atoms: N_5  and  C_14
REMARK    4  A    between atoms: C_8  and  C_9
REMARK    5  A    between atoms: C_10  and  C_12
REMARK    6  A    between atoms: C_11  and  C_15
REMARK    7  A    between atoms: C_12  and  C_16
REMARK                            x       y       z     vdW  Elec       q    Type
REMARK                         _______ _______ _______ _____ _____    ______ ____
ROOT
ATOM      1  S   UNL     1     -12.916 -15.954  26.500  0.00  0.00    +0.000 S 
ATOM      2  N   UNL     1     -12.358 -15.409  28.952  0.00  0.00    +0.000 N 
ATOM      3  N   UNL     1     -14.440 -14.755  28.521  0.00  0.00    +0.000 NA
ATOM      4  C   UNL     1     -12.842 -14.977  30.178  0.00  0.00    +0.000 A 
ATOM      5  C   UNL     1     -14.112 -14.475  29.846  0.00  0.00    +0.000 A 
ATOM      6  C   UNL     1     -13.377 -15.334  28.055  0.00  0.00    +0.000 A 
ATOM      7  C   UNL     1     -11.174 -15.889  28.431  0.00  0.00    +0.000 A 
ATOM      8  C   UNL     1     -11.298 -16.247  27.142  0.00  0.00    +0.000 A 
ENDROOT
BRANCH   5  10
ATOM      9 CL   UNL     1     -17.867 -11.528  33.473  0.00  0.00    +0.000 Cl
ATOM     10  C   UNL     1     -15.080 -13.782  30.693  0.00  0.00    +0.000 A 
ATOM     11  C   UNL     1     -14.869 -12.419  30.984  0.00  0.00    +0.000 A 
ATOM     12  C   UNL     1     -16.171 -14.420  31.290  0.00  0.00    +0.000 A 
ATOM     13  C   UNL     1     -15.728 -11.719  31.839  0.00  0.00    +0.000 A 
ATOM     14  C   UNL     1     -17.045 -13.716  32.128  0.00  0.00    +0.000 A 
ATOM     15  C   UNL     1     -16.816 -12.372  32.405  0.00  0.00    +0.000 A 
ENDBRANCH   5  10
BRANCH   4  16
ATOM     16  C   UNL     1     -12.052 -15.109  31.441  0.00  0.00    +0.000 C 
BRANCH  16  17
ATOM     17  N   UNL     1     -12.643 -15.940  32.507  0.00  0.00    +0.000 NA
ATOM     18  C   UNL     1     -11.956 -17.227  32.666  0.00  0.00    +0.000 C 
BRANCH  17  19
ATOM     19  C   UNL     1     -12.762 -15.289  33.814  0.00  0.00    +0.000 C 
BRANCH  19  20
ATOM     20  C   UNL     1     -13.455 -13.912  33.823  0.00  0.00    +0.000 C 
BRANCH  20  23
ATOM     21 CL   UNL     1      -9.411 -12.791  36.924  0.00  0.00    +0.000 Cl
ATOM     22 CL   UNL     1     -10.997 -10.081  37.787  0.00  0.00    +0.000 Cl
ATOM     23  C   UNL     1     -12.722 -12.898  34.680  0.00  0.00    +0.000 A 
ATOM     24  C   UNL     1     -11.461 -13.165  35.243  0.00  0.00    +0.000 A 
ATOM     25  C   UNL     1     -13.326 -11.667  34.960  0.00  0.00    +0.000 A 
ATOM     26  C   UNL     1     -10.899 -12.306  36.193  0.00  0.00    +0.000 A 
ATOM     27  C   UNL     1     -12.759 -10.797  35.893  0.00  0.00    +0.000 A 
ATOM     28  C   UNL     1     -11.568 -11.134  36.543  0.00  0.00    +0.000 A 
ENDBRANCH  20  23
ENDBRANCH  19  20
ENDBRANCH  17  19
ENDBRANCH  16  17
ENDBRANCH   4  16
TORSDOF 6
ENDMDL
