MODEL 1
REMARK VINA RESULT:      -5.5      0.000      0.000
REMARK  Name = 142505488
REMARK  7 active torsions:
REMARK  status: ('A' for Active; 'I' for Inactive)
REMARK    1  A    between atoms: N_5  and  C_8
REMARK    2  A    between atoms: N_5  and  C_10
REMARK    3  A    between atoms: N_5  and  C_14
REMARK    4  A    between atoms: C_8  and  C_9
REMARK    5  A    between atoms: C_10  and  C_12
REMARK    6  A    between atoms: C_11  and  C_15
REMARK    7  A    between atoms: C_12  and  C_16
REMARK                            x       y       z     vdW  Elec       q    Type
REMARK                         _______ _______ _______ _____ _____    ______ ____
ROOT
ATOM      1  S   UNL     1      -6.361   5.158 -37.409  0.00  0.00    +0.000 S 
ATOM      2  N   UNL     1      -8.812   5.043 -36.636  0.00  0.00    +0.000 N 
ATOM      3  N   UNL     1      -7.937   6.980 -35.981  0.00  0.00    +0.000 NA
ATOM      4  C   UNL     1      -9.879   5.727 -36.073  0.00  0.00    +0.000 A 
ATOM      5  C   UNL     1      -9.268   6.892 -35.579  0.00  0.00    +0.000 A 
ATOM      6  C   UNL     1      -7.736   5.874 -36.627  0.00  0.00    +0.000 A 
ATOM      7  C   UNL     1      -8.571   3.803 -37.192  0.00  0.00    +0.000 A 
ATOM      8  C   UNL     1      -7.320   3.700 -37.673  0.00  0.00    +0.000 A 
ENDROOT
BRANCH   5  10
ATOM      9 CL   UNL     1     -11.658  11.481 -32.550  0.00  0.00    +0.000 Cl
ATOM     10  C   UNL     1      -9.849   7.972 -34.783  0.00  0.00    +0.000 A 
ATOM     11  C   UNL     1     -10.985   8.642 -35.282  0.00  0.00    +0.000 A 
ATOM     12  C   UNL     1      -9.295   8.423 -33.582  0.00  0.00    +0.000 A 
ATOM     13  C   UNL     1     -11.548   9.723 -34.595  0.00  0.00    +0.000 A 
ATOM     14  C   UNL     1      -9.869   9.491 -32.881  0.00  0.00    +0.000 A 
ATOM     15  C   UNL     1     -10.988  10.141 -33.393  0.00  0.00    +0.000 A 
ENDBRANCH   5  10
BRANCH   4  16
ATOM     16  C   UNL     1     -11.275   5.192 -36.097  0.00  0.00    +0.000 C 
BRANCH  16  17
ATOM     17  N   UNL     1     -11.770   4.579 -34.850  0.00  0.00    +0.000 NA
ATOM     18  C   UNL     1     -10.816   3.628 -34.269  0.00  0.00    +0.000 C 
BRANCH  17  19
ATOM     19  C   UNL     1     -12.201   5.526 -33.817  0.00  0.00    +0.000 C 
BRANCH  19  20
ATOM     20  C   UNL     1     -13.580   5.256 -33.184  0.00  0.00    +0.000 C 
BRANCH  20  23
ATOM     21 CL   UNL     1     -18.508   6.956 -32.942  0.00  0.00    +0.000 Cl
ATOM     22 CL   UNL     1     -17.909   8.665 -35.647  0.00  0.00    +0.000 Cl
ATOM     23  C   UNL     1     -14.639   6.232 -33.660  0.00  0.00    +0.000 A 
ATOM     24  C   UNL     1     -15.917   6.297 -33.076  0.00  0.00    +0.000 A 
ATOM     25  C   UNL     1     -14.361   7.075 -34.742  0.00  0.00    +0.000 A 
ATOM     26  C   UNL     1     -16.940   7.050 -33.660  0.00  0.00    +0.000 A 
ATOM     27  C   UNL     1     -15.375   7.845 -35.317  0.00  0.00    +0.000 A 
ATOM     28  C   UNL     1     -16.675   7.801 -34.804  0.00  0.00    +0.000 A 
ENDBRANCH  20  23
ENDBRANCH  19  20
ENDBRANCH  17  19
ENDBRANCH  16  17
ENDBRANCH   4  16
TORSDOF 6
ENDMDL
MODEL 2
REMARK VINA RESULT:      -5.4     22.506     24.491
REMARK  Name = 142505488
REMARK  7 active torsions:
REMARK  status: ('A' for Active; 'I' for Inactive)
REMARK    1  A    between atoms: N_5  and  C_8
REMARK    2  A    between atoms: N_5  and  C_10
REMARK    3  A    between atoms: N_5  and  C_14
REMARK    4  A    between atoms: C_8  and  C_9
REMARK    5  A    between atoms: C_10  and  C_12
REMARK    6  A    between atoms: C_11  and  C_15
REMARK    7  A    between atoms: C_12  and  C_16
REMARK                            x       y       z     vdW  Elec       q    Type
REMARK                         _______ _______ _______ _____ _____    ______ ____
ROOT
ATOM      1  S   UNL     1     -25.129   9.629 -58.565  0.00  0.00    +0.000 S 
ATOM      2  N   UNL     1     -24.647   7.277 -57.640  0.00  0.00    +0.000 N 
ATOM      3  N   UNL     1     -24.348   8.768 -56.016  0.00  0.00    +0.000 NA
ATOM      4  C   UNL     1     -24.386   6.509 -56.515  0.00  0.00    +0.000 A 
ATOM      5  C   UNL     1     -24.098   7.482 -55.542  0.00  0.00    +0.000 A 
ATOM      6  C   UNL     1     -24.698   8.579 -57.251  0.00  0.00    +0.000 A 
ATOM      7  C   UNL     1     -24.876   7.075 -58.986  0.00  0.00    +0.000 A 
ATOM      8  C   UNL     1     -25.169   8.219 -59.626  0.00  0.00    +0.000 A 
ENDROOT
BRANCH   5  10
ATOM      9 CL   UNL     1     -22.493   6.809 -49.805  0.00  0.00    +0.000 Cl
ATOM     10  C   UNL     1     -23.643   7.302 -54.165  0.00  0.00    +0.000 A 
ATOM     11  C   UNL     1     -24.424   6.517 -53.292  0.00  0.00    +0.000 A 
ATOM     12  C   UNL     1     -22.506   7.928 -53.646  0.00  0.00    +0.000 A 
ATOM     13  C   UNL     1     -24.071   6.359 -51.948  0.00  0.00    +0.000 A 
ATOM     14  C   UNL     1     -22.139   7.754 -52.305  0.00  0.00    +0.000 A 
ATOM     15  C   UNL     1     -22.925   6.977 -51.461  0.00  0.00    +0.000 A 
ENDBRANCH   5  10
BRANCH   4  16
ATOM     16  C   UNL     1     -24.454   5.016 -56.532  0.00  0.00    +0.000 C 
BRANCH  16  17
ATOM     17  N   UNL     1     -23.229   4.293 -56.143  0.00  0.00    +0.000 NA
ATOM     18  C   UNL     1     -23.416   2.838 -56.115  0.00  0.00    +0.000 C 
BRANCH  17  19
ATOM     19  C   UNL     1     -22.036   4.614 -56.932  0.00  0.00    +0.000 C 
BRANCH  19  20
ATOM     20  C   UNL     1     -20.832   5.167 -56.145  0.00  0.00    +0.000 C 
BRANCH  20  23
ATOM     21 CL   UNL     1     -21.345   9.111 -59.524  0.00  0.00    +0.000 Cl
ATOM     22 CL   UNL     1     -18.847  10.552 -58.013  0.00  0.00    +0.000 Cl
ATOM     23  C   UNL     1     -20.488   6.592 -56.536  0.00  0.00    +0.000 A 
ATOM     24  C   UNL     1     -21.096   7.238 -57.628  0.00  0.00    +0.000 A 
ATOM     25  C   UNL     1     -19.507   7.285 -55.818  0.00  0.00    +0.000 A 
ATOM     26  C   UNL     1     -20.619   8.466 -58.096  0.00  0.00    +0.000 A 
ATOM     27  C   UNL     1     -19.041   8.522 -56.269  0.00  0.00    +0.000 A 
ATOM     28  C   UNL     1     -19.566   9.094 -57.432  0.00  0.00    +0.000 A 
ENDBRANCH  20  23
ENDBRANCH  19  20
ENDBRANCH  17  19
ENDBRANCH  16  17
ENDBRANCH   4  16
TORSDOF 6
ENDMDL
MODEL 3
REMARK VINA RESULT:      -5.3      3.471      5.522
REMARK  Name = 142505488
REMARK  7 active torsions:
REMARK  status: ('A' for Active; 'I' for Inactive)
REMARK    1  A    between atoms: N_5  and  C_8
REMARK    2  A    between atoms: N_5  and  C_10
REMARK    3  A    between atoms: N_5  and  C_14
REMARK    4  A    between atoms: C_8  and  C_9
REMARK    5  A    between atoms: C_10  and  C_12
REMARK    6  A    between atoms: C_11  and  C_15
REMARK    7  A    between atoms: C_12  and  C_16
REMARK                            x       y       z     vdW  Elec       q    Type
REMARK                         _______ _______ _______ _____ _____    ______ ____
ROOT
ATOM      1  S   UNL     1     -10.632  13.279 -33.893  0.00  0.00    +0.000 S 
ATOM      2  N   UNL     1     -11.807  11.139 -33.080  0.00  0.00    +0.000 N 
ATOM      3  N   UNL     1     -10.438  10.621 -34.755  0.00  0.00    +0.000 NA
ATOM      4  C   UNL     1     -11.874   9.756 -33.161  0.00  0.00    +0.000 A 
ATOM      5  C   UNL     1     -11.085   9.478 -34.291  0.00  0.00    +0.000 A 
ATOM      6  C   UNL     1     -10.881  11.563 -33.981  0.00  0.00    +0.000 A 
ATOM      7  C   UNL     1     -12.394  12.150 -32.348  0.00  0.00    +0.000 A 
ATOM      8  C   UNL     1     -11.872  13.353 -32.638  0.00  0.00    +0.000 A 
ENDROOT
BRANCH   5  10
ATOM      9 CL   UNL     1      -9.860   4.332 -37.112  0.00  0.00    +0.000 Cl
ATOM     10  C   UNL     1     -10.848   8.199 -34.958  0.00  0.00    +0.000 A 
ATOM     11  C   UNL     1      -9.613   7.551 -34.756  0.00  0.00    +0.000 A 
ATOM     12  C   UNL     1     -11.758   7.617 -35.845  0.00  0.00    +0.000 A 
ATOM     13  C   UNL     1      -9.305   6.356 -35.416  0.00  0.00    +0.000 A 
ATOM     14  C   UNL     1     -11.462   6.410 -36.491  0.00  0.00    +0.000 A 
ATOM     15  C   UNL     1     -10.235   5.789 -36.279  0.00  0.00    +0.000 A 
ENDBRANCH   5  10
BRANCH   4  16
ATOM     16  C   UNL     1     -12.645   8.933 -32.179  0.00  0.00    +0.000 C 
BRANCH  16  17
ATOM     17  N   UNL     1     -13.603   7.961 -32.739  0.00  0.00    +0.000 NA
ATOM     18  C   UNL     1     -14.249   7.145 -31.705  0.00  0.00    +0.000 C 
BRANCH  17  19
ATOM     19  C   UNL     1     -14.628   8.530 -33.619  0.00  0.00    +0.000 C 
BRANCH  19  20
ATOM     20  C   UNL     1     -15.540   7.517 -34.340  0.00  0.00    +0.000 C 
BRANCH  20  23
ATOM     21 CL   UNL     1     -20.414   6.814 -32.614  0.00  0.00    +0.000 Cl
ATOM     22 CL   UNL     1     -21.399   8.808 -34.992  0.00  0.00    +0.000 Cl
ATOM     23  C   UNL     1     -16.993   7.949 -34.351  0.00  0.00    +0.000 A 
ATOM     24  C   UNL     1     -17.948   7.393 -33.482  0.00  0.00    +0.000 A 
ATOM     25  C   UNL     1     -17.419   8.906 -35.279  0.00  0.00    +0.000 A 
ATOM     26  C   UNL     1     -19.312   7.652 -33.648  0.00  0.00    +0.000 A 
ATOM     27  C   UNL     1     -18.779   9.184 -35.436  0.00  0.00    +0.000 A 
ATOM     28  C   UNL     1     -19.730   8.525 -34.650  0.00  0.00    +0.000 A 
ENDBRANCH  20  23
ENDBRANCH  19  20
ENDBRANCH  17  19
ENDBRANCH  16  17
ENDBRANCH   4  16
TORSDOF 6
ENDMDL
MODEL 4
REMARK VINA RESULT:      -5.2     23.768     25.481
REMARK  Name = 142505488
REMARK  7 active torsions:
REMARK  status: ('A' for Active; 'I' for Inactive)
REMARK    1  A    between atoms: N_5  and  C_8
REMARK    2  A    between atoms: N_5  and  C_10
REMARK    3  A    between atoms: N_5  and  C_14
REMARK    4  A    between atoms: C_8  and  C_9
REMARK    5  A    between atoms: C_10  and  C_12
REMARK    6  A    between atoms: C_11  and  C_15
REMARK    7  A    between atoms: C_12  and  C_16
REMARK                            x       y       z     vdW  Elec       q    Type
REMARK                         _______ _______ _______ _____ _____    ______ ____
ROOT
ATOM      1  S   UNL     1      -8.728  15.212 -53.470  0.00  0.00    +0.000 S 
ATOM      2  N   UNL     1      -8.519  14.028 -55.745  0.00  0.00    +0.000 N 
ATOM      3  N   UNL     1     -10.647  13.981 -55.096  0.00  0.00    +0.000 NA
ATOM      4  C   UNL     1      -9.191  13.460 -56.817  0.00  0.00    +0.000 A 
ATOM      5  C   UNL     1     -10.505  13.349 -56.331  0.00  0.00    +0.000 A 
ATOM      6  C   UNL     1      -9.447  14.388 -54.818  0.00  0.00    +0.000 A 
ATOM      7  C   UNL     1      -7.219  14.325 -55.394  0.00  0.00    +0.000 A 
ATOM      8  C   UNL     1      -7.148  14.977 -54.221  0.00  0.00    +0.000 A 
ENDROOT
BRANCH   5  10
ATOM      9 CL   UNL     1     -15.451  10.990 -58.761  0.00  0.00    +0.000 Cl
ATOM     10  C   UNL     1     -11.671  12.728 -56.957  0.00  0.00    +0.000 A 
ATOM     11  C   UNL     1     -12.634  13.560 -57.563  0.00  0.00    +0.000 A 
ATOM     12  C   UNL     1     -11.917  11.353 -56.923  0.00  0.00    +0.000 A 
ATOM     13  C   UNL     1     -13.800  13.028 -58.124  0.00  0.00    +0.000 A 
ATOM     14  C   UNL     1     -13.073  10.816 -57.503  0.00  0.00    +0.000 A 
ATOM     15  C   UNL     1     -14.013  11.654 -58.094  0.00  0.00    +0.000 A 
ENDBRANCH   5  10
BRANCH   4  16
ATOM     16  C   UNL     1      -8.506  13.127 -58.104  0.00  0.00    +0.000 C 
BRANCH  16  17
ATOM     17  N   UNL     1      -8.669  14.091 -59.209  0.00  0.00    +0.000 NA
ATOM     18  C   UNL     1      -7.385  14.570 -59.734  0.00  0.00    +0.000 C 
BRANCH  17  19
ATOM     19  C   UNL     1      -9.507  13.632 -60.320  0.00  0.00    +0.000 C 
BRANCH  19  20
ATOM     20  C   UNL     1     -10.096  12.214 -60.183  0.00  0.00    +0.000 C 
BRANCH  20  23
ATOM     21 CL   UNL     1     -10.787  12.002 -65.352  0.00  0.00    +0.000 Cl
ATOM     22 CL   UNL     1     -13.927  11.372 -64.770  0.00  0.00    +0.000 Cl
ATOM     23  C   UNL     1     -10.977  11.835 -61.358  0.00  0.00    +0.000 A 
ATOM     24  C   UNL     1     -10.526  11.910 -62.689  0.00  0.00    +0.000 A 
ATOM     25  C   UNL     1     -12.296  11.432 -61.127  0.00  0.00    +0.000 A 
ATOM     26  C   UNL     1     -11.412  11.758 -63.760  0.00  0.00    +0.000 A 
ATOM     27  C   UNL     1     -13.181  11.258 -62.195  0.00  0.00    +0.000 A 
ATOM     28  C   UNL     1     -12.751  11.463 -63.509  0.00  0.00    +0.000 A 
ENDBRANCH  20  23
ENDBRANCH  19  20
ENDBRANCH  17  19
ENDBRANCH  16  17
ENDBRANCH   4  16
TORSDOF 6
ENDMDL
MODEL 5
REMARK VINA RESULT:      -5.1     15.826     17.426
REMARK  Name = 142505488
REMARK  7 active torsions:
REMARK  status: ('A' for Active; 'I' for Inactive)
REMARK    1  A    between atoms: N_5  and  C_8
REMARK    2  A    between atoms: N_5  and  C_10
REMARK    3  A    between atoms: N_5  and  C_14
REMARK    4  A    between atoms: C_8  and  C_9
REMARK    5  A    between atoms: C_10  and  C_12
REMARK    6  A    between atoms: C_11  and  C_15
REMARK    7  A    between atoms: C_12  and  C_16
REMARK                            x       y       z     vdW  Elec       q    Type
REMARK                         _______ _______ _______ _____ _____    ______ ____
ROOT
ATOM      1  S   UNL     1      -7.978  -6.302 -40.145  0.00  0.00    +0.000 S 
ATOM      2  N   UNL     1      -9.430  -7.193 -42.074  0.00  0.00    +0.000 N 
ATOM      3  N   UNL     1     -10.555  -7.399 -40.165  0.00  0.00    +0.000 NA
ATOM      4  C   UNL     1     -10.681  -7.651 -42.462  0.00  0.00    +0.000 A 
ATOM      5  C   UNL     1     -11.321  -7.870 -41.230  0.00  0.00    +0.000 A 
ATOM      6  C   UNL     1      -9.464  -6.983 -40.731  0.00  0.00    +0.000 A 
ATOM      7  C   UNL     1      -8.222  -6.891 -42.668  0.00  0.00    +0.000 A 
ATOM      8  C   UNL     1      -7.340  -6.385 -41.789  0.00  0.00    +0.000 A 
ENDROOT
BRANCH   5  10
ATOM      9 CL   UNL     1     -16.721 -10.344 -40.414  0.00  0.00    +0.000 Cl
ATOM     10  C   UNL     1     -12.635  -8.454 -40.964  0.00  0.00    +0.000 A 
ATOM     11  C   UNL     1     -12.898  -9.760 -41.424  0.00  0.00    +0.000 A 
ATOM     12  C   UNL     1     -13.671  -7.756 -40.338  0.00  0.00    +0.000 A 
ATOM     13  C   UNL     1     -14.156 -10.349 -41.254  0.00  0.00    +0.000 A 
ATOM     14  C   UNL     1     -14.925  -8.350 -40.147  0.00  0.00    +0.000 A 
ATOM     15  C   UNL     1     -15.164  -9.640 -40.611  0.00  0.00    +0.000 A 
ENDBRANCH   5  10
BRANCH   4  16
ATOM     16  C   UNL     1     -11.068  -7.800 -43.898  0.00  0.00    +0.000 C 
BRANCH  16  17
ATOM     17  N   UNL     1     -11.448  -6.566 -44.612  0.00  0.00    +0.000 NA
ATOM     18  C   UNL     1     -10.517  -6.229 -45.695  0.00  0.00    +0.000 C 
BRANCH  17  19
ATOM     19  C   UNL     1     -12.821  -6.539 -45.125  0.00  0.00    +0.000 C 
BRANCH  19  20
ATOM     20  C   UNL     1     -13.921  -6.208 -44.098  0.00  0.00    +0.000 C 
BRANCH  20  23
ATOM     21 CL   UNL     1     -15.383 -11.075 -45.283  0.00  0.00    +0.000 Cl
ATOM     22 CL   UNL     1     -18.275 -10.385 -43.957  0.00  0.00    +0.000 Cl
ATOM     23  C   UNL     1     -14.916  -7.340 -43.926  0.00  0.00    +0.000 A 
ATOM     24  C   UNL     1     -14.695  -8.620 -44.466  0.00  0.00    +0.000 A 
ATOM     25  C   UNL     1     -16.114  -7.106 -43.243  0.00  0.00    +0.000 A 
ATOM     26  C   UNL     1     -15.709  -9.583 -44.477  0.00  0.00    +0.000 A 
ATOM     27  C   UNL     1     -17.123  -8.073 -43.233  0.00  0.00    +0.000 A 
ATOM     28  C   UNL     1     -16.938  -9.295 -43.886  0.00  0.00    +0.000 A 
ENDBRANCH  20  23
ENDBRANCH  19  20
ENDBRANCH  17  19
ENDBRANCH  16  17
ENDBRANCH   4  16
TORSDOF 6
ENDMDL
MODEL 6
REMARK VINA RESULT:      -5.1     22.231     24.034
REMARK  Name = 142505488
REMARK  7 active torsions:
REMARK  status: ('A' for Active; 'I' for Inactive)
REMARK    1  A    between atoms: N_5  and  C_8
REMARK    2  A    between atoms: N_5  and  C_10
REMARK    3  A    between atoms: N_5  and  C_14
REMARK    4  A    between atoms: C_8  and  C_9
REMARK    5  A    between atoms: C_10  and  C_12
REMARK    6  A    between atoms: C_11  and  C_15
REMARK    7  A    between atoms: C_12  and  C_16
REMARK                            x       y       z     vdW  Elec       q    Type
REMARK                         _______ _______ _______ _____ _____    ______ ____
ROOT
ATOM      1  S   UNL     1     -26.989   4.175 -53.252  0.00  0.00    +0.000 S 
ATOM      2  N   UNL     1     -25.429   6.114 -52.597  0.00  0.00    +0.000 N 
ATOM      3  N   UNL     1     -24.600   5.092 -54.390  0.00  0.00    +0.000 NA
ATOM      4  C   UNL     1     -24.332   6.884 -52.952  0.00  0.00    +0.000 A 
ATOM      5  C   UNL     1     -23.776   6.151 -54.015  0.00  0.00    +0.000 A 
ATOM      6  C   UNL     1     -25.574   5.141 -53.535  0.00  0.00    +0.000 A 
ATOM      7  C   UNL     1     -26.379   6.087 -51.597  0.00  0.00    +0.000 A 
ATOM      8  C   UNL     1     -27.300   5.130 -51.800  0.00  0.00    +0.000 A 
ENDROOT
BRANCH   5  10
ATOM      9 CL   UNL     1     -18.618   6.865 -56.986  0.00  0.00    +0.000 Cl
ATOM     10  C   UNL     1     -22.536   6.391 -54.751  0.00  0.00    +0.000 A 
ATOM     11  C   UNL     1     -22.145   5.460 -55.735  0.00  0.00    +0.000 A 
ATOM     12  C   UNL     1     -21.680   7.462 -54.482  0.00  0.00    +0.000 A 
ATOM     13  C   UNL     1     -20.939   5.604 -56.430  0.00  0.00    +0.000 A 
ATOM     14  C   UNL     1     -20.482   7.620 -55.190  0.00  0.00    +0.000 A 
ATOM     15  C   UNL     1     -20.113   6.688 -56.155  0.00  0.00    +0.000 A 
ENDBRANCH   5  10
BRANCH   4  16
ATOM     16  C   UNL     1     -23.992   8.162 -52.255  0.00  0.00    +0.000 C 
BRANCH  16  17
ATOM     17  N   UNL     1     -24.566   9.398 -52.822  0.00  0.00    +0.000 NA
ATOM     18  C   UNL     1     -25.444  10.098 -51.879  0.00  0.00    +0.000 C 
BRANCH  17  19
ATOM     19  C   UNL     1     -23.591  10.344 -53.372  0.00  0.00    +0.000 C 
BRANCH  19  20
ATOM     20  C   UNL     1     -24.004  11.064 -54.671  0.00  0.00    +0.000 C 
BRANCH  20  23
ATOM     21 CL   UNL     1     -24.781   6.995 -57.844  0.00  0.00    +0.000 Cl
ATOM     22 CL   UNL     1     -21.893   7.665 -59.189  0.00  0.00    +0.000 Cl
ATOM     23  C   UNL     1     -23.601  10.295 -55.915  0.00  0.00    +0.000 A 
ATOM     24  C   UNL     1     -24.347   9.205 -56.397  0.00  0.00    +0.000 A 
ATOM     25  C   UNL     1     -22.428  10.648 -56.592  0.00  0.00    +0.000 A 
ATOM     26  C   UNL     1     -23.851   8.386 -57.416  0.00  0.00    +0.000 A 
ATOM     27  C   UNL     1     -21.938   9.844 -57.624  0.00  0.00    +0.000 A 
ATOM     28  C   UNL     1     -22.626   8.689 -58.008  0.00  0.00    +0.000 A 
ENDBRANCH  20  23
ENDBRANCH  19  20
ENDBRANCH  17  19
ENDBRANCH  16  17
ENDBRANCH   4  16
TORSDOF 6
ENDMDL
MODEL 7
REMARK VINA RESULT:      -5.0     21.116     24.467
REMARK  Name = 142505488
REMARK  7 active torsions:
REMARK  status: ('A' for Active; 'I' for Inactive)
REMARK    1  A    between atoms: N_5  and  C_8
REMARK    2  A    between atoms: N_5  and  C_10
REMARK    3  A    between atoms: N_5  and  C_14
REMARK    4  A    between atoms: C_8  and  C_9
REMARK    5  A    between atoms: C_10  and  C_12
REMARK    6  A    between atoms: C_11  and  C_15
REMARK    7  A    between atoms: C_12  and  C_16
REMARK                            x       y       z     vdW  Elec       q    Type
REMARK                         _______ _______ _______ _____ _____    ______ ____
ROOT
ATOM      1  S   UNL     1      -4.136   6.628 -60.434  0.00  0.00    +0.000 S 
ATOM      2  N   UNL     1      -3.106   6.773 -58.081  0.00  0.00    +0.000 N 
ATOM      3  N   UNL     1      -4.530   5.064 -58.144  0.00  0.00    +0.000 NA
ATOM      4  C   UNL     1      -2.967   6.166 -56.841  0.00  0.00    +0.000 A 
ATOM      5  C   UNL     1      -3.952   5.164 -56.880  0.00  0.00    +0.000 A 
ATOM      6  C   UNL     1      -3.967   6.020 -58.817  0.00  0.00    +0.000 A 
ATOM      7  C   UNL     1      -2.611   7.880 -58.739  0.00  0.00    +0.000 A 
ATOM      8  C   UNL     1      -3.041   7.946 -60.011  0.00  0.00    +0.000 A 
ENDROOT
BRANCH   5  10
ATOM      9 CL   UNL     1      -5.796   1.229 -52.750  0.00  0.00    +0.000 Cl
ATOM     10  C   UNL     1      -4.375   4.246 -55.824  0.00  0.00    +0.000 A 
ATOM     11  C   UNL     1      -4.097   2.872 -55.973  0.00  0.00    +0.000 A 
ATOM     12  C   UNL     1      -5.105   4.651 -54.703  0.00  0.00    +0.000 A 
ATOM     13  C   UNL     1      -4.530   1.938 -55.026  0.00  0.00    +0.000 A 
ATOM     14  C   UNL     1      -5.522   3.721 -53.742  0.00  0.00    +0.000 A 
ATOM     15  C   UNL     1      -5.239   2.369 -53.911  0.00  0.00    +0.000 A 
ENDBRANCH   5  10
BRANCH   4  16
ATOM     16  C   UNL     1      -1.946   6.611 -55.844  0.00  0.00    +0.000 C 
BRANCH  16  17
ATOM     17  N   UNL     1      -0.613   5.986 -55.937  0.00  0.00    +0.000 NA
ATOM     18  C   UNL     1      -0.647   4.680 -56.605  0.00  0.00    +0.000 C 
BRANCH  17  19
ATOM     19  C   UNL     1       0.426   6.819 -56.551  0.00  0.00    +0.000 C 
BRANCH  19  20
ATOM     20  C   UNL     1       0.415   8.310 -56.161  0.00  0.00    +0.000 C 
BRANCH  20  23
ATOM     21 CL   UNL     1       2.305   8.903 -51.333  0.00  0.00    +0.000 Cl
ATOM     22 CL   UNL     1       4.813  10.502 -52.657  0.00  0.00    +0.000 Cl
ATOM     23  C   UNL     1       1.578   8.683 -55.261  0.00  0.00    +0.000 A 
ATOM     24  C   UNL     1       1.532   8.512 -53.866  0.00  0.00    +0.000 A 
ATOM     25  C   UNL     1       2.726   9.253 -55.822  0.00  0.00    +0.000 A 
ATOM     26  C   UNL     1       2.523   9.050 -53.040  0.00  0.00    +0.000 A 
ATOM     27  C   UNL     1       3.730   9.775 -55.002  0.00  0.00    +0.000 A 
ATOM     28  C   UNL     1       3.609   9.713 -53.610  0.00  0.00    +0.000 A 
ENDBRANCH  20  23
ENDBRANCH  19  20
ENDBRANCH  17  19
ENDBRANCH  16  17
ENDBRANCH   4  16
TORSDOF 6
ENDMDL
MODEL 8
REMARK VINA RESULT:      -5.0      2.606      6.025
REMARK  Name = 142505488
REMARK  7 active torsions:
REMARK  status: ('A' for Active; 'I' for Inactive)
REMARK    1  A    between atoms: N_5  and  C_8
REMARK    2  A    between atoms: N_5  and  C_10
REMARK    3  A    between atoms: N_5  and  C_14
REMARK    4  A    between atoms: C_8  and  C_9
REMARK    5  A    between atoms: C_10  and  C_12
REMARK    6  A    between atoms: C_11  and  C_15
REMARK    7  A    between atoms: C_12  and  C_16
REMARK                            x       y       z     vdW  Elec       q    Type
REMARK                         _______ _______ _______ _____ _____    ______ ____
ROOT
ATOM      1  S   UNL     1      -8.161   4.073 -36.924  0.00  0.00    +0.000 S 
ATOM      2  N   UNL     1      -8.692   6.363 -35.877  0.00  0.00    +0.000 N 
ATOM      3  N   UNL     1     -10.541   5.126 -35.890  0.00  0.00    +0.000 NA
ATOM      4  C   UNL     1      -9.624   7.135 -35.201  0.00  0.00    +0.000 A 
ATOM      5  C   UNL     1     -10.799   6.372 -35.323  0.00  0.00    +0.000 A 
ATOM      6  C   UNL     1      -9.275   5.169 -36.168  0.00  0.00    +0.000 A 
ATOM      7  C   UNL     1      -7.383   6.475 -36.299  0.00  0.00    +0.000 A 
ATOM      8  C   UNL     1      -6.933   5.340 -36.860  0.00  0.00    +0.000 A 
ENDROOT
BRANCH   5  10
ATOM      9 CL   UNL     1     -16.332   7.994 -33.683  0.00  0.00    +0.000 Cl
ATOM     10  C   UNL     1     -12.160   6.702 -34.905  0.00  0.00    +0.000 A 
ATOM     11  C   UNL     1     -12.964   7.471 -35.771  0.00  0.00    +0.000 A 
ATOM     12  C   UNL     1     -12.684   6.352 -33.658  0.00  0.00    +0.000 A 
ATOM     13  C   UNL     1     -14.253   7.870 -35.399  0.00  0.00    +0.000 A 
ATOM     14  C   UNL     1     -13.982   6.731 -33.292  0.00  0.00    +0.000 A 
ATOM     15  C   UNL     1     -14.758   7.493 -34.160  0.00  0.00    +0.000 A 
ENDBRANCH   5  10
BRANCH   4  16
ATOM     16  C   UNL     1      -9.268   8.435 -34.555  0.00  0.00    +0.000 C 
BRANCH  16  17
ATOM     17  N   UNL     1      -9.890   8.716 -33.247  0.00  0.00    +0.000 NA
ATOM     18  C   UNL     1      -8.900   8.995 -32.200  0.00  0.00    +0.000 C 
BRANCH  17  19
ATOM     19  C   UNL     1     -10.904   9.774 -33.251  0.00  0.00    +0.000 C 
BRANCH  19  20
ATOM     20  C   UNL     1     -11.041  10.575 -34.560  0.00  0.00    +0.000 C 
BRANCH  20  23
ATOM     21 CL   UNL     1     -11.618  15.762 -34.561  0.00  0.00    +0.000 Cl
ATOM     22 CL   UNL     1      -8.391  15.985 -34.932  0.00  0.00    +0.000 Cl
ATOM     23  C   UNL     1     -10.407  11.949 -34.469  0.00  0.00    +0.000 A 
ATOM     24  C   UNL     1     -11.173  13.127 -34.399  0.00  0.00    +0.000 A 
ATOM     25  C   UNL     1      -9.012  12.066 -34.494  0.00  0.00    +0.000 A 
ATOM     26  C   UNL     1     -10.576  14.385 -34.525  0.00  0.00    +0.000 A 
ATOM     27  C   UNL     1      -8.409  13.322 -34.599  0.00  0.00    +0.000 A 
ATOM     28  C   UNL     1      -9.192  14.479 -34.658  0.00  0.00    +0.000 A 
ENDBRANCH  20  23
ENDBRANCH  19  20
ENDBRANCH  17  19
ENDBRANCH  16  17
ENDBRANCH   4  16
TORSDOF 6
ENDMDL
MODEL 9
REMARK VINA RESULT:      -5.0     14.824     16.695
REMARK  Name = 142505488
REMARK  7 active torsions:
REMARK  status: ('A' for Active; 'I' for Inactive)
REMARK    1  A    between atoms: N_5  and  C_8
REMARK    2  A    between atoms: N_5  and  C_10
REMARK    3  A    between atoms: N_5  and  C_14
REMARK    4  A    between atoms: C_8  and  C_9
REMARK    5  A    between atoms: C_10  and  C_12
REMARK    6  A    between atoms: C_11  and  C_15
REMARK    7  A    between atoms: C_12  and  C_16
REMARK                            x       y       z     vdW  Elec       q    Type
REMARK                         _______ _______ _______ _____ _____    ______ ____
ROOT
ATOM      1  S   UNL     1     -18.755  16.191 -50.692  0.00  0.00    +0.000 S 
ATOM      2  N   UNL     1     -18.416  15.579 -48.215  0.00  0.00    +0.000 N 
ATOM      3  N   UNL     1     -16.534  16.461 -49.007  0.00  0.00    +0.000 NA
ATOM      4  C   UNL     1     -17.587  15.666 -47.107  0.00  0.00    +0.000 A 
ATOM      5  C   UNL     1     -16.380  16.124 -47.664  0.00  0.00    +0.000 A 
ATOM      6  C   UNL     1     -17.765  16.146 -49.266  0.00  0.00    +0.000 A 
ATOM      7  C   UNL     1     -19.677  15.105 -48.515  0.00  0.00    +0.000 A 
ATOM      8  C   UNL     1     -20.026  15.366 -49.786  0.00  0.00    +0.000 A 
ENDROOT
BRANCH   5  10
ATOM      9 CL   UNL     1     -10.951  16.994 -45.275  0.00  0.00    +0.000 Cl
ATOM     10  C   UNL     1     -15.082  16.317 -47.020  0.00  0.00    +0.000 A 
ATOM     11  C   UNL     1     -14.372  17.508 -47.277  0.00  0.00    +0.000 A 
ATOM     12  C   UNL     1     -14.474  15.350 -46.216  0.00  0.00    +0.000 A 
ATOM     13  C   UNL     1     -13.099  17.722 -46.738  0.00  0.00    +0.000 A 
ATOM     14  C   UNL     1     -13.209  15.571 -45.657  0.00  0.00    +0.000 A 
ATOM     15  C   UNL     1     -12.524  16.752 -45.926  0.00  0.00    +0.000 A 
ENDBRANCH   5  10
BRANCH   4  16
ATOM     16  C   UNL     1     -18.054  15.319 -45.730  0.00  0.00    +0.000 C 
BRANCH  16  17
ATOM     17  N   UNL     1     -18.658  16.410 -44.942  0.00  0.00    +0.000 NA
ATOM     18  C   UNL     1     -19.446  15.918 -43.807  0.00  0.00    +0.000 C 
BRANCH  17  19
ATOM     19  C   UNL     1     -17.721  17.436 -44.475  0.00  0.00    +0.000 C 
BRANCH  19  20
ATOM     20  C   UNL     1     -16.562  16.941 -43.588  0.00  0.00    +0.000 C 
BRANCH  20  23
ATOM     21 CL   UNL     1     -14.432  21.419 -45.216  0.00  0.00    +0.000 Cl
ATOM     22 CL   UNL     1     -11.704  20.521 -43.682  0.00  0.00    +0.000 Cl
ATOM     23  C   UNL     1     -15.434  17.950 -43.490  0.00  0.00    +0.000 A 
ATOM     24  C   UNL     1     -15.465  19.179 -44.175  0.00  0.00    +0.000 A 
ATOM     25  C   UNL     1     -14.301  17.645 -42.727  0.00  0.00    +0.000 A 
ATOM     26  C   UNL     1     -14.333  19.998 -44.239  0.00  0.00    +0.000 A 
ATOM     27  C   UNL     1     -13.175  18.470 -42.771  0.00  0.00    +0.000 A 
ATOM     28  C   UNL     1     -13.174  19.624 -43.560  0.00  0.00    +0.000 A 
ENDBRANCH  20  23
ENDBRANCH  19  20
ENDBRANCH  17  19
ENDBRANCH  16  17
ENDBRANCH   4  16
TORSDOF 6
ENDMDL
MODEL 10
REMARK VINA RESULT:      -5.0     14.671     16.533
REMARK  Name = 142505488
REMARK  7 active torsions:
REMARK  status: ('A' for Active; 'I' for Inactive)
REMARK    1  A    between atoms: N_5  and  C_8
REMARK    2  A    between atoms: N_5  and  C_10
REMARK    3  A    between atoms: N_5  and  C_14
REMARK    4  A    between atoms: C_8  and  C_9
REMARK    5  A    between atoms: C_10  and  C_12
REMARK    6  A    between atoms: C_11  and  C_15
REMARK    7  A    between atoms: C_12  and  C_16
REMARK                            x       y       z     vdW  Elec       q    Type
REMARK                         _______ _______ _______ _____ _____    ______ ____
ROOT
ATOM      1  S   UNL     1     -11.794  19.149 -42.145  0.00  0.00    +0.000 S 
ATOM      2  N   UNL     1     -12.077  17.548 -44.139  0.00  0.00    +0.000 N 
ATOM      3  N   UNL     1     -14.076  17.960 -43.253  0.00  0.00    +0.000 NA
ATOM      4  C   UNL     1     -12.966  16.906 -44.988  0.00  0.00    +0.000 A 
ATOM      5  C   UNL     1     -14.199  17.098 -44.340  0.00  0.00    +0.000 A 
ATOM      6  C   UNL     1     -12.805  18.216 -43.204  0.00  0.00    +0.000 A 
ATOM      7  C   UNL     1     -10.711  17.694 -44.009  0.00  0.00    +0.000 A 
ATOM      8  C   UNL     1     -10.385  18.531 -43.010  0.00  0.00    +0.000 A 
ENDROOT
BRANCH   5  10
ATOM      9 CL   UNL     1     -19.472  14.745 -45.952  0.00  0.00    +0.000 Cl
ATOM     10  C   UNL     1     -15.516  16.566 -44.687  0.00  0.00    +0.000 A 
ATOM     11  C   UNL     1     -15.681  15.167 -44.759  0.00  0.00    +0.000 A 
ATOM     12  C   UNL     1     -16.605  17.375 -45.021  0.00  0.00    +0.000 A 
ATOM     13  C   UNL     1     -16.901  14.601 -45.145  0.00  0.00    +0.000 A 
ATOM     14  C   UNL     1     -17.834  16.810 -45.388  0.00  0.00    +0.000 A 
ATOM     15  C   UNL     1     -17.975  15.428 -45.455  0.00  0.00    +0.000 A 
ENDBRANCH   5  10
BRANCH   4  16
ATOM     16  C   UNL     1     -12.526  16.236 -46.250  0.00  0.00    +0.000 C 
BRANCH  16  17
ATOM     17  N   UNL     1     -12.600  17.038 -47.486  0.00  0.00    +0.000 NA
ATOM     18  C   UNL     1     -11.279  17.460 -47.966  0.00  0.00    +0.000 C 
BRANCH  17  19
ATOM     19  C   UNL     1     -13.343  16.421 -48.588  0.00  0.00    +0.000 C 
BRANCH  19  20
ATOM     20  C   UNL     1     -14.641  15.685 -48.201  0.00  0.00    +0.000 C 
BRANCH  20  23
ATOM     21 CL   UNL     1     -19.687  15.264 -49.464  0.00  0.00    +0.000 Cl
ATOM     22 CL   UNL     1     -18.805  15.684 -52.569  0.00  0.00    +0.000 Cl
ATOM     23  C   UNL     1     -15.736  15.855 -49.236  0.00  0.00    +0.000 A 
ATOM     24  C   UNL     1     -17.096  15.672 -48.927  0.00  0.00    +0.000 A 
ATOM     25  C   UNL     1     -15.393  16.167 -50.556  0.00  0.00    +0.000 A 
ATOM     26  C   UNL     1     -18.065  15.628 -49.933  0.00  0.00    +0.000 A 
ATOM     27  C   UNL     1     -16.361  16.145 -51.563  0.00  0.00    +0.000 A 
ATOM     28  C   UNL     1     -17.690  15.834 -51.260  0.00  0.00    +0.000 A 
ENDBRANCH  20  23
ENDBRANCH  19  20
ENDBRANCH  17  19
ENDBRANCH  16  17
ENDBRANCH   4  16
TORSDOF 6
ENDMDL
