MODEL 1
REMARK VINA RESULT:      -5.7      0.000      0.000
REMARK  Name = 142505467
REMARK  5 active torsions:
REMARK  status: ('A' for Active; 'I' for Inactive)
REMARK    1  A    between atoms: N_7  and  C_13
REMARK    2  A    between atoms: C_8  and  C_14
REMARK    3  A    between atoms: C_9  and  C_11
REMARK    4  A    between atoms: C_12  and  C_13
REMARK    5  A    between atoms: C_12  and  C_16
REMARK                            x       y       z     vdW  Elec       q    Type
REMARK                         _______ _______ _______ _____ _____    ______ ____
ROOT
ATOM      1  S   UNL     1     -17.404  -7.400  15.282  0.00  0.00    +0.000 S 
ATOM      2  N   UNL     1     -14.902  -6.859  15.515  0.00  0.00    +0.000 N 
ATOM      3  N   UNL     1     -15.584  -6.271  13.467  0.00  0.00    +0.000 NA
ATOM      4  C   UNL     1     -13.770  -6.421  14.879  0.00  0.00    +0.000 A 
ATOM      5  C   UNL     1     -14.239  -5.985  13.638  0.00  0.00    +0.000 A 
ATOM      6  C   UNL     1     -15.922  -6.788  14.614  0.00  0.00    +0.000 A 
ATOM      7  C   UNL     1     -15.249  -7.364  16.750  0.00  0.00    +0.000 A 
ATOM      8  C   UNL     1     -16.550  -7.700  16.805  0.00  0.00    +0.000 A 
ENDROOT
BRANCH   5  10
ATOM      9 CL   UNL     1     -10.892  -3.377   9.420  0.00  0.00    +0.000 Cl
ATOM     10  C   UNL     1     -13.448  -5.326  12.603  0.00  0.00    +0.000 A 
ATOM     11  C   UNL     1     -13.061  -3.981  12.719  0.00  0.00    +0.000 A 
ATOM     12  C   UNL     1     -13.083  -6.035  11.455  0.00  0.00    +0.000 A 
ATOM     13  C   UNL     1     -12.262  -3.380  11.741  0.00  0.00    +0.000 A 
ATOM     14  C   UNL     1     -12.299  -5.431  10.464  0.00  0.00    +0.000 A 
ATOM     15  C   UNL     1     -11.875  -4.114  10.622  0.00  0.00    +0.000 A 
ENDBRANCH   5  10
BRANCH   4  17
ATOM     16  N   UNL     1     -11.646  -7.457  15.177  0.00  0.00    +0.000 NA
ATOM     17  C   UNL     1     -12.430  -6.453  15.374  0.00  0.00    +0.000 C 
BRANCH  16  18
ATOM     18  C   UNL     1     -10.346  -7.250  15.844  0.00  0.00    +0.000 C 
BRANCH  18  19
ATOM     19  C   UNL     1     -10.387  -7.778  17.277  0.00  0.00    +0.000 C 
BRANCH  19  22
ATOM     20 CL   UNL     1      -9.414 -12.158  19.886  0.00  0.00    +0.000 Cl
ATOM     21 CL   UNL     1      -6.444 -12.172  18.550  0.00  0.00    +0.000 Cl
ATOM     22  C   UNL     1      -9.436  -8.919  17.540  0.00  0.00    +0.000 A 
ATOM     23  C   UNL     1      -9.789  -9.928  18.449  0.00  0.00    +0.000 A 
ATOM     24  C   UNL     1      -8.190  -8.980  16.906  0.00  0.00    +0.000 A 
ATOM     25  C   UNL     1      -8.895 -10.956  18.758  0.00  0.00    +0.000 A 
ATOM     26  C   UNL     1      -7.288  -9.998  17.224  0.00  0.00    +0.000 A 
ATOM     27  C   UNL     1      -7.631 -10.978  18.162  0.00  0.00    +0.000 A 
ENDBRANCH  19  22
ENDBRANCH  18  19
ENDBRANCH  16  18
ENDBRANCH   4  17
TORSDOF 5
ENDMDL
MODEL 2
REMARK VINA RESULT:      -5.7      6.593      9.302
REMARK  Name = 142505467
REMARK  5 active torsions:
REMARK  status: ('A' for Active; 'I' for Inactive)
REMARK    1  A    between atoms: N_7  and  C_13
REMARK    2  A    between atoms: C_8  and  C_14
REMARK    3  A    between atoms: C_9  and  C_11
REMARK    4  A    between atoms: C_12  and  C_13
REMARK    5  A    between atoms: C_12  and  C_16
REMARK                            x       y       z     vdW  Elec       q    Type
REMARK                         _______ _______ _______ _____ _____    ______ ____
ROOT
ATOM      1  S   UNL     1      -9.906  -8.360  17.497  0.00  0.00    +0.000 S 
ATOM      2  N   UNL     1      -8.861 -10.675  17.102  0.00  0.00    +0.000 N 
ATOM      3  N   UNL     1      -7.296  -9.108  16.781  0.00  0.00    +0.000 NA
ATOM      4  C   UNL     1      -7.748 -11.366  16.701  0.00  0.00    +0.000 A 
ATOM      5  C   UNL     1      -6.770 -10.375  16.589  0.00  0.00    +0.000 A 
ATOM      6  C   UNL     1      -8.540  -9.350  17.084  0.00  0.00    +0.000 A 
ATOM      7  C   UNL     1     -10.163 -10.954  17.462  0.00  0.00    +0.000 A 
ATOM      8  C   UNL     1     -10.863  -9.834  17.713  0.00  0.00    +0.000 A 
ENDROOT
BRANCH   5  10
ATOM      9 CL   UNL     1      -0.953 -11.148  15.424  0.00  0.00    +0.000 Cl
ATOM     10  C   UNL     1      -5.358 -10.591  16.285  0.00  0.00    +0.000 A 
ATOM     11  C   UNL     1      -4.872 -10.534  14.969  0.00  0.00    +0.000 A 
ATOM     12  C   UNL     1      -4.466 -10.886  17.320  0.00  0.00    +0.000 A 
ATOM     13  C   UNL     1      -3.509 -10.695  14.702  0.00  0.00    +0.000 A 
ATOM     14  C   UNL     1      -3.103 -11.068  17.054  0.00  0.00    +0.000 A 
ATOM     15  C   UNL     1      -2.628 -10.950  15.750  0.00  0.00    +0.000 A 
ENDBRANCH   5  10
BRANCH   4  17
ATOM     16  N   UNL     1      -7.177 -13.603  17.283  0.00  0.00    +0.000 NA
ATOM     17  C   UNL     1      -7.648 -12.764  16.426  0.00  0.00    +0.000 C 
BRANCH  16  18
ATOM     18  C   UNL     1      -7.134 -14.966  16.718  0.00  0.00    +0.000 C 
BRANCH  18  19
ATOM     19  C   UNL     1      -6.583 -14.941  15.294  0.00  0.00    +0.000 C 
BRANCH  19  22
ATOM     20 CL   UNL     1      -1.910 -13.752  13.372  0.00  0.00    +0.000 Cl
ATOM     21 CL   UNL     1      -0.793 -16.533  14.647  0.00  0.00    +0.000 Cl
ATOM     22  C   UNL     1      -5.119 -15.294  15.194  0.00  0.00    +0.000 A 
ATOM     23  C   UNL     1      -4.251 -14.474  14.456  0.00  0.00    +0.000 A 
ATOM     24  C   UNL     1      -4.611 -16.442  15.810  0.00  0.00    +0.000 A 
ATOM     25  C   UNL     1      -2.908 -14.820  14.294  0.00  0.00    +0.000 A 
ATOM     26  C   UNL     1      -3.271 -16.799  15.637  0.00  0.00    +0.000 A 
ATOM     27  C   UNL     1      -2.421 -15.999  14.866  0.00  0.00    +0.000 A 
ENDBRANCH  19  22
ENDBRANCH  18  19
ENDBRANCH  16  18
ENDBRANCH   4  17
TORSDOF 5
ENDMDL
MODEL 3
REMARK VINA RESULT:      -5.6     31.441     33.273
REMARK  Name = 142505467
REMARK  5 active torsions:
REMARK  status: ('A' for Active; 'I' for Inactive)
REMARK    1  A    between atoms: N_7  and  C_13
REMARK    2  A    between atoms: C_8  and  C_14
REMARK    3  A    between atoms: C_9  and  C_11
REMARK    4  A    between atoms: C_12  and  C_13
REMARK    5  A    between atoms: C_12  and  C_16
REMARK                            x       y       z     vdW  Elec       q    Type
REMARK                         _______ _______ _______ _____ _____    ______ ____
ROOT
ATOM      1  S   UNL     1      11.279  15.292  27.146  0.00  0.00    +0.000 S 
ATOM      2  N   UNL     1      13.022  14.417  25.473  0.00  0.00    +0.000 N 
ATOM      3  N   UNL     1      11.114  13.283  25.193  0.00  0.00    +0.000 NA
ATOM      4  C   UNL     1      13.306  13.482  24.511  0.00  0.00    +0.000 A 
ATOM      5  C   UNL     1      12.079  12.848  24.300  0.00  0.00    +0.000 A 
ATOM      6  C   UNL     1      11.732  14.214  25.863  0.00  0.00    +0.000 A 
ATOM      7  C   UNL     1      13.681  15.427  26.141  0.00  0.00    +0.000 A 
ATOM      8  C   UNL     1      12.897  16.007  27.067  0.00  0.00    +0.000 A 
ENDROOT
BRANCH   5  10
ATOM      9 CL   UNL     1      11.021   8.581  20.241  0.00  0.00    +0.000 Cl
ATOM     10  C   UNL     1      11.801  11.829  23.291  0.00  0.00    +0.000 A 
ATOM     11  C   UNL     1      12.186  11.996  21.951  0.00  0.00    +0.000 A 
ATOM     12  C   UNL     1      11.114  10.666  23.654  0.00  0.00    +0.000 A 
ATOM     13  C   UNL     1      11.955  10.989  21.009  0.00  0.00    +0.000 A 
ATOM     14  C   UNL     1      10.864   9.663  22.710  0.00  0.00    +0.000 A 
ATOM     15  C   UNL     1      11.304   9.821  21.398  0.00  0.00    +0.000 A 
ENDBRANCH   5  10
BRANCH   4  17
ATOM     16  N   UNL     1      15.548  12.682  24.572  0.00  0.00    +0.000 NA
ATOM     17  C   UNL     1      14.574  13.210  23.914  0.00  0.00    +0.000 C 
BRANCH  16  18
ATOM     18  C   UNL     1      16.754  12.567  23.730  0.00  0.00    +0.000 C 
BRANCH  18  19
ATOM     19  C   UNL     1      16.372  12.254  22.284  0.00  0.00    +0.000 C 
BRANCH  19  22
ATOM     20 CL   UNL     1      14.066   7.618  21.932  0.00  0.00    +0.000 Cl
ATOM     21 CL   UNL     1      16.954   6.360  21.106  0.00  0.00    +0.000 Cl
ATOM     22  C   UNL     1      16.493  10.796  21.916  0.00  0.00    +0.000 A 
ATOM     23  C   UNL     1      15.379   9.950  22.033  0.00  0.00    +0.000 A 
ATOM     24  C   UNL     1      17.710  10.262  21.478  0.00  0.00    +0.000 A 
ATOM     25  C   UNL     1      15.489   8.584  21.765  0.00  0.00    +0.000 A 
ATOM     26  C   UNL     1      17.826   8.894  21.223  0.00  0.00    +0.000 A 
ATOM     27  C   UNL     1      16.722   8.049  21.381  0.00  0.00    +0.000 A 
ENDBRANCH  19  22
ENDBRANCH  18  19
ENDBRANCH  16  18
ENDBRANCH   4  17
TORSDOF 5
ENDMDL
MODEL 4
REMARK VINA RESULT:      -5.4     27.657     29.578
REMARK  Name = 142505467
REMARK  5 active torsions:
REMARK  status: ('A' for Active; 'I' for Inactive)
REMARK    1  A    between atoms: N_7  and  C_13
REMARK    2  A    between atoms: C_8  and  C_14
REMARK    3  A    between atoms: C_9  and  C_11
REMARK    4  A    between atoms: C_12  and  C_13
REMARK    5  A    between atoms: C_12  and  C_16
REMARK                            x       y       z     vdW  Elec       q    Type
REMARK                         _______ _______ _______ _____ _____    ______ ____
ROOT
ATOM      1  S   UNL     1      -1.704  14.258  33.211  0.00  0.00    +0.000 S 
ATOM      2  N   UNL     1      -3.244  12.834  34.697  0.00  0.00    +0.000 N 
ATOM      3  N   UNL     1      -1.116  12.304  35.139  0.00  0.00    +0.000 NA
ATOM      4  C   UNL     1      -3.317  11.817  35.612  0.00  0.00    +0.000 A 
ATOM      5  C   UNL     1      -1.980  11.565  35.929  0.00  0.00    +0.000 A 
ATOM      6  C   UNL     1      -1.923  13.039  34.428  0.00  0.00    +0.000 A 
ATOM      7  C   UNL     1      -4.114  13.633  33.986  0.00  0.00    +0.000 A 
ATOM      8  C   UNL     1      -3.463  14.458  33.147  0.00  0.00    +0.000 A 
ENDROOT
BRANCH   5  10
ATOM      9 CL   UNL     1       0.088   7.835  40.126  0.00  0.00    +0.000 Cl
ATOM     10  C   UNL     1      -1.499  10.631  36.943  0.00  0.00    +0.000 A 
ATOM     11  C   UNL     1      -0.949   9.387  36.595  0.00  0.00    +0.000 A 
ATOM     12  C   UNL     1      -1.606  10.965  38.297  0.00  0.00    +0.000 A 
ATOM     13  C   UNL     1      -0.449   8.526  37.577  0.00  0.00    +0.000 A 
ATOM     14  C   UNL     1      -1.123  10.097  39.284  0.00  0.00    +0.000 A 
ATOM     15  C   UNL     1      -0.528   8.892  38.918  0.00  0.00    +0.000 A 
ENDBRANCH   5  10
BRANCH   4  17
ATOM     16  N   UNL     1      -4.926  10.062  35.557  0.00  0.00    +0.000 NA
ATOM     17  C   UNL     1      -4.493  11.156  36.082  0.00  0.00    +0.000 C 
BRANCH  16  18
ATOM     18  C   UNL     1      -6.185   9.631  36.196  0.00  0.00    +0.000 C 
BRANCH  18  19
ATOM     19  C   UNL     1      -7.380  10.339  35.559  0.00  0.00    +0.000 C 
BRANCH  19  22
ATOM     20 CL   UNL     1     -10.039   6.880  38.370  0.00  0.00    +0.000 Cl
ATOM     21 CL   UNL     1     -12.636   7.524  36.514  0.00  0.00    +0.000 Cl
ATOM     22  C   UNL     1      -8.709   9.689  35.853  0.00  0.00    +0.000 A 
ATOM     23  C   UNL     1      -8.805   8.720  36.863  0.00  0.00    +0.000 A 
ATOM     24  C   UNL     1      -9.852  10.020  35.117  0.00  0.00    +0.000 A 
ATOM     25  C   UNL     1     -10.010   8.057  37.104  0.00  0.00    +0.000 A 
ATOM     26  C   UNL     1     -11.055   9.348  35.346  0.00  0.00    +0.000 A 
ATOM     27  C   UNL     1     -11.133   8.354  36.327  0.00  0.00    +0.000 A 
ENDBRANCH  19  22
ENDBRANCH  18  19
ENDBRANCH  16  18
ENDBRANCH   4  17
TORSDOF 5
ENDMDL
MODEL 5
REMARK VINA RESULT:      -5.3     14.283     17.035
REMARK  Name = 142505467
REMARK  5 active torsions:
REMARK  status: ('A' for Active; 'I' for Inactive)
REMARK    1  A    between atoms: N_7  and  C_13
REMARK    2  A    between atoms: C_8  and  C_14
REMARK    3  A    between atoms: C_9  and  C_11
REMARK    4  A    between atoms: C_12  and  C_13
REMARK    5  A    between atoms: C_12  and  C_16
REMARK                            x       y       z     vdW  Elec       q    Type
REMARK                         _______ _______ _______ _____ _____    ______ ____
ROOT
ATOM      1  S   UNL     1     -20.367  -1.706  24.628  0.00  0.00    +0.000 S 
ATOM      2  N   UNL     1     -18.919   0.417  24.580  0.00  0.00    +0.000 N 
ATOM      3  N   UNL     1     -19.070  -0.311  26.691  0.00  0.00    +0.000 NA
ATOM      4  C   UNL     1     -18.246   1.351  25.324  0.00  0.00    +0.000 A 
ATOM      5  C   UNL     1     -18.286   0.829  26.619  0.00  0.00    +0.000 A 
ATOM      6  C   UNL     1     -19.417  -0.507  25.450  0.00  0.00    +0.000 A 
ATOM      7  C   UNL     1     -19.239   0.203  23.256  0.00  0.00    +0.000 A 
ATOM      8  C   UNL     1     -20.004  -0.891  23.098  0.00  0.00    +0.000 A 
ENDROOT
BRANCH   5  10
ATOM      9 CL   UNL     1     -15.570   2.996  31.490  0.00  0.00    +0.000 Cl
ATOM     10  C   UNL     1     -17.621   1.389  27.792  0.00  0.00    +0.000 A 
ATOM     11  C   UNL     1     -18.193   2.437  28.531  0.00  0.00    +0.000 A 
ATOM     12  C   UNL     1     -16.374   0.892  28.183  0.00  0.00    +0.000 A 
ATOM     13  C   UNL     1     -17.566   2.928  29.680  0.00  0.00    +0.000 A 
ATOM     14  C   UNL     1     -15.733   1.395  29.323  0.00  0.00    +0.000 A 
ATOM     15  C   UNL     1     -16.342   2.395  30.077  0.00  0.00    +0.000 A 
ENDBRANCH   5  10
BRANCH   4  17
ATOM     16  N   UNL     1     -16.540   3.012  25.278  0.00  0.00    +0.000 NA
ATOM     17  C   UNL     1     -17.683   2.582  24.867  0.00  0.00    +0.000 C 
BRANCH  16  18
ATOM     18  C   UNL     1     -16.230   4.330  24.691  0.00  0.00    +0.000 C 
BRANCH  18  19
ATOM     19  C   UNL     1     -15.458   4.168  23.383  0.00  0.00    +0.000 C 
BRANCH  19  22
ATOM     20 CL   UNL     1     -11.850   6.569  20.526  0.00  0.00    +0.000 Cl
ATOM     21 CL   UNL     1     -13.241   9.400  21.337  0.00  0.00    +0.000 Cl
ATOM     22  C   UNL     1     -14.945   5.464  22.806  0.00  0.00    +0.000 A 
ATOM     23  C   UNL     1     -13.797   5.465  22.000  0.00  0.00    +0.000 A 
ATOM     24  C   UNL     1     -15.586   6.677  23.079  0.00  0.00    +0.000 A 
ATOM     25  C   UNL     1     -13.266   6.662  21.514  0.00  0.00    +0.000 A 
ATOM     26  C   UNL     1     -15.049   7.877  22.606  0.00  0.00    +0.000 A 
ATOM     27  C   UNL     1     -13.880   7.875  21.837  0.00  0.00    +0.000 A 
ENDBRANCH  19  22
ENDBRANCH  18  19
ENDBRANCH  16  18
ENDBRANCH   4  17
TORSDOF 5
ENDMDL
MODEL 6
REMARK VINA RESULT:      -5.2     25.636     27.494
REMARK  Name = 142505467
REMARK  5 active torsions:
REMARK  status: ('A' for Active; 'I' for Inactive)
REMARK    1  A    between atoms: N_7  and  C_13
REMARK    2  A    between atoms: C_8  and  C_14
REMARK    3  A    between atoms: C_9  and  C_11
REMARK    4  A    between atoms: C_12  and  C_13
REMARK    5  A    between atoms: C_12  and  C_16
REMARK                            x       y       z     vdW  Elec       q    Type
REMARK                         _______ _______ _______ _____ _____    ______ ____
ROOT
ATOM      1  S   UNL     1      -3.061  21.272  21.585  0.00  0.00    +0.000 S 
ATOM      2  N   UNL     1      -2.024  19.012  20.936  0.00  0.00    +0.000 N 
ATOM      3  N   UNL     1      -4.146  19.067  20.228  0.00  0.00    +0.000 NA
ATOM      4  C   UNL     1      -2.247  17.773  20.392  0.00  0.00    +0.000 A 
ATOM      5  C   UNL     1      -3.546  17.866  19.887  0.00  0.00    +0.000 A 
ATOM      6  C   UNL     1      -3.195  19.705  20.848  0.00  0.00    +0.000 A 
ATOM      7  C   UNL     1      -0.992  19.687  21.551  0.00  0.00    +0.000 A 
ATOM      8  C   UNL     1      -1.367  20.912  21.956  0.00  0.00    +0.000 A 
ENDROOT
BRANCH   5  10
ATOM      9 CL   UNL     1      -6.398  13.765  16.594  0.00  0.00    +0.000 Cl
ATOM     10  C   UNL     1      -4.241  16.843  19.111  0.00  0.00    +0.000 A 
ATOM     11  C   UNL     1      -5.495  16.348  19.502  0.00  0.00    +0.000 A 
ATOM     12  C   UNL     1      -3.640  16.321  17.961  0.00  0.00    +0.000 A 
ATOM     13  C   UNL     1      -6.168  15.404  18.720  0.00  0.00    +0.000 A 
ATOM     14  C   UNL     1      -4.302  15.361  17.185  0.00  0.00    +0.000 A 
ATOM     15  C   UNL     1      -5.571  14.924  17.557  0.00  0.00    +0.000 A 
ENDBRANCH   5  10
BRANCH   4  17
ATOM     16  N   UNL     1      -1.096  15.983  21.462  0.00  0.00    +0.000 NA
ATOM     17  C   UNL     1      -1.359  16.654  20.393  0.00  0.00    +0.000 C 
BRANCH  16  18
ATOM     18  C   UNL     1      -0.109  14.921  21.189  0.00  0.00    +0.000 C 
BRANCH  18  19
ATOM     19  C   UNL     1       0.798  15.317  20.024  0.00  0.00    +0.000 C 
BRANCH  19  22
ATOM     20 CL   UNL     1       4.109  16.433  23.863  0.00  0.00    +0.000 Cl
ATOM     21 CL   UNL     1       6.399  16.934  21.602  0.00  0.00    +0.000 Cl
ATOM     22  C   UNL     1       2.214  15.645  20.430  0.00  0.00    +0.000 A 
ATOM     23  C   UNL     1       2.525  15.842  21.784  0.00  0.00    +0.000 A 
ATOM     24  C   UNL     1       3.225  15.779  19.473  0.00  0.00    +0.000 A 
ATOM     25  C   UNL     1       3.813  16.215  22.174  0.00  0.00    +0.000 A 
ATOM     26  C   UNL     1       4.511  16.166  19.858  0.00  0.00    +0.000 A 
ATOM     27  C   UNL     1       4.804  16.401  21.206  0.00  0.00    +0.000 A 
ENDBRANCH  19  22
ENDBRANCH  18  19
ENDBRANCH  16  18
ENDBRANCH   4  17
TORSDOF 5
ENDMDL
MODEL 7
REMARK VINA RESULT:      -5.1     27.842     30.000
REMARK  Name = 142505467
REMARK  5 active torsions:
REMARK  status: ('A' for Active; 'I' for Inactive)
REMARK    1  A    between atoms: N_7  and  C_13
REMARK    2  A    between atoms: C_8  and  C_14
REMARK    3  A    between atoms: C_9  and  C_11
REMARK    4  A    between atoms: C_12  and  C_13
REMARK    5  A    between atoms: C_12  and  C_16
REMARK                            x       y       z     vdW  Elec       q    Type
REMARK                         _______ _______ _______ _____ _____    ______ ____
ROOT
ATOM      1  S   UNL     1       7.171  16.271  14.520  0.00  0.00    +0.000 S 
ATOM      2  N   UNL     1       5.126  16.854  15.964  0.00  0.00    +0.000 N 
ATOM      3  N   UNL     1       6.859  16.407  17.307  0.00  0.00    +0.000 NA
ATOM      4  C   UNL     1       4.619  16.939  17.235  0.00  0.00    +0.000 A 
ATOM      5  C   UNL     1       5.737  16.738  18.048  0.00  0.00    +0.000 A 
ATOM      6  C   UNL     1       6.436  16.493  16.078  0.00  0.00    +0.000 A 
ATOM      7  C   UNL     1       4.670  16.993  14.671  0.00  0.00    +0.000 A 
ATOM      8  C   UNL     1       5.632  16.724  13.770  0.00  0.00    +0.000 A 
ENDROOT
BRANCH   5  10
ATOM      9 CL   UNL     1       6.002  17.137  24.012  0.00  0.00    +0.000 Cl
ATOM     10  C   UNL     1       5.767  16.829  19.505  0.00  0.00    +0.000 A 
ATOM     11  C   UNL     1       5.392  15.748  20.318  0.00  0.00    +0.000 A 
ATOM     12  C   UNL     1       6.155  18.027  20.114  0.00  0.00    +0.000 A 
ATOM     13  C   UNL     1       5.474  15.837  21.710  0.00  0.00    +0.000 A 
ATOM     14  C   UNL     1       6.220  18.126  21.509  0.00  0.00    +0.000 A 
ATOM     15  C   UNL     1       5.900  17.026  22.300  0.00  0.00    +0.000 A 
ENDBRANCH   5  10
BRANCH   4  17
ATOM     16  N   UNL     1       2.485  16.170  17.960  0.00  0.00    +0.000 NA
ATOM     17  C   UNL     1       3.256  17.142  17.612  0.00  0.00    +0.000 C 
BRANCH  16  18
ATOM     18  C   UNL     1       1.120  16.655  18.242  0.00  0.00    +0.000 C 
BRANCH  18  19
ATOM     19  C   UNL     1       0.439  15.769  19.284  0.00  0.00    +0.000 C 
BRANCH  19  22
ATOM     20 CL   UNL     1       2.834  18.869  22.689  0.00  0.00    +0.000 Cl
ATOM     21 CL   UNL     1       2.790  16.399  24.811  0.00  0.00    +0.000 Cl
ATOM     22  C   UNL     1       0.959  15.959  20.688  0.00  0.00    +0.000 A 
ATOM     23  C   UNL     1       1.562  17.172  21.052  0.00  0.00    +0.000 A 
ATOM     24  C   UNL     1       0.868  14.932  21.634  0.00  0.00    +0.000 A 
ATOM     25  C   UNL     1       2.112  17.342  22.325  0.00  0.00    +0.000 A 
ATOM     26  C   UNL     1       1.430  15.094  22.903  0.00  0.00    +0.000 A 
ATOM     27  C   UNL     1       2.067  16.292  23.246  0.00  0.00    +0.000 A 
ENDBRANCH  19  22
ENDBRANCH  18  19
ENDBRANCH  16  18
ENDBRANCH   4  17
TORSDOF 5
ENDMDL
MODEL 8
REMARK VINA RESULT:      -5.1      4.715      7.830
REMARK  Name = 142505467
REMARK  5 active torsions:
REMARK  status: ('A' for Active; 'I' for Inactive)
REMARK    1  A    between atoms: N_7  and  C_13
REMARK    2  A    between atoms: C_8  and  C_14
REMARK    3  A    between atoms: C_9  and  C_11
REMARK    4  A    between atoms: C_12  and  C_13
REMARK    5  A    between atoms: C_12  and  C_16
REMARK                            x       y       z     vdW  Elec       q    Type
REMARK                         _______ _______ _______ _____ _____    ______ ____
ROOT
ATOM      1  S   UNL     1     -10.424  -7.376  16.891  0.00  0.00    +0.000 S 
ATOM      2  N   UNL     1     -11.348  -7.860  14.543  0.00  0.00    +0.000 N 
ATOM      3  N   UNL     1     -11.857  -5.755  15.103  0.00  0.00    +0.000 NA
ATOM      4  C   UNL     1     -12.098  -7.388  13.497  0.00  0.00    +0.000 A 
ATOM      5  C   UNL     1     -12.329  -6.053  13.836  0.00  0.00    +0.000 A 
ATOM      6  C   UNL     1     -11.285  -6.865  15.472  0.00  0.00    +0.000 A 
ATOM      7  C   UNL     1     -10.711  -9.030  14.897  0.00  0.00    +0.000 A 
ATOM      8  C   UNL     1     -10.157  -8.947  16.119  0.00  0.00    +0.000 A 
ENDROOT
BRANCH   5  10
ATOM      9 CL   UNL     1     -15.177  -2.081  10.385  0.00  0.00    +0.000 Cl
ATOM     10  C   UNL     1     -13.002  -5.059  13.003  0.00  0.00    +0.000 A 
ATOM     11  C   UNL     1     -12.338  -4.414  11.948  0.00  0.00    +0.000 A 
ATOM     12  C   UNL     1     -14.331  -4.718  13.272  0.00  0.00    +0.000 A 
ATOM     13  C   UNL     1     -13.012  -3.501  11.131  0.00  0.00    +0.000 A 
ATOM     14  C   UNL     1     -15.003  -3.790  12.468  0.00  0.00    +0.000 A 
ATOM     15  C   UNL     1     -14.347  -3.202  11.389  0.00  0.00    +0.000 A 
ENDBRANCH   5  10
BRANCH   4  17
ATOM     16  N   UNL     1     -11.978  -8.048  11.212  0.00  0.00    +0.000 NA
ATOM     17  C   UNL     1     -12.558  -8.121  12.360  0.00  0.00    +0.000 C 
BRANCH  16  18
ATOM     18  C   UNL     1     -12.693  -8.858  10.207  0.00  0.00    +0.000 C 
BRANCH  18  19
ATOM     19  C   UNL     1     -12.931  -8.049   8.933  0.00  0.00    +0.000 C 
BRANCH  19  22
ATOM     20 CL   UNL     1     -17.433  -6.749  11.165  0.00  0.00    +0.000 Cl
ATOM     21 CL   UNL     1     -17.596  -4.218   9.122  0.00  0.00    +0.000 Cl
ATOM     22  C   UNL     1     -14.060  -7.053   9.038  0.00  0.00    +0.000 A 
ATOM     23  C   UNL     1     -15.104  -7.274   9.949  0.00  0.00    +0.000 A 
ATOM     24  C   UNL     1     -14.096  -5.916   8.224  0.00  0.00    +0.000 A 
ATOM     25  C   UNL     1     -16.193  -6.402  10.012  0.00  0.00    +0.000 A 
ATOM     26  C   UNL     1     -15.191  -5.050   8.275  0.00  0.00    +0.000 A 
ATOM     27  C   UNL     1     -16.249  -5.298   9.156  0.00  0.00    +0.000 A 
ENDBRANCH  19  22
ENDBRANCH  18  19
ENDBRANCH  16  18
ENDBRANCH   4  17
TORSDOF 5
ENDMDL
MODEL 9
REMARK VINA RESULT:      -5.1     28.944     30.445
REMARK  Name = 142505467
REMARK  5 active torsions:
REMARK  status: ('A' for Active; 'I' for Inactive)
REMARK    1  A    between atoms: N_7  and  C_13
REMARK    2  A    between atoms: C_8  and  C_14
REMARK    3  A    between atoms: C_9  and  C_11
REMARK    4  A    between atoms: C_12  and  C_13
REMARK    5  A    between atoms: C_12  and  C_16
REMARK                            x       y       z     vdW  Elec       q    Type
REMARK                         _______ _______ _______ _____ _____    ______ ____
ROOT
ATOM      1  S   UNL     1      -1.513  13.284  37.162  0.00  0.00    +0.000 S 
ATOM      2  N   UNL     1      -2.059  10.848  37.774  0.00  0.00    +0.000 N 
ATOM      3  N   UNL     1      -3.965  11.926  37.313  0.00  0.00    +0.000 NA
ATOM      4  C   UNL     1      -3.050   9.931  38.012  0.00  0.00    +0.000 A 
ATOM      5  C   UNL     1      -4.216  10.603  37.637  0.00  0.00    +0.000 A 
ATOM      6  C   UNL     1      -2.669  12.012  37.411  0.00  0.00    +0.000 A 
ATOM      7  C   UNL     1      -0.684  10.907  37.843  0.00  0.00    +0.000 A 
ATOM      8  C   UNL     1      -0.221  12.133  37.541  0.00  0.00    +0.000 A 
ENDROOT
BRANCH   5  10
ATOM      9 CL   UNL     1      -9.771   8.393  37.412  0.00  0.00    +0.000 Cl
ATOM     10  C   UNL     1      -5.560  10.035  37.598  0.00  0.00    +0.000 A 
ATOM     11  C   UNL     1      -6.258   9.716  38.774  0.00  0.00    +0.000 A 
ATOM     12  C   UNL     1      -6.166   9.776  36.365  0.00  0.00    +0.000 A 
ATOM     13  C   UNL     1      -7.563   9.218  38.719  0.00  0.00    +0.000 A 
ATOM     14  C   UNL     1      -7.466   9.260  36.305  0.00  0.00    +0.000 A 
ATOM     15  C   UNL     1      -8.166   9.003  37.481  0.00  0.00    +0.000 A 
ENDBRANCH   5  10
BRANCH   4  17
ATOM     16  N   UNL     1      -3.007   8.380  39.818  0.00  0.00    +0.000 NA
ATOM     17  C   UNL     1      -2.903   8.618  38.556  0.00  0.00    +0.000 C 
BRANCH  16  18
ATOM     18  C   UNL     1      -2.754   6.955  40.109  0.00  0.00    +0.000 C 
BRANCH  18  19
ATOM     19  C   UNL     1      -1.686   6.396  39.170  0.00  0.00    +0.000 C 
BRANCH  19  22
ATOM     20 CL   UNL     1       1.822   7.564  42.813  0.00  0.00    +0.000 Cl
ATOM     21 CL   UNL     1       3.645   5.107  41.697  0.00  0.00    +0.000 Cl
ATOM     22  C   UNL     1      -0.392   6.032  39.855  0.00  0.00    +0.000 A 
ATOM     23  C   UNL     1       0.084   6.821  40.913  0.00  0.00    +0.000 A 
ATOM     24  C   UNL     1       0.358   4.927  39.439  0.00  0.00    +0.000 A 
ATOM     25  C   UNL     1       1.313   6.542  41.515  0.00  0.00    +0.000 A 
ATOM     26  C   UNL     1       1.594   4.654  40.029  0.00  0.00    +0.000 A 
ATOM     27  C   UNL     1       2.082   5.469  41.056  0.00  0.00    +0.000 A 
ENDBRANCH  19  22
ENDBRANCH  18  19
ENDBRANCH  16  18
ENDBRANCH   4  17
TORSDOF 5
ENDMDL
MODEL 10
REMARK VINA RESULT:      -4.9     29.782     31.088
REMARK  Name = 142505467
REMARK  5 active torsions:
REMARK  status: ('A' for Active; 'I' for Inactive)
REMARK    1  A    between atoms: N_7  and  C_13
REMARK    2  A    between atoms: C_8  and  C_14
REMARK    3  A    between atoms: C_9  and  C_11
REMARK    4  A    between atoms: C_12  and  C_13
REMARK    5  A    between atoms: C_12  and  C_16
REMARK                            x       y       z     vdW  Elec       q    Type
REMARK                         _______ _______ _______ _____ _____    ______ ____
ROOT
ATOM      1  S   UNL     1      -2.953  13.787  40.782  0.00  0.00    +0.000 S 
ATOM      2  N   UNL     1      -2.059  11.882  39.307  0.00  0.00    +0.000 N 
ATOM      3  N   UNL     1      -1.917  13.805  38.173  0.00  0.00    +0.000 NA
ATOM      4  C   UNL     1      -1.589  11.527  38.069  0.00  0.00    +0.000 A 
ATOM      5  C   UNL     1      -1.433  12.752  37.415  0.00  0.00    +0.000 A 
ATOM      6  C   UNL     1      -2.274  13.228  39.285  0.00  0.00    +0.000 A 
ATOM      7  C   UNL     1      -2.390  11.257  40.491  0.00  0.00    +0.000 A 
ATOM      8  C   UNL     1      -2.879  12.126  41.394  0.00  0.00    +0.000 A 
ENDROOT
BRANCH   5  10
ATOM      9 CL   UNL     1       0.787  13.552  31.917  0.00  0.00    +0.000 Cl
ATOM     10  C   UNL     1      -0.860  12.950  36.087  0.00  0.00    +0.000 A 
ATOM     11  C   UNL     1       0.082  12.056  35.552  0.00  0.00    +0.000 A 
ATOM     12  C   UNL     1      -1.233  14.066  35.332  0.00  0.00    +0.000 A 
ATOM     13  C   UNL     1       0.584  12.235  34.260  0.00  0.00    +0.000 A 
ATOM     14  C   UNL     1      -0.717  14.259  34.045  0.00  0.00    +0.000 A 
ATOM     15  C   UNL     1       0.172  13.332  33.507  0.00  0.00    +0.000 A 
ENDBRANCH   5  10
BRANCH   4  17
ATOM     16  N   UNL     1      -0.461   9.430  38.068  0.00  0.00    +0.000 NA
ATOM     17  C   UNL     1      -1.363  10.207  37.573  0.00  0.00    +0.000 C 
BRANCH  16  18
ATOM     18  C   UNL     1      -0.404   8.152  37.332  0.00  0.00    +0.000 C 
BRANCH  18  19
ATOM     19  C   UNL     1      -1.583   7.258  37.713  0.00  0.00    +0.000 C 
BRANCH  19  22
ATOM     20 CL   UNL     1      -3.767   5.487  42.076  0.00  0.00    +0.000 Cl
ATOM     21 CL   UNL     1      -0.796   4.615  43.086  0.00  0.00    +0.000 Cl
ATOM     22  C   UNL     1      -1.404   6.529  39.022  0.00  0.00    +0.000 A 
ATOM     23  C   UNL     1      -2.509   6.319  39.862  0.00  0.00    +0.000 A 
ATOM     24  C   UNL     1      -0.145   6.075  39.428  0.00  0.00    +0.000 A 
ATOM     25  C   UNL     1      -2.352   5.708  41.108  0.00  0.00    +0.000 A 
ATOM     26  C   UNL     1       0.017   5.477  40.680  0.00  0.00    +0.000 A 
ATOM     27  C   UNL     1      -1.081   5.307  41.529  0.00  0.00    +0.000 A 
ENDBRANCH  19  22
ENDBRANCH  18  19
ENDBRANCH  16  18
ENDBRANCH   4  17
TORSDOF 5
ENDMDL
