REMARK  Name = 142505500
REMARK  6 active torsions:
REMARK  status: ('A' for Active; 'I' for Inactive)
REMARK    1  A    between atoms: O_7  and  N_10
REMARK    2  A    between atoms: O_7  and  C_25
REMARK    3  A    between atoms: C_11  and  C_13
REMARK    4  A    between atoms: C_12  and  C_18
REMARK    5  A    between atoms: C_19  and  C_23
REMARK    6  A    between atoms: C_24  and  C_25
REMARK                            x       y       z     vdW  Elec       q    Type
REMARK                         _______ _______ _______ _____ _____    ______ ____
ROOT
ATOM      1  S   UNL     1      -4.671   2.178  -8.468  0.00  0.00    +0.000 S 
ATOM      2  N   UNL     1      -4.859   1.643  -5.966  0.00  0.00    +0.000 N 
ATOM      3  N   UNL     1      -2.783   1.184  -6.645  0.00  0.00    +0.000 NA
ATOM      4  C   UNL     1      -2.934   0.883  -5.293  0.00  0.00    +0.000 A 
ATOM      5  C   UNL     1      -4.236   1.148  -4.850  0.00  0.00    +0.000 A 
ATOM      6  C   UNL     1      -3.957   1.633  -6.983  0.00  0.00    +0.000 A 
ATOM      7  C   UNL     1      -6.129   2.063  -6.309  0.00  0.00    +0.000 A 
ATOM      8  C   UNL     1      -6.207   2.388  -7.610  0.00  0.00    +0.000 A 
ENDROOT
BRANCH   4   9
ATOM      9  C   UNL     1      -1.832   0.331  -4.509  0.00  0.00    +0.000 A 
ATOM     10  C   UNL     1      -1.646   0.651  -3.158  0.00  0.00    +0.000 A 
ATOM     11  C   UNL     1      -0.922  -0.544  -5.116  0.00  0.00    +0.000 A 
ATOM     12  C   UNL     1       0.274  -0.829  -3.014  0.00  0.00    +0.000 A 
ATOM     13  C   UNL     1      -0.623   0.059  -2.411  0.00  0.00    +0.000 A 
ATOM     14  C   UNL     1       0.121  -1.118  -4.378  0.00  0.00    +0.000 A 
BRANCH  12  18
ATOM     15  F   UNL     1       1.415  -1.071  -0.913  0.00  0.00    +0.000 F 
ATOM     16  F   UNL     1       1.332  -2.815  -2.206  0.00  0.00    +0.000 F 
ATOM     17  F   UNL     1       2.624  -1.142  -2.718  0.00  0.00    +0.000 F 
ATOM     18  C   UNL     1       1.395  -1.454  -2.221  0.00  0.00    +0.000 C 
ENDBRANCH  12  18
ENDBRANCH   4   9
BRANCH   5  20
ATOM     19  N   UNL     1      -4.505  -0.070  -2.864  0.00  0.00    +0.000 NA
ATOM     20  C   UNL     1      -4.888   0.921  -3.596  0.00  0.00    +0.000 C 
BRANCH  19  21
ATOM     21  O   UNL     1      -5.237  -0.125  -1.676  0.00  0.00    +0.000 OA
BRANCH  21  22
ATOM     22  C   UNL     1      -4.943  -1.388  -1.070  0.00  0.00    +0.000 C 
BRANCH  22  25
ATOM     23 CL   UNL     1      -9.192  -0.380   1.785  0.00  0.00    +0.000 Cl
ATOM     24 CL   UNL     1      -8.250  -2.766   3.789  0.00  0.00    +0.000 Cl
ATOM     25  C   UNL     1      -5.740  -1.618   0.191  0.00  0.00    +0.000 A 
ATOM     26  C   UNL     1      -6.939  -0.936   0.442  0.00  0.00    +0.000 A 
ATOM     27  C   UNL     1      -5.324  -2.614   1.085  0.00  0.00    +0.000 A 
ATOM     28  C   UNL     1      -7.720  -1.258   1.557  0.00  0.00    +0.000 A 
ATOM     29  C   UNL     1      -6.103  -2.938   2.196  0.00  0.00    +0.000 A 
ATOM     30  C   UNL     1      -7.308  -2.272   2.428  0.00  0.00    +0.000 A 
ENDBRANCH  22  25
ENDBRANCH  21  22
ENDBRANCH  19  21
ENDBRANCH   5  20
TORSDOF 6
