MODEL 1
REMARK VINA RESULT:      -5.4      0.000      0.000
REMARK  Name = 142505355
REMARK  5 active torsions:
REMARK  status: ('A' for Active; 'I' for Inactive)
REMARK    1  A    between atoms: O_5  and  N_8
REMARK    2  A    between atoms: O_5  and  C_21
REMARK    3  A    between atoms: C_9  and  C_14
REMARK    4  A    between atoms: C_10  and  C_12
REMARK    5  A    between atoms: C_20  and  C_21
REMARK                            x       y       z     vdW  Elec       q    Type
REMARK                         _______ _______ _______ _____ _____    ______ ____
ROOT
ATOM      1  S   UNL     1       0.675   8.993 -58.731  0.00  0.00    +0.000 S 
ATOM      2  N   UNL     1      -1.548   7.864 -59.357  0.00  0.00    +0.000 N 
ATOM      3  N   UNL     1      -1.104   7.451 -57.206  0.00  0.00    +0.000 NA
ATOM      4  C   UNL     1      -2.628   7.145 -58.910  0.00  0.00    +0.000 A 
ATOM      5  C   UNL     1      -2.301   6.861 -57.580  0.00  0.00    +0.000 A 
ATOM      6  C   UNL     1      -0.702   8.027 -58.302  0.00  0.00    +0.000 A 
ATOM      7  C   UNL     1      -1.144   8.476 -60.524  0.00  0.00    +0.000 A 
ATOM      8  C   UNL     1       0.024   9.126 -60.372  0.00  0.00    +0.000 A 
ENDROOT
BRANCH   5  10
ATOM      9 BR   UNL     1      -5.532   3.411 -53.642  0.00  0.00    +0.000 Br
ATOM     10  C   UNL     1      -3.082   6.066 -56.640  0.00  0.00    +0.000 A 
ATOM     11  C   UNL     1      -3.407   4.741 -56.963  0.00  0.00    +0.000 A 
ATOM     12  C   UNL     1      -3.549   6.600 -55.429  0.00  0.00    +0.000 A 
ATOM     13  C   UNL     1      -4.141   3.949 -56.074  0.00  0.00    +0.000 A 
ATOM     14  C   UNL     1      -4.273   5.807 -54.534  0.00  0.00    +0.000 A 
ATOM     15  C   UNL     1      -4.561   4.483 -54.858  0.00  0.00    +0.000 A 
ENDBRANCH   5  10
BRANCH   4  17
ATOM     16  N   UNL     1      -3.801   6.003 -60.647  0.00  0.00    +0.000 NA
ATOM     17  C   UNL     1      -3.813   6.833 -59.653  0.00  0.00    +0.000 C 
BRANCH  16  18
ATOM     18  O   UNL     1      -5.113   5.899 -61.148  0.00  0.00    +0.000 OA
BRANCH  18  19
ATOM     19  C   UNL     1      -5.975   5.406 -60.119  0.00  0.00    +0.000 C 
BRANCH  19  22
ATOM     20 CL   UNL     1      -4.866   0.448 -58.999  0.00  0.00    +0.000 Cl
ATOM     21 CL   UNL     1      -7.153  -0.444 -61.134  0.00  0.00    +0.000 Cl
ATOM     22  C   UNL     1      -6.257   3.945 -60.368  0.00  0.00    +0.000 A 
ATOM     23  C   UNL     1      -5.539   2.955 -59.677  0.00  0.00    +0.000 A 
ATOM     24  C   UNL     1      -7.243   3.547 -61.281  0.00  0.00    +0.000 A 
ATOM     25  C   UNL     1      -5.796   1.596 -59.894  0.00  0.00    +0.000 A 
ATOM     26  C   UNL     1      -7.503   2.189 -61.500  0.00  0.00    +0.000 A 
ATOM     27  C   UNL     1      -6.782   1.212 -60.808  0.00  0.00    +0.000 A 
ENDBRANCH  19  22
ENDBRANCH  18  19
ENDBRANCH  16  18
ENDBRANCH   4  17
TORSDOF 5
ENDMDL
MODEL 2
REMARK VINA RESULT:      -5.2      3.958      5.994
REMARK  Name = 142505355
REMARK  5 active torsions:
REMARK  status: ('A' for Active; 'I' for Inactive)
REMARK    1  A    between atoms: O_5  and  N_8
REMARK    2  A    between atoms: O_5  and  C_21
REMARK    3  A    between atoms: C_9  and  C_14
REMARK    4  A    between atoms: C_10  and  C_12
REMARK    5  A    between atoms: C_20  and  C_21
REMARK                            x       y       z     vdW  Elec       q    Type
REMARK                         _______ _______ _______ _____ _____    ______ ____
ROOT
ATOM      1  S   UNL     1      -0.858   8.143 -57.942  0.00  0.00    +0.000 S 
ATOM      2  N   UNL     1      -2.152   6.216 -56.838  0.00  0.00    +0.000 N 
ATOM      3  N   UNL     1      -2.718   6.327 -58.997  0.00  0.00    +0.000 NA
ATOM      4  C   UNL     1      -3.021   5.170 -57.025  0.00  0.00    +0.000 A 
ATOM      5  C   UNL     1      -3.394   5.294 -58.368  0.00  0.00    +0.000 A 
ATOM      6  C   UNL     1      -2.001   6.840 -58.039  0.00  0.00    +0.000 A 
ATOM      7  C   UNL     1      -1.393   6.739 -55.813  0.00  0.00    +0.000 A 
ATOM      8  C   UNL     1      -0.640   7.775 -56.224  0.00  0.00    +0.000 A 
ENDROOT
BRANCH   5  10
ATOM      9 BR   UNL     1      -7.479   1.889 -61.460  0.00  0.00    +0.000 Br
ATOM     10  C   UNL     1      -4.352   4.464 -59.088  0.00  0.00    +0.000 A 
ATOM     11  C   UNL     1      -5.636   4.965 -59.349  0.00  0.00    +0.000 A 
ATOM     12  C   UNL     1      -4.039   3.160 -59.500  0.00  0.00    +0.000 A 
ATOM     13  C   UNL     1      -6.571   4.198 -60.051  0.00  0.00    +0.000 A 
ATOM     14  C   UNL     1      -4.969   2.396 -60.213  0.00  0.00    +0.000 A 
ATOM     15  C   UNL     1      -6.229   2.921 -60.490  0.00  0.00    +0.000 A 
ENDBRANCH   5  10
BRANCH   4  17
ATOM     16  N   UNL     1      -2.790   3.030 -55.993  0.00  0.00    +0.000 NA
ATOM     17  C   UNL     1      -3.385   4.179 -56.057  0.00  0.00    +0.000 C 
BRANCH  16  18
ATOM     18  O   UNL     1      -3.360   2.298 -54.933  0.00  0.00    +0.000 OA
BRANCH  18  19
ATOM     19  C   UNL     1      -4.770   2.537 -54.899  0.00  0.00    +0.000 C 
BRANCH  19  22
ATOM     20 CL   UNL     1      -8.122  -1.384 -54.229  0.00  0.00    +0.000 Cl
ATOM     21 CL   UNL     1      -7.318  -1.404 -51.076  0.00  0.00    +0.000 Cl
ATOM     22  C   UNL     1      -5.415   1.554 -53.953  0.00  0.00    +0.000 A 
ATOM     23  C   UNL     1      -6.365   0.634 -54.426  0.00  0.00    +0.000 A 
ATOM     24  C   UNL     1      -5.074   1.531 -52.594  0.00  0.00    +0.000 A 
ATOM     25  C   UNL     1      -6.966  -0.289 -53.560  0.00  0.00    +0.000 A 
ATOM     26  C   UNL     1      -5.672   0.610 -51.727  0.00  0.00    +0.000 A 
ATOM     27  C   UNL     1      -6.617  -0.300 -52.206  0.00  0.00    +0.000 A 
ENDBRANCH  19  22
ENDBRANCH  18  19
ENDBRANCH  16  18
ENDBRANCH   4  17
TORSDOF 5
ENDMDL
MODEL 3
REMARK VINA RESULT:      -5.2     10.489     12.170
REMARK  Name = 142505355
REMARK  5 active torsions:
REMARK  status: ('A' for Active; 'I' for Inactive)
REMARK    1  A    between atoms: O_5  and  N_8
REMARK    2  A    between atoms: O_5  and  C_21
REMARK    3  A    between atoms: C_9  and  C_14
REMARK    4  A    between atoms: C_10  and  C_12
REMARK    5  A    between atoms: C_20  and  C_21
REMARK                            x       y       z     vdW  Elec       q    Type
REMARK                         _______ _______ _______ _____ _____    ______ ____
ROOT
ATOM      1  S   UNL     1     -12.099  12.254 -63.398  0.00  0.00    +0.000 S 
ATOM      2  N   UNL     1     -12.215  12.162 -60.832  0.00  0.00    +0.000 N 
ATOM      3  N   UNL     1     -10.314  13.168 -61.438  0.00  0.00    +0.000 NA
ATOM      4  C   UNL     1     -11.620  12.522 -59.649  0.00  0.00    +0.000 A 
ATOM      5  C   UNL     1     -10.414  13.105 -60.057  0.00  0.00    +0.000 A 
ATOM      6  C   UNL     1     -11.407  12.590 -61.842  0.00  0.00    +0.000 A 
ATOM      7  C   UNL     1     -13.384  11.556 -61.241  0.00  0.00    +0.000 A 
ATOM      8  C   UNL     1     -13.487  11.518 -62.582  0.00  0.00    +0.000 A 
ENDROOT
BRANCH   5  10
ATOM      9 BR   UNL     1      -6.040  15.324 -56.344  0.00  0.00    +0.000 Br
ATOM     10  C   UNL     1      -9.358  13.619 -59.194  0.00  0.00    +0.000 A 
ATOM     11  C   UNL     1      -9.516  14.873 -58.586  0.00  0.00    +0.000 A 
ATOM     12  C   UNL     1      -8.168  12.910 -58.978  0.00  0.00    +0.000 A 
ATOM     13  C   UNL     1      -8.527  15.386 -57.741  0.00  0.00    +0.000 A 
ATOM     14  C   UNL     1      -7.183  13.415 -58.124  0.00  0.00    +0.000 A 
ATOM     15  C   UNL     1      -7.370  14.648 -57.504  0.00  0.00    +0.000 A 
ENDBRANCH   5  10
BRANCH   4  17
ATOM     16  N   UNL     1     -12.129  11.239 -57.703  0.00  0.00    +0.000 NA
ATOM     17  C   UNL     1     -12.169  12.368 -58.335  0.00  0.00    +0.000 C 
BRANCH  16  18
ATOM     18  O   UNL     1     -12.729  11.420 -56.441  0.00  0.00    +0.000 OA
BRANCH  18  19
ATOM     19  C   UNL     1     -11.883  10.864 -55.431  0.00  0.00    +0.000 C 
BRANCH  19  22
ATOM     20 CL   UNL     1     -11.253  15.159 -52.565  0.00  0.00    +0.000 Cl
ATOM     21 CL   UNL     1      -8.107  15.132 -53.393  0.00  0.00    +0.000 Cl
ATOM     22  C   UNL     1     -10.951  11.935 -54.922  0.00  0.00    +0.000 A 
ATOM     23  C   UNL     1     -11.432  12.952 -54.080  0.00  0.00    +0.000 A 
ATOM     24  C   UNL     1      -9.592  11.933 -55.267  0.00  0.00    +0.000 A 
ATOM     25  C   UNL     1     -10.576  13.949 -53.595  0.00  0.00    +0.000 A 
ATOM     26  C   UNL     1      -8.735  12.927 -54.783  0.00  0.00    +0.000 A 
ATOM     27  C   UNL     1      -9.223  13.935 -53.947  0.00  0.00    +0.000 A 
ENDBRANCH  19  22
ENDBRANCH  18  19
ENDBRANCH  16  18
ENDBRANCH   4  17
TORSDOF 5
ENDMDL
MODEL 4
REMARK VINA RESULT:      -5.2     24.442     27.834
REMARK  Name = 142505355
REMARK  5 active torsions:
REMARK  status: ('A' for Active; 'I' for Inactive)
REMARK    1  A    between atoms: O_5  and  N_8
REMARK    2  A    between atoms: O_5  and  C_21
REMARK    3  A    between atoms: C_9  and  C_14
REMARK    4  A    between atoms: C_10  and  C_12
REMARK    5  A    between atoms: C_20  and  C_21
REMARK                            x       y       z     vdW  Elec       q    Type
REMARK                         _______ _______ _______ _____ _____    ______ ____
ROOT
ATOM      1  S   UNL     1     -15.817   7.827 -35.317  0.00  0.00    +0.000 S 
ATOM      2  N   UNL     1     -13.737   7.827 -33.807  0.00  0.00    +0.000 N 
ATOM      3  N   UNL     1     -13.157   7.108 -35.841  0.00  0.00    +0.000 NA
ATOM      4  C   UNL     1     -12.383   7.620 -33.730  0.00  0.00    +0.000 A 
ATOM      5  C   UNL     1     -12.057   7.126 -34.998  0.00  0.00    +0.000 A 
ATOM      6  C   UNL     1     -14.124   7.529 -35.078  0.00  0.00    +0.000 A 
ATOM      7  C   UNL     1     -14.746   8.285 -32.986  0.00  0.00    +0.000 A 
ATOM      8  C   UNL     1     -15.926   8.348 -33.629  0.00  0.00    +0.000 A 
ENDROOT
BRANCH   5  10
ATOM      9 BR   UNL     1      -6.466   5.327 -36.826  0.00  0.00    +0.000 Br
ATOM     10  C   UNL     1     -10.744   6.685 -35.453  0.00  0.00    +0.000 A 
ATOM     11  C   UNL     1      -9.653   7.562 -35.357  0.00  0.00    +0.000 A 
ATOM     12  C   UNL     1     -10.543   5.416 -36.015  0.00  0.00    +0.000 A 
ATOM     13  C   UNL     1      -8.379   7.161 -35.771  0.00  0.00    +0.000 A 
ATOM     14  C   UNL     1      -9.268   5.010 -36.418  0.00  0.00    +0.000 A 
ATOM     15  C   UNL     1      -8.190   5.883 -36.288  0.00  0.00    +0.000 A 
ENDBRANCH   5  10
BRANCH   4  17
ATOM     16  N   UNL     1     -11.384   9.113 -32.158  0.00  0.00    +0.000 NA
ATOM     17  C   UNL     1     -11.537   7.909 -32.610  0.00  0.00    +0.000 C 
BRANCH  16  18
ATOM     18  O   UNL     1     -10.514   9.059 -31.051  0.00  0.00    +0.000 OA
BRANCH  18  19
ATOM     19  C   UNL     1      -9.172   9.276 -31.495  0.00  0.00    +0.000 C 
BRANCH  19  22
ATOM     20 CL   UNL     1      -4.374   9.831 -29.563  0.00  0.00    +0.000 Cl
ATOM     21 CL   UNL     1      -5.426   8.448 -26.812  0.00  0.00    +0.000 Cl
ATOM     22  C   UNL     1      -8.229   9.069 -30.335  0.00  0.00    +0.000 A 
ATOM     23  C   UNL     1      -6.888   9.477 -30.430  0.00  0.00    +0.000 A 
ATOM     24  C   UNL     1      -8.671   8.479 -29.143  0.00  0.00    +0.000 A 
ATOM     25  C   UNL     1      -6.004   9.298 -29.359  0.00  0.00    +0.000 A 
ATOM     26  C   UNL     1      -7.790   8.299 -28.071  0.00  0.00    +0.000 A 
ATOM     27  C   UNL     1      -6.457   8.707 -28.175  0.00  0.00    +0.000 A 
ENDBRANCH  19  22
ENDBRANCH  18  19
ENDBRANCH  16  18
ENDBRANCH   4  17
TORSDOF 5
ENDMDL
MODEL 5
REMARK VINA RESULT:      -5.1     17.887     19.746
REMARK  Name = 142505355
REMARK  5 active torsions:
REMARK  status: ('A' for Active; 'I' for Inactive)
REMARK    1  A    between atoms: O_5  and  N_8
REMARK    2  A    between atoms: O_5  and  C_21
REMARK    3  A    between atoms: C_9  and  C_14
REMARK    4  A    between atoms: C_10  and  C_12
REMARK    5  A    between atoms: C_20  and  C_21
REMARK                            x       y       z     vdW  Elec       q    Type
REMARK                         _______ _______ _______ _____ _____    ______ ____
ROOT
ATOM      1  S   UNL     1      -6.455  21.762 -45.168  0.00  0.00    +0.000 S 
ATOM      2  N   UNL     1      -7.981  19.703 -44.978  0.00  0.00    +0.000 N 
ATOM      3  N   UNL     1      -5.862  19.066 -44.668  0.00  0.00    +0.000 NA
ATOM      4  C   UNL     1      -8.057  18.359 -44.708  0.00  0.00    +0.000 A 
ATOM      5  C   UNL     1      -6.717  17.981 -44.567  0.00  0.00    +0.000 A 
ATOM      6  C   UNL     1      -6.668  20.058 -44.917  0.00  0.00    +0.000 A 
ATOM      7  C   UNL     1      -8.852  20.742 -45.230  0.00  0.00    +0.000 A 
ATOM      8  C   UNL     1      -8.208  21.916 -45.360  0.00  0.00    +0.000 A 
ENDROOT
BRANCH   5  10
ATOM      9 BR   UNL     1      -4.511  12.314 -43.638  0.00  0.00    +0.000 Br
ATOM     10  C   UNL     1      -6.212  16.635 -44.324  0.00  0.00    +0.000 A 
ATOM     11  C   UNL     1      -5.904  15.809 -45.415  0.00  0.00    +0.000 A 
ATOM     12  C   UNL     1      -6.053  16.127 -43.027  0.00  0.00    +0.000 A 
ATOM     13  C   UNL     1      -5.402  14.519 -45.213  0.00  0.00    +0.000 A 
ATOM     14  C   UNL     1      -5.540  14.842 -42.823  0.00  0.00    +0.000 A 
ATOM     15  C   UNL     1      -5.212  14.046 -43.918  0.00  0.00    +0.000 A 
ENDBRANCH   5  10
BRANCH   4  17
ATOM     16  N   UNL     1      -9.806  17.388 -43.407  0.00  0.00    +0.000 NA
ATOM     17  C   UNL     1      -9.253  17.583 -44.561  0.00  0.00    +0.000 C 
BRANCH  16  18
ATOM     18  O   UNL     1     -10.964  16.610 -43.602  0.00  0.00    +0.000 OA
BRANCH  18  19
ATOM     19  C   UNL     1     -11.568  16.964 -44.848  0.00  0.00    +0.000 C 
BRANCH  19  22
ATOM     20 CL   UNL     1     -16.457  17.224 -43.090  0.00  0.00    +0.000 Cl
ATOM     21 CL   UNL     1     -17.196  14.746 -45.063  0.00  0.00    +0.000 Cl
ATOM     22  C   UNL     1     -12.973  16.415 -44.891  0.00  0.00    +0.000 A 
ATOM     23  C   UNL     1     -13.977  16.973 -44.082  0.00  0.00    +0.000 A 
ATOM     24  C   UNL     1     -13.306  15.351 -45.740  0.00  0.00    +0.000 A 
ATOM     25  C   UNL     1     -15.286  16.477 -44.117  0.00  0.00    +0.000 A 
ATOM     26  C   UNL     1     -14.613  14.854 -45.778  0.00  0.00    +0.000 A 
ATOM     27  C   UNL     1     -15.605  15.415 -44.968  0.00  0.00    +0.000 A 
ENDBRANCH  19  22
ENDBRANCH  18  19
ENDBRANCH  16  18
ENDBRANCH   4  17
TORSDOF 5
ENDMDL
MODEL 6
REMARK VINA RESULT:      -5.0     12.624     13.506
REMARK  Name = 142505355
REMARK  5 active torsions:
REMARK  status: ('A' for Active; 'I' for Inactive)
REMARK    1  A    between atoms: O_5  and  N_8
REMARK    2  A    between atoms: O_5  and  C_21
REMARK    3  A    between atoms: C_9  and  C_14
REMARK    4  A    between atoms: C_10  and  C_12
REMARK    5  A    between atoms: C_20  and  C_21
REMARK                            x       y       z     vdW  Elec       q    Type
REMARK                         _______ _______ _______ _____ _____    ______ ____
ROOT
ATOM      1  S   UNL     1     -10.261  18.793 -55.607  0.00  0.00    +0.000 S 
ATOM      2  N   UNL     1     -10.771  16.427 -54.743  0.00  0.00    +0.000 N 
ATOM      3  N   UNL     1     -11.845  17.913 -53.466  0.00  0.00    +0.000 NA
ATOM      4  C   UNL     1     -11.480  15.667 -53.846  0.00  0.00    +0.000 A 
ATOM      5  C   UNL     1     -12.101  16.621 -53.033  0.00  0.00    +0.000 A 
ATOM      6  C   UNL     1     -11.048  17.734 -54.479  0.00  0.00    +0.000 A 
ATOM      7  C   UNL     1      -9.936  16.216 -55.820  0.00  0.00    +0.000 A 
ATOM      8  C   UNL     1      -9.565  17.372 -56.400  0.00  0.00    +0.000 A 
ENDROOT
BRANCH   5  10
ATOM      9 BR   UNL     1     -15.587  15.610 -48.066  0.00  0.00    +0.000 Br
ATOM     10  C   UNL     1     -12.943  16.363 -51.871  0.00  0.00    +0.000 A 
ATOM     11  C   UNL     1     -12.366  16.357 -50.592  0.00  0.00    +0.000 A 
ATOM     12  C   UNL     1     -14.312  16.086 -51.995  0.00  0.00    +0.000 A 
ATOM     13  C   UNL     1     -13.151  16.128 -49.458  0.00  0.00    +0.000 A 
ATOM     14  C   UNL     1     -15.100  15.868 -50.861  0.00  0.00    +0.000 A 
ATOM     15  C   UNL     1     -14.517  15.896 -49.597  0.00  0.00    +0.000 A 
ENDBRANCH   5  10
BRANCH   4  17
ATOM     16  N   UNL     1     -12.267  13.582 -54.699  0.00  0.00    +0.000 NA
ATOM     17  C   UNL     1     -11.574  14.238 -53.824  0.00  0.00    +0.000 C 
BRANCH  16  18
ATOM     18  O   UNL     1     -12.141  12.207 -54.417  0.00  0.00    +0.000 OA
BRANCH  18  19
ATOM     19  C   UNL     1     -11.067  11.662 -55.188  0.00  0.00    +0.000 C 
BRANCH  19  22
ATOM     20 CL   UNL     1     -14.536   9.851 -58.615  0.00  0.00    +0.000 Cl
ATOM     21 CL   UNL     1     -12.785  11.244 -60.977  0.00  0.00    +0.000 Cl
ATOM     22  C   UNL     1     -11.501  11.548 -56.629  0.00  0.00    +0.000 A 
ATOM     23  C   UNL     1     -12.669  10.843 -56.963  0.00  0.00    +0.000 A 
ATOM     24  C   UNL     1     -10.758  12.147 -57.655  0.00  0.00    +0.000 A 
ATOM     25  C   UNL     1     -13.087  10.735 -58.295  0.00  0.00    +0.000 A 
ATOM     26  C   UNL     1     -11.174  12.042 -58.987  0.00  0.00    +0.000 A 
ATOM     27  C   UNL     1     -12.337  11.337 -59.310  0.00  0.00    +0.000 A 
ENDBRANCH  19  22
ENDBRANCH  18  19
ENDBRANCH  16  18
ENDBRANCH   4  17
TORSDOF 5
ENDMDL
MODEL 7
REMARK VINA RESULT:      -5.0     18.931     21.371
REMARK  Name = 142505355
REMARK  5 active torsions:
REMARK  status: ('A' for Active; 'I' for Inactive)
REMARK    1  A    between atoms: O_5  and  N_8
REMARK    2  A    between atoms: O_5  and  C_21
REMARK    3  A    between atoms: C_9  and  C_14
REMARK    4  A    between atoms: C_10  and  C_12
REMARK    5  A    between atoms: C_20  and  C_21
REMARK                            x       y       z     vdW  Elec       q    Type
REMARK                         _______ _______ _______ _____ _____    ______ ____
ROOT
ATOM      1  S   UNL     1     -20.441  15.657 -44.986  0.00  0.00    +0.000 S 
ATOM      2  N   UNL     1     -17.930  15.175 -45.248  0.00  0.00    +0.000 N 
ATOM      3  N   UNL     1     -18.768  15.763 -47.235  0.00  0.00    +0.000 NA
ATOM      4  C   UNL     1     -16.850  15.176 -46.095  0.00  0.00    +0.000 A 
ATOM      5  C   UNL     1     -17.411  15.500 -47.335  0.00  0.00    +0.000 A 
ATOM      6  C   UNL     1     -19.019  15.549 -45.975  0.00  0.00    +0.000 A 
ATOM      7  C   UNL     1     -18.175  14.954 -43.909  0.00  0.00    +0.000 A 
ATOM      8  C   UNL     1     -19.465  15.165 -43.593  0.00  0.00    +0.000 A 
ENDROOT
BRANCH   5  10
ATOM      9 BR   UNL     1     -14.366  15.828 -52.671  0.00  0.00    +0.000 Br
ATOM     10  C   UNL     1     -16.713  15.586 -48.612  0.00  0.00    +0.000 A 
ATOM     11  C   UNL     1     -15.378  16.015 -48.639  0.00  0.00    +0.000 A 
ATOM     12  C   UNL     1     -17.349  15.284 -49.825  0.00  0.00    +0.000 A 
ATOM     13  C   UNL     1     -14.678  16.093 -49.847  0.00  0.00    +0.000 A 
ATOM     14  C   UNL     1     -16.648  15.350 -51.033  0.00  0.00    +0.000 A 
ATOM     15  C   UNL     1     -15.313  15.748 -51.037  0.00  0.00    +0.000 A 
ENDBRANCH   5  10
BRANCH   4  17
ATOM     16  N   UNL     1     -14.827  15.769 -44.975  0.00  0.00    +0.000 NA
ATOM     17  C   UNL     1     -15.482  14.949 -45.734  0.00  0.00    +0.000 C 
BRANCH  16  18
ATOM     18  O   UNL     1     -13.527  15.257 -44.796  0.00  0.00    +0.000 OA
BRANCH  18  19
ATOM     19  C   UNL     1     -12.694  15.694 -45.873  0.00  0.00    +0.000 C 
BRANCH  19  22
ATOM     20 CL   UNL     1      -9.964  19.984 -46.971  0.00  0.00    +0.000 Cl
ATOM     21 CL   UNL     1      -9.053  20.086 -43.849  0.00  0.00    +0.000 Cl
ATOM     22  C   UNL     1     -11.782  16.790 -45.379  0.00  0.00    +0.000 A 
ATOM     23  C   UNL     1     -11.322  17.781 -46.263  0.00  0.00    +0.000 A 
ATOM     24  C   UNL     1     -11.386  16.848 -44.036  0.00  0.00    +0.000 A 
ATOM     25  C   UNL     1     -10.480  18.807 -45.816  0.00  0.00    +0.000 A 
ATOM     26  C   UNL     1     -10.546  17.873 -43.587  0.00  0.00    +0.000 A 
ATOM     27  C   UNL     1     -10.092  18.854 -44.474  0.00  0.00    +0.000 A 
ENDBRANCH  19  22
ENDBRANCH  18  19
ENDBRANCH  16  18
ENDBRANCH   4  17
TORSDOF 5
ENDMDL
MODEL 8
REMARK VINA RESULT:      -4.9     13.937     15.441
REMARK  Name = 142505355
REMARK  5 active torsions:
REMARK  status: ('A' for Active; 'I' for Inactive)
REMARK    1  A    between atoms: O_5  and  N_8
REMARK    2  A    between atoms: O_5  and  C_21
REMARK    3  A    between atoms: C_9  and  C_14
REMARK    4  A    between atoms: C_10  and  C_12
REMARK    5  A    between atoms: C_20  and  C_21
REMARK                            x       y       z     vdW  Elec       q    Type
REMARK                         _______ _______ _______ _____ _____    ______ ____
ROOT
ATOM      1  S   UNL     1     -17.420  13.102 -63.646  0.00  0.00    +0.000 S 
ATOM      2  N   UNL     1     -17.815  12.335 -61.224  0.00  0.00    +0.000 N 
ATOM      3  N   UNL     1     -15.617  12.545 -61.570  0.00  0.00    +0.000 NA
ATOM      4  C   UNL     1     -17.243  12.045 -60.011  0.00  0.00    +0.000 A 
ATOM      5  C   UNL     1     -15.871  12.137 -60.270  0.00  0.00    +0.000 A 
ATOM      6  C   UNL     1     -16.808  12.641 -62.088  0.00  0.00    +0.000 A 
ATOM      7  C   UNL     1     -19.085  12.441 -61.752  0.00  0.00    +0.000 A 
ATOM      8  C   UNL     1     -19.062  12.840 -63.037  0.00  0.00    +0.000 A 
ENDROOT
BRANCH   5  10
ATOM      9 BR   UNL     1     -11.338  11.097 -56.242  0.00  0.00    +0.000 Br
ATOM     10  C   UNL     1     -14.786  11.871 -59.333  0.00  0.00    +0.000 A 
ATOM     11  C   UNL     1     -14.223  12.934 -58.612  0.00  0.00    +0.000 A 
ATOM     12  C   UNL     1     -14.264  10.582 -59.152  0.00  0.00    +0.000 A 
ATOM     13  C   UNL     1     -13.192  12.707 -57.695  0.00  0.00    +0.000 A 
ATOM     14  C   UNL     1     -13.241  10.351 -58.227  0.00  0.00    +0.000 A 
ATOM     15  C   UNL     1     -12.714  11.414 -57.498  0.00  0.00    +0.000 A 
ENDBRANCH   5  10
BRANCH   4  17
ATOM     16  N   UNL     1     -18.968  12.455 -58.414  0.00  0.00    +0.000 NA
ATOM     17  C   UNL     1     -17.931  11.773 -58.785  0.00  0.00    +0.000 C 
BRANCH  16  18
ATOM     18  O   UNL     1     -19.420  11.933 -57.186  0.00  0.00    +0.000 OA
BRANCH  18  19
ATOM     19  C   UNL     1     -20.645  11.225 -57.396  0.00  0.00    +0.000 C 
BRANCH  19  22
ATOM     20 CL   UNL     1     -22.754   6.522 -56.697  0.00  0.00    +0.000 Cl
ATOM     21 CL   UNL     1     -19.774   5.388 -56.051  0.00  0.00    +0.000 Cl
ATOM     22  C   UNL     1     -20.439   9.769 -57.057  0.00  0.00    +0.000 A 
ATOM     23  C   UNL     1     -21.532   8.888 -57.022  0.00  0.00    +0.000 A 
ATOM     24  C   UNL     1     -19.160   9.267 -56.782  0.00  0.00    +0.000 A 
ATOM     25  C   UNL     1     -21.354   7.533 -56.715  0.00  0.00    +0.000 A 
ATOM     26  C   UNL     1     -18.979   7.914 -56.476  0.00  0.00    +0.000 A 
ATOM     27  C   UNL     1     -20.073   7.045 -56.442  0.00  0.00    +0.000 A 
ENDBRANCH  19  22
ENDBRANCH  18  19
ENDBRANCH  16  18
ENDBRANCH   4  17
TORSDOF 5
ENDMDL
MODEL 9
REMARK VINA RESULT:      -4.9     16.727     18.709
REMARK  Name = 142505355
REMARK  5 active torsions:
REMARK  status: ('A' for Active; 'I' for Inactive)
REMARK    1  A    between atoms: O_5  and  N_8
REMARK    2  A    between atoms: O_5  and  C_21
REMARK    3  A    between atoms: C_9  and  C_14
REMARK    4  A    between atoms: C_10  and  C_12
REMARK    5  A    between atoms: C_20  and  C_21
REMARK                            x       y       z     vdW  Elec       q    Type
REMARK                         _______ _______ _______ _____ _____    ______ ____
ROOT
ATOM      1  S   UNL     1       3.558  11.486 -40.744  0.00  0.00    +0.000 S 
ATOM      2  N   UNL     1       1.061  11.250 -41.305  0.00  0.00    +0.000 N 
ATOM      3  N   UNL     1       2.047   9.258 -41.533  0.00  0.00    +0.000 NA
ATOM      4  C   UNL     1       0.042  10.394 -41.640  0.00  0.00    +0.000 A 
ATOM      5  C   UNL     1       0.695   9.170 -41.823  0.00  0.00    +0.000 A 
ATOM      6  C   UNL     1       2.206  10.516 -41.237  0.00  0.00    +0.000 A 
ATOM      7  C   UNL     1       1.206  12.583 -40.984  0.00  0.00    +0.000 A 
ATOM      8  C   UNL     1       2.476  12.885 -40.659  0.00  0.00    +0.000 A 
ENDROOT
BRANCH   5  10
ATOM      9 BR   UNL     1      -1.750   3.824 -43.637  0.00  0.00    +0.000 Br
ATOM     10  C   UNL     1       0.089   7.912 -42.246  0.00  0.00    +0.000 A 
ATOM     11  C   UNL     1       0.599   7.248 -43.371  0.00  0.00    +0.000 A 
ATOM     12  C   UNL     1      -1.013   7.360 -41.577  0.00  0.00    +0.000 A 
ATOM     13  C   UNL     1       0.049   6.033 -43.791  0.00  0.00    +0.000 A 
ATOM     14  C   UNL     1      -1.557   6.139 -41.988  0.00  0.00    +0.000 A 
ATOM     15  C   UNL     1      -1.019   5.478 -43.090  0.00  0.00    +0.000 A 
ENDBRANCH   5  10
BRANCH   4  17
ATOM     16  N   UNL     1      -1.943  10.943 -42.846  0.00  0.00    +0.000 NA
ATOM     17  C   UNL     1      -1.353  10.713 -41.717  0.00  0.00    +0.000 C 
BRANCH  16  18
ATOM     18  O   UNL     1      -3.302  11.205 -42.586  0.00  0.00    +0.000 OA
BRANCH  18  19
ATOM     19  C   UNL     1      -3.787  12.168 -43.526  0.00  0.00    +0.000 C 
BRANCH  19  22
ATOM     20 CL   UNL     1      -6.739  16.450 -43.604  0.00  0.00    +0.000 Cl
ATOM     21 CL   UNL     1      -5.948  16.934 -40.485  0.00  0.00    +0.000 Cl
ATOM     22  C   UNL     1      -4.327  13.362 -42.778  0.00  0.00    +0.000 A 
ATOM     23  C   UNL     1      -5.181  14.273 -43.421  0.00  0.00    +0.000 A 
ATOM     24  C   UNL     1      -3.998  13.579 -41.434  0.00  0.00    +0.000 A 
ATOM     25  C   UNL     1      -5.695  15.382 -42.736  0.00  0.00    +0.000 A 
ATOM     26  C   UNL     1      -4.510  14.685 -40.747  0.00  0.00    +0.000 A 
ATOM     27  C   UNL     1      -5.358  15.588 -41.395  0.00  0.00    +0.000 A 
ENDBRANCH  19  22
ENDBRANCH  18  19
ENDBRANCH  16  18
ENDBRANCH   4  17
TORSDOF 5
ENDMDL
MODEL 10
REMARK VINA RESULT:      -4.8     18.771     20.842
REMARK  Name = 142505355
REMARK  5 active torsions:
REMARK  status: ('A' for Active; 'I' for Inactive)
REMARK    1  A    between atoms: O_5  and  N_8
REMARK    2  A    between atoms: O_5  and  C_21
REMARK    3  A    between atoms: C_9  and  C_14
REMARK    4  A    between atoms: C_10  and  C_12
REMARK    5  A    between atoms: C_20  and  C_21
REMARK                            x       y       z     vdW  Elec       q    Type
REMARK                         _______ _______ _______ _____ _____    ______ ____
ROOT
ATOM      1  S   UNL     1     -14.093  17.210 -52.589  0.00  0.00    +0.000 S 
ATOM      2  N   UNL     1     -14.928  16.189 -50.382  0.00  0.00    +0.000 N 
ATOM      3  N   UNL     1     -13.257  17.605 -49.940  0.00  0.00    +0.000 NA
ATOM      4  C   UNL     1     -14.818  16.182 -49.014  0.00  0.00    +0.000 A 
ATOM      5  C   UNL     1     -13.737  17.037 -48.771  0.00  0.00    +0.000 A 
ATOM      6  C   UNL     1     -13.998  17.061 -50.862  0.00  0.00    +0.000 A 
ATOM      7  C   UNL     1     -15.730  15.610 -51.343  0.00  0.00    +0.000 A 
ATOM      8  C   UNL     1     -15.423  16.041 -52.579  0.00  0.00    +0.000 A 
ENDROOT
BRANCH   5  10
ATOM      9 BR   UNL     1     -11.156  18.306 -43.333  0.00  0.00    +0.000 Br
ATOM     10  C   UNL     1     -13.149  17.353 -47.476  0.00  0.00    +0.000 A 
ATOM     11  C   UNL     1     -12.385  16.382 -46.812  0.00  0.00    +0.000 A 
ATOM     12  C   UNL     1     -13.350  18.594 -46.854  0.00  0.00    +0.000 A 
ATOM     13  C   UNL     1     -11.795  16.661 -45.575  0.00  0.00    +0.000 A 
ATOM     14  C   UNL     1     -12.751  18.880 -45.623  0.00  0.00    +0.000 A 
ATOM     15  C   UNL     1     -11.971  17.914 -44.992  0.00  0.00    +0.000 A 
ENDBRANCH   5  10
BRANCH   4  17
ATOM     16  N   UNL     1     -16.753  16.024 -47.627  0.00  0.00    +0.000 NA
ATOM     17  C   UNL     1     -15.669  15.491 -48.092  0.00  0.00    +0.000 C 
BRANCH  16  18
ATOM     18  O   UNL     1     -17.369  15.091 -46.769  0.00  0.00    +0.000 OA
BRANCH  18  19
ATOM     19  C   UNL     1     -16.456  14.731 -45.729  0.00  0.00    +0.000 C 
BRANCH  19  22
ATOM     20 CL   UNL     1     -19.238  17.301 -42.164  0.00  0.00    +0.000 Cl
ATOM     21 CL   UNL     1     -16.548  18.965 -41.405  0.00  0.00    +0.000 Cl
ATOM     22  C   UNL     1     -16.490  15.788 -44.653  0.00  0.00    +0.000 A 
ATOM     23  C   UNL     1     -17.684  16.060 -43.965  0.00  0.00    +0.000 A 
ATOM     24  C   UNL     1     -15.337  16.508 -44.313  0.00  0.00    +0.000 A 
ATOM     25  C   UNL     1     -17.728  17.034 -42.959  0.00  0.00    +0.000 A 
ATOM     26  C   UNL     1     -15.378  17.481 -43.309  0.00  0.00    +0.000 A 
ATOM     27  C   UNL     1     -16.571  17.746 -42.630  0.00  0.00    +0.000 A 
ENDBRANCH  19  22
ENDBRANCH  18  19
ENDBRANCH  16  18
ENDBRANCH   4  17
TORSDOF 5
ENDMDL
