REMARK  Name = 142505355
REMARK  5 active torsions:
REMARK  status: ('A' for Active; 'I' for Inactive)
REMARK    1  A    between atoms: O_5  and  N_8
REMARK    2  A    between atoms: O_5  and  C_21
REMARK    3  A    between atoms: C_9  and  C_14
REMARK    4  A    between atoms: C_10  and  C_12
REMARK    5  A    between atoms: C_20  and  C_21
REMARK                            x       y       z     vdW  Elec       q    Type
REMARK                         _______ _______ _______ _____ _____    ______ ____
ROOT
ATOM      1  S   UNL     1       0.464   2.657   4.503  0.00  0.00    +0.000 S 
ATOM      2  N   UNL     1       2.768   1.961   3.601  0.00  0.00    +0.000 N 
ATOM      3  N   UNL     1       1.195   1.309   2.154  0.00  0.00    +0.000 NA
ATOM      4  C   UNL     1       3.464   1.395   2.562  0.00  0.00    +0.000 A 
ATOM      5  C   UNL     1       2.455   0.955   1.698  0.00  0.00    +0.000 A 
ATOM      6  C   UNL     1       1.444   1.898   3.288  0.00  0.00    +0.000 A 
ATOM      7  C   UNL     1       3.053   2.591   4.794  0.00  0.00    +0.000 A 
ATOM      8  C   UNL     1       1.939   3.026   5.410  0.00  0.00    +0.000 A 
ENDROOT
BRANCH   5  10
ATOM      9 BR   UNL     1       3.172  -2.023  -3.637  0.00  0.00    +0.000 Br
ATOM     10  C   UNL     1       2.633   0.226   0.448  0.00  0.00    +0.000 A 
ATOM     11  C   UNL     1       1.746   0.455  -0.614  0.00  0.00    +0.000 A 
ATOM     12  C   UNL     1       3.650  -0.726   0.285  0.00  0.00    +0.000 A 
ATOM     13  C   UNL     1       1.901  -0.218  -1.830  0.00  0.00    +0.000 A 
ATOM     14  C   UNL     1       3.814  -1.391  -0.934  0.00  0.00    +0.000 A 
ATOM     15  C   UNL     1       2.942  -1.129  -1.988  0.00  0.00    +0.000 A 
ENDBRANCH   5  10
BRANCH   4  17
ATOM     16  N   UNL     1       5.681   1.286   3.438  0.00  0.00    +0.000 NA
ATOM     17  C   UNL     1       4.888   1.342   2.416  0.00  0.00    +0.000 C 
BRANCH  16  18
ATOM     18  O   UNL     1       7.006   1.225   2.963  0.00  0.00    +0.000 OA
BRANCH  18  19
ATOM     19  C   UNL     1       7.832   0.595   3.946  0.00  0.00    +0.000 C 
BRANCH  19  22
ATOM     20 CL   UNL     1      11.941   3.588   2.843  0.00  0.00    +0.000 Cl
ATOM     21 CL   UNL     1      13.620   0.877   2.198  0.00  0.00    +0.000 Cl
ATOM     22  C   UNL     1       9.273   0.676   3.506  0.00  0.00    +0.000 A 
ATOM     23  C   UNL     1       9.905   1.924   3.376  0.00  0.00    +0.000 A 
ATOM     24  C   UNL     1      10.009  -0.484   3.230  0.00  0.00    +0.000 A 
ATOM     25  C   UNL     1      11.244   2.013   2.975  0.00  0.00    +0.000 A 
ATOM     26  C   UNL     1      11.347  -0.398   2.830  0.00  0.00    +0.000 A 
ATOM     27  C   UNL     1      11.967   0.848   2.702  0.00  0.00    +0.000 A 
ENDBRANCH  19  22
ENDBRANCH  18  19
ENDBRANCH  16  18
ENDBRANCH   4  17
TORSDOF 5
