MODEL 1
REMARK VINA RESULT:      -4.8      0.000      0.000
REMARK  Name = 142505467
REMARK  5 active torsions:
REMARK  status: ('A' for Active; 'I' for Inactive)
REMARK    1  A    between atoms: N_7  and  C_13
REMARK    2  A    between atoms: C_8  and  C_14
REMARK    3  A    between atoms: C_9  and  C_11
REMARK    4  A    between atoms: C_12  and  C_13
REMARK    5  A    between atoms: C_12  and  C_16
REMARK                            x       y       z     vdW  Elec       q    Type
REMARK                         _______ _______ _______ _____ _____    ______ ____
ROOT
ATOM      1  S   UNL     1     -22.527  14.008 -58.058  0.00  0.00    +0.000 S 
ATOM      2  N   UNL     1     -21.174  11.874 -57.586  0.00  0.00    +0.000 N 
ATOM      3  N   UNL     1     -23.216  11.297 -58.298  0.00  0.00    +0.000 NA
ATOM      4  C   UNL     1     -21.198  10.505 -57.516  0.00  0.00    +0.000 A 
ATOM      5  C   UNL     1     -22.449  10.172 -58.042  0.00  0.00    +0.000 A 
ATOM      6  C   UNL     1     -22.406  12.276 -58.009  0.00  0.00    +0.000 A 
ATOM      7  C   UNL     1     -20.288  12.895 -57.315  0.00  0.00    +0.000 A 
ATOM      8  C   UNL     1     -20.842  14.104 -57.519  0.00  0.00    +0.000 A 
ENDROOT
BRANCH   5  10
ATOM      9 CL   UNL     1     -24.492   4.669 -59.196  0.00  0.00    +0.000 Cl
ATOM     10  C   UNL     1     -22.945   8.821 -58.290  0.00  0.00    +0.000 A 
ATOM     11  C   UNL     1     -24.130   8.354 -57.700  0.00  0.00    +0.000 A 
ATOM     12  C   UNL     1     -22.216   7.958 -59.113  0.00  0.00    +0.000 A 
ATOM     13  C   UNL     1     -24.615   7.074 -57.987  0.00  0.00    +0.000 A 
ATOM     14  C   UNL     1     -22.689   6.669 -59.388  0.00  0.00    +0.000 A 
ATOM     15  C   UNL     1     -23.896   6.241 -58.841  0.00  0.00    +0.000 A 
ENDBRANCH   5  10
BRANCH   4  17
ATOM     16  N   UNL     1     -19.354   9.016 -57.738  0.00  0.00    +0.000 NA
ATOM     17  C   UNL     1     -20.188   9.647 -56.985  0.00  0.00    +0.000 C 
BRANCH  16  18
ATOM     18  C   UNL     1     -18.461   8.159 -56.934  0.00  0.00    +0.000 C 
BRANCH  18  19
ATOM     19  C   UNL     1     -19.131   7.770 -55.617  0.00  0.00    +0.000 C 
BRANCH  19  22
ATOM     20 CL   UNL     1     -23.986   6.400 -54.398  0.00  0.00    +0.000 Cl
ATOM     21 CL   UNL     1     -23.479   3.594 -55.972  0.00  0.00    +0.000 Cl
ATOM     22  C   UNL     1     -20.246   6.766 -55.767  0.00  0.00    +0.000 A 
ATOM     23  C   UNL     1     -21.479   6.990 -55.135  0.00  0.00    +0.000 A 
ATOM     24  C   UNL     1     -20.067   5.595 -56.512  0.00  0.00    +0.000 A 
ATOM     25  C   UNL     1     -22.500   6.040 -55.204  0.00  0.00    +0.000 A 
ATOM     26  C   UNL     1     -21.082   4.637 -56.571  0.00  0.00    +0.000 A 
ATOM     27  C   UNL     1     -22.293   4.848 -55.905  0.00  0.00    +0.000 A 
ENDBRANCH  19  22
ENDBRANCH  18  19
ENDBRANCH  16  18
ENDBRANCH   4  17
TORSDOF 5
ENDMDL
MODEL 2
REMARK VINA RESULT:      -4.7     15.757     17.922
REMARK  Name = 142505467
REMARK  5 active torsions:
REMARK  status: ('A' for Active; 'I' for Inactive)
REMARK    1  A    between atoms: N_7  and  C_13
REMARK    2  A    between atoms: C_8  and  C_14
REMARK    3  A    between atoms: C_9  and  C_11
REMARK    4  A    between atoms: C_12  and  C_13
REMARK    5  A    between atoms: C_12  and  C_16
REMARK                            x       y       z     vdW  Elec       q    Type
REMARK                         _______ _______ _______ _____ _____    ______ ____
ROOT
ATOM      1  S   UNL     1     -15.167  21.636 -39.608  0.00  0.00    +0.000 S 
ATOM      2  N   UNL     1     -16.412  19.815 -40.927  0.00  0.00    +0.000 N 
ATOM      3  N   UNL     1     -14.348  20.035 -41.763  0.00  0.00    +0.000 NA
ATOM      4  C   UNL     1     -16.370  18.954 -41.993  0.00  0.00    +0.000 A 
ATOM      5  C   UNL     1     -15.050  19.052 -42.441  0.00  0.00    +0.000 A 
ATOM      6  C   UNL     1     -15.207  20.451 -40.877  0.00  0.00    +0.000 A 
ATOM      7  C   UNL     1     -17.321  20.211 -39.969  0.00  0.00    +0.000 A 
ATOM      8  C   UNL     1     -16.821  21.174 -39.174  0.00  0.00    +0.000 A 
ENDROOT
BRANCH   5  10
ATOM      9 CL   UNL     1     -12.686  15.797 -46.870  0.00  0.00    +0.000 Cl
ATOM     10  C   UNL     1     -14.443  18.257 -43.505  0.00  0.00    +0.000 A 
ATOM     11  C   UNL     1     -13.937  16.970 -43.263  0.00  0.00    +0.000 A 
ATOM     12  C   UNL     1     -14.337  18.792 -44.792  0.00  0.00    +0.000 A 
ATOM     13  C   UNL     1     -13.403  16.204 -44.304  0.00  0.00    +0.000 A 
ATOM     14  C   UNL     1     -13.785  18.035 -45.834  0.00  0.00    +0.000 A 
ATOM     15  C   UNL     1     -13.341  16.738 -45.589  0.00  0.00    +0.000 A 
ENDBRANCH   5  10
BRANCH   4  17
ATOM     16  N   UNL     1     -17.634  16.948 -42.211  0.00  0.00    +0.000 NA
ATOM     17  C   UNL     1     -17.447  18.183 -42.527  0.00  0.00    +0.000 C 
BRANCH  16  18
ATOM     18  C   UNL     1     -18.779  16.381 -42.950  0.00  0.00    +0.000 C 
BRANCH  18  19
ATOM     19  C   UNL     1     -18.379  15.082 -43.647  0.00  0.00    +0.000 C 
BRANCH  19  22
ATOM     20 CL   UNL     1     -17.619  17.986 -47.881  0.00  0.00    +0.000 Cl
ATOM     21 CL   UNL     1     -15.547  15.710 -48.944  0.00  0.00    +0.000 Cl
ATOM     22  C   UNL     1     -17.618  15.283 -44.934  0.00  0.00    +0.000 A 
ATOM     23  C   UNL     1     -17.880  16.405 -45.734  0.00  0.00    +0.000 A 
ATOM     24  C   UNL     1     -16.663  14.353 -45.359  0.00  0.00    +0.000 A 
ATOM     25  C   UNL     1     -17.237  16.573 -46.962  0.00  0.00    +0.000 A 
ATOM     26  C   UNL     1     -16.028  14.511 -46.594  0.00  0.00    +0.000 A 
ATOM     27  C   UNL     1     -16.325  15.611 -47.405  0.00  0.00    +0.000 A 
ENDBRANCH  19  22
ENDBRANCH  18  19
ENDBRANCH  16  18
ENDBRANCH   4  17
TORSDOF 5
ENDMDL
MODEL 3
REMARK VINA RESULT:      -4.6     23.737     25.710
REMARK  Name = 142505467
REMARK  5 active torsions:
REMARK  status: ('A' for Active; 'I' for Inactive)
REMARK    1  A    between atoms: N_7  and  C_13
REMARK    2  A    between atoms: C_8  and  C_14
REMARK    3  A    between atoms: C_9  and  C_11
REMARK    4  A    between atoms: C_12  and  C_13
REMARK    5  A    between atoms: C_12  and  C_16
REMARK                            x       y       z     vdW  Elec       q    Type
REMARK                         _______ _______ _______ _____ _____    ______ ____
ROOT
ATOM      1  S   UNL     1     -13.929   4.605 -28.712  0.00  0.00    +0.000 S 
ATOM      2  N   UNL     1     -14.027   5.344 -31.172  0.00  0.00    +0.000 N 
ATOM      3  N   UNL     1     -16.081   5.471 -30.294  0.00  0.00    +0.000 NA
ATOM      4  C   UNL     1     -14.832   5.722 -32.214  0.00  0.00    +0.000 A 
ATOM      5  C   UNL     1     -16.087   5.873 -31.619  0.00  0.00    +0.000 A 
ATOM      6  C   UNL     1     -14.831   5.169 -30.085  0.00  0.00    +0.000 A 
ATOM      7  C   UNL     1     -12.692   5.070 -30.960  0.00  0.00    +0.000 A 
ATOM      8  C   UNL     1     -12.459   4.667 -29.699  0.00  0.00    +0.000 A 
ENDROOT
BRANCH   5  10
ATOM      9 CL   UNL     1     -21.029   8.013 -34.226  0.00  0.00    +0.000 Cl
ATOM     10  C   UNL     1     -17.295   6.367 -32.275  0.00  0.00    +0.000 A 
ATOM     11  C   UNL     1     -18.514   5.674 -32.189  0.00  0.00    +0.000 A 
ATOM     12  C   UNL     1     -17.241   7.543 -33.029  0.00  0.00    +0.000 A 
ATOM     13  C   UNL     1     -19.671   6.187 -32.783  0.00  0.00    +0.000 A 
ATOM     14  C   UNL     1     -18.394   8.050 -33.641  0.00  0.00    +0.000 A 
ATOM     15  C   UNL     1     -19.607   7.381 -33.497  0.00  0.00    +0.000 A 
ENDBRANCH   5  10
BRANCH   4  17
ATOM     16  N   UNL     1     -13.794   6.893 -34.009  0.00  0.00    +0.000 NA
ATOM     17  C   UNL     1     -14.462   5.876 -33.585  0.00  0.00    +0.000 C 
BRANCH  16  18
ATOM     18  C   UNL     1     -13.600   6.826 -35.470  0.00  0.00    +0.000 C 
BRANCH  18  19
ATOM     19  C   UNL     1     -12.247   7.419 -35.861  0.00  0.00    +0.000 C 
BRANCH  19  22
ATOM     20 CL   UNL     1      -7.241   6.050 -35.782  0.00  0.00    +0.000 Cl
ATOM     21 CL   UNL     1      -8.035   3.438 -37.558  0.00  0.00    +0.000 Cl
ATOM     22  C   UNL     1     -11.203   6.390 -36.215  0.00  0.00    +0.000 A 
ATOM     23  C   UNL     1      -9.860   6.609 -35.871  0.00  0.00    +0.000 A 
ATOM     24  C   UNL     1     -11.546   5.222 -36.904  0.00  0.00    +0.000 A 
ATOM     25  C   UNL     1      -8.868   5.702 -36.250  0.00  0.00    +0.000 A 
ATOM     26  C   UNL     1     -10.555   4.321 -37.298  0.00  0.00    +0.000 A 
ATOM     27  C   UNL     1      -9.213   4.566 -36.987  0.00  0.00    +0.000 A 
ENDBRANCH  19  22
ENDBRANCH  18  19
ENDBRANCH  16  18
ENDBRANCH   4  17
TORSDOF 5
ENDMDL
MODEL 4
REMARK VINA RESULT:      -4.5     18.311     20.988
REMARK  Name = 142505467
REMARK  5 active torsions:
REMARK  status: ('A' for Active; 'I' for Inactive)
REMARK    1  A    between atoms: N_7  and  C_13
REMARK    2  A    between atoms: C_8  and  C_14
REMARK    3  A    between atoms: C_9  and  C_11
REMARK    4  A    between atoms: C_12  and  C_13
REMARK    5  A    between atoms: C_12  and  C_16
REMARK                            x       y       z     vdW  Elec       q    Type
REMARK                         _______ _______ _______ _____ _____    ______ ____
ROOT
ATOM      1  S   UNL     1      -4.830   5.717 -61.170  0.00  0.00    +0.000 S 
ATOM      2  N   UNL     1      -3.119   5.254 -59.310  0.00  0.00    +0.000 N 
ATOM      3  N   UNL     1      -5.159   4.708 -58.571  0.00  0.00    +0.000 NA
ATOM      4  C   UNL     1      -2.932   4.874 -58.006  0.00  0.00    +0.000 A 
ATOM      5  C   UNL     1      -4.203   4.462 -57.600  0.00  0.00    +0.000 A 
ATOM      6  C   UNL     1      -4.456   5.177 -59.563  0.00  0.00    +0.000 A 
ATOM      7  C   UNL     1      -2.351   5.707 -60.361  0.00  0.00    +0.000 A 
ATOM      8  C   UNL     1      -3.102   5.997 -61.439  0.00  0.00    +0.000 A 
ENDROOT
BRANCH   5  10
ATOM      9 CL   UNL     1      -5.480   2.076 -52.264  0.00  0.00    +0.000 Cl
ATOM     10  C   UNL     1      -4.542   3.863 -56.312  0.00  0.00    +0.000 A 
ATOM     11  C   UNL     1      -4.514   2.472 -56.118  0.00  0.00    +0.000 A 
ATOM     12  C   UNL     1      -4.927   4.683 -55.247  0.00  0.00    +0.000 A 
ATOM     13  C   UNL     1      -4.793   1.919 -54.865  0.00  0.00    +0.000 A 
ATOM     14  C   UNL     1      -5.227   4.131 -53.996  0.00  0.00    +0.000 A 
ATOM     15  C   UNL     1      -5.138   2.755 -53.805  0.00  0.00    +0.000 A 
ENDBRANCH   5  10
BRANCH   4  17
ATOM     16  N   UNL     1      -1.358   5.996 -56.615  0.00  0.00    +0.000 NA
ATOM     17  C   UNL     1      -1.721   4.935 -57.250  0.00  0.00    +0.000 C 
BRANCH  16  18
ATOM     18  C   UNL     1      -0.045   5.801 -55.970  0.00  0.00    +0.000 C 
BRANCH  18  19
ATOM     19  C   UNL     1       0.839   7.032 -56.167  0.00  0.00    +0.000 C 
BRANCH  19  22
ATOM     20 CL   UNL     1       2.868   6.295 -51.447  0.00  0.00    +0.000 Cl
ATOM     21 CL   UNL     1       2.514   9.487 -50.910  0.00  0.00    +0.000 Cl
ATOM     22  C   UNL     1       1.330   7.649 -54.882  0.00  0.00    +0.000 A 
ATOM     23  C   UNL     1       1.846   6.831 -53.865  0.00  0.00    +0.000 A 
ATOM     24  C   UNL     1       1.262   9.031 -54.674  0.00  0.00    +0.000 A 
ATOM     25  C   UNL     1       2.242   7.376 -52.641  0.00  0.00    +0.000 A 
ATOM     26  C   UNL     1       1.643   9.577 -53.446  0.00  0.00    +0.000 A 
ATOM     27  C   UNL     1       2.118   8.750 -52.422  0.00  0.00    +0.000 A 
ENDBRANCH  19  22
ENDBRANCH  18  19
ENDBRANCH  16  18
ENDBRANCH   4  17
TORSDOF 5
ENDMDL
MODEL 5
REMARK VINA RESULT:      -4.5     11.985     13.960
REMARK  Name = 142505467
REMARK  5 active torsions:
REMARK  status: ('A' for Active; 'I' for Inactive)
REMARK    1  A    between atoms: N_7  and  C_13
REMARK    2  A    between atoms: C_8  and  C_14
REMARK    3  A    between atoms: C_9  and  C_11
REMARK    4  A    between atoms: C_12  and  C_13
REMARK    5  A    between atoms: C_12  and  C_16
REMARK                            x       y       z     vdW  Elec       q    Type
REMARK                         _______ _______ _______ _____ _____    ______ ____
ROOT
ATOM      1  S   UNL     1     -23.635   6.694 -50.008  0.00  0.00    +0.000 S 
ATOM      2  N   UNL     1     -24.098   8.560 -48.302  0.00  0.00    +0.000 N 
ATOM      3  N   UNL     1     -24.003   6.600 -47.227  0.00  0.00    +0.000 NA
ATOM      4  C   UNL     1     -24.388   8.860 -46.996  0.00  0.00    +0.000 A 
ATOM      5  C   UNL     1     -24.240   7.636 -46.338  0.00  0.00    +0.000 A 
ATOM      6  C   UNL     1     -23.928   7.209 -48.376  0.00  0.00    +0.000 A 
ATOM      7  C   UNL     1     -23.979   9.229 -49.501  0.00  0.00    +0.000 A 
ATOM      8  C   UNL     1     -23.727   8.388 -50.519  0.00  0.00    +0.000 A 
ENDROOT
BRANCH   5  10
ATOM      9 CL   UNL     1     -24.736   6.845 -40.429  0.00  0.00    +0.000 Cl
ATOM     10  C   UNL     1     -24.338   7.417 -44.898  0.00  0.00    +0.000 A 
ATOM     11  C   UNL     1     -23.229   7.583 -44.053  0.00  0.00    +0.000 A 
ATOM     12  C   UNL     1     -25.554   7.009 -44.342  0.00  0.00    +0.000 A 
ATOM     13  C   UNL     1     -23.353   7.417 -42.670  0.00  0.00    +0.000 A 
ATOM     14  C   UNL     1     -25.677   6.823 -42.959  0.00  0.00    +0.000 A 
ATOM     15  C   UNL     1     -24.582   7.048 -42.129  0.00  0.00    +0.000 A 
ENDBRANCH   5  10
BRANCH   4  17
ATOM     16  N   UNL     1     -23.960  10.915 -45.871  0.00  0.00    +0.000 NA
ATOM     17  C   UNL     1     -24.787  10.124 -46.465  0.00  0.00    +0.000 C 
BRANCH  16  18
ATOM     18  C   UNL     1     -24.649  12.121 -45.372  0.00  0.00    +0.000 C 
BRANCH  18  19
ATOM     19  C   UNL     1     -23.835  12.784 -44.262  0.00  0.00    +0.000 C 
BRANCH  19  22
ATOM     20 CL   UNL     1     -25.898  10.128 -40.308  0.00  0.00    +0.000 Cl
ATOM     21 CL   UNL     1     -22.870   9.514 -39.276  0.00  0.00    +0.000 Cl
ATOM     22  C   UNL     1     -23.602  11.902 -43.060  0.00  0.00    +0.000 A 
ATOM     23  C   UNL     1     -24.693  11.429 -42.316  0.00  0.00    +0.000 A 
ATOM     24  C   UNL     1     -22.306  11.562 -42.657  0.00  0.00    +0.000 A 
ATOM     25  C   UNL     1     -24.496  10.670 -41.161  0.00  0.00    +0.000 A 
ATOM     26  C   UNL     1     -22.104  10.815 -41.494  0.00  0.00    +0.000 A 
ATOM     27  C   UNL     1     -23.196  10.382 -40.734  0.00  0.00    +0.000 A 
ENDBRANCH  19  22
ENDBRANCH  18  19
ENDBRANCH  16  18
ENDBRANCH   4  17
TORSDOF 5
ENDMDL
MODEL 6
REMARK VINA RESULT:      -4.4      9.427     12.578
REMARK  Name = 142505467
REMARK  5 active torsions:
REMARK  status: ('A' for Active; 'I' for Inactive)
REMARK    1  A    between atoms: N_7  and  C_13
REMARK    2  A    between atoms: C_8  and  C_14
REMARK    3  A    between atoms: C_9  and  C_11
REMARK    4  A    between atoms: C_12  and  C_13
REMARK    5  A    between atoms: C_12  and  C_16
REMARK                            x       y       z     vdW  Elec       q    Type
REMARK                         _______ _______ _______ _____ _____    ______ ____
ROOT
ATOM      1  S   UNL     1     -13.919   9.841 -59.179  0.00  0.00    +0.000 S 
ATOM      2  N   UNL     1     -13.420  12.244 -58.416  0.00  0.00    +0.000 N 
ATOM      3  N   UNL     1     -12.160  10.828 -57.227  0.00  0.00    +0.000 NA
ATOM      4  C   UNL     1     -12.749  13.036 -57.522  0.00  0.00    +0.000 A 
ATOM      5  C   UNL     1     -11.912  12.139 -56.853  0.00  0.00    +0.000 A 
ATOM      6  C   UNL     1     -13.063  10.954 -58.157  0.00  0.00    +0.000 A 
ATOM      7  C   UNL     1     -14.344  12.402 -59.427  0.00  0.00    +0.000 A 
ATOM      8  C   UNL     1     -14.718  11.221 -59.951  0.00  0.00    +0.000 A 
ENDROOT
BRANCH   5  10
ATOM      9 CL   UNL     1      -7.831  13.686 -52.761  0.00  0.00    +0.000 Cl
ATOM     10  C   UNL     1     -10.902  12.485 -55.857  0.00  0.00    +0.000 A 
ATOM     11  C   UNL     1      -9.533  12.494 -56.171  0.00  0.00    +0.000 A 
ATOM     12  C   UNL     1     -11.296  12.792 -54.551  0.00  0.00    +0.000 A 
ATOM     13  C   UNL     1      -8.583  12.875 -55.218  0.00  0.00    +0.000 A 
ATOM     14  C   UNL     1     -10.345  13.156 -53.589  0.00  0.00    +0.000 A 
ATOM     15  C   UNL     1      -8.997  13.216 -53.932  0.00  0.00    +0.000 A 
ENDBRANCH   5  10
BRANCH   4  17
ATOM     16  N   UNL     1     -13.525  14.916 -56.282  0.00  0.00    +0.000 NA
ATOM     17  C   UNL     1     -12.914  14.440 -57.312  0.00  0.00    +0.000 C 
BRANCH  16  18
ATOM     18  C   UNL     1     -13.601  16.388 -56.347  0.00  0.00    +0.000 C 
BRANCH  18  19
ATOM     19  C   UNL     1     -12.872  17.017 -55.162  0.00  0.00    +0.000 C 
BRANCH  19  22
ATOM     20 CL   UNL     1     -17.113  16.354 -52.244  0.00  0.00    +0.000 Cl
ATOM     21 CL   UNL     1     -15.152  15.835 -49.696  0.00  0.00    +0.000 Cl
ATOM     22  C   UNL     1     -13.448  16.647 -53.817  0.00  0.00    +0.000 A 
ATOM     23  C   UNL     1     -14.839  16.629 -53.633  0.00  0.00    +0.000 A 
ATOM     24  C   UNL     1     -12.615  16.338 -52.737  0.00  0.00    +0.000 A 
ATOM     25  C   UNL     1     -15.390  16.357 -52.379  0.00  0.00    +0.000 A 
ATOM     26  C   UNL     1     -13.163  16.080 -51.478  0.00  0.00    +0.000 A 
ATOM     27  C   UNL     1     -14.549  16.105 -51.292  0.00  0.00    +0.000 A 
ENDBRANCH  19  22
ENDBRANCH  18  19
ENDBRANCH  16  18
ENDBRANCH   4  17
TORSDOF 5
ENDMDL
MODEL 7
REMARK VINA RESULT:      -4.2      7.712     10.365
REMARK  Name = 142505467
REMARK  5 active torsions:
REMARK  status: ('A' for Active; 'I' for Inactive)
REMARK    1  A    between atoms: N_7  and  C_13
REMARK    2  A    between atoms: C_8  and  C_14
REMARK    3  A    between atoms: C_9  and  C_11
REMARK    4  A    between atoms: C_12  and  C_13
REMARK    5  A    between atoms: C_12  and  C_16
REMARK                            x       y       z     vdW  Elec       q    Type
REMARK                         _______ _______ _______ _____ _____    ______ ____
ROOT
ATOM      1  S   UNL     1     -10.256  11.799 -63.027  0.00  0.00    +0.000 S 
ATOM      2  N   UNL     1     -12.230  11.661 -61.387  0.00  0.00    +0.000 N 
ATOM      3  N   UNL     1     -10.342  11.973 -60.226  0.00  0.00    +0.000 NA
ATOM      4  C   UNL     1     -12.615  11.625 -60.072  0.00  0.00    +0.000 A 
ATOM      5  C   UNL     1     -11.435  11.904 -59.377  0.00  0.00    +0.000 A 
ATOM      6  C   UNL     1     -10.876  11.822 -61.405  0.00  0.00    +0.000 A 
ATOM      7  C   UNL     1     -12.819  11.542 -62.627  0.00  0.00    +0.000 A 
ATOM      8  C   UNL     1     -11.913  11.600 -63.619  0.00  0.00    +0.000 A 
ENDROOT
BRANCH   5  10
ATOM      9 CL   UNL     1     -10.795  12.711 -53.484  0.00  0.00    +0.000 Cl
ATOM     10  C   UNL     1     -11.310  12.086 -57.934  0.00  0.00    +0.000 A 
ATOM     11  C   UNL     1     -11.305  10.994 -57.053  0.00  0.00    +0.000 A 
ATOM     12  C   UNL     1     -11.217  13.378 -57.406  0.00  0.00    +0.000 A 
ATOM     13  C   UNL     1     -11.135  11.184 -55.678  0.00  0.00    +0.000 A 
ATOM     14  C   UNL     1     -11.066  13.574 -56.028  0.00  0.00    +0.000 A 
ATOM     15  C   UNL     1     -11.005  12.476 -55.173  0.00  0.00    +0.000 A 
ENDBRANCH   5  10
BRANCH   4  17
ATOM     16  N   UNL     1     -14.249  10.142 -59.176  0.00  0.00    +0.000 NA
ATOM     17  C   UNL     1     -13.913  11.327 -59.556  0.00  0.00    +0.000 C 
BRANCH  16  18
ATOM     18  C   UNL     1     -15.659  10.107 -58.744  0.00  0.00    +0.000 C 
BRANCH  18  19
ATOM     19  C   UNL     1     -16.257  11.512 -58.743  0.00  0.00    +0.000 C 
BRANCH  19  22
ATOM     20 CL   UNL     1     -20.819   9.736 -57.019  0.00  0.00    +0.000 Cl
ATOM     21 CL   UNL     1     -22.258  11.403 -59.419  0.00  0.00    +0.000 Cl
ATOM     22  C   UNL     1     -17.761  11.542 -58.858  0.00  0.00    +0.000 A 
ATOM     23  C   UNL     1     -18.544  10.762 -57.994  0.00  0.00    +0.000 A 
ATOM     24  C   UNL     1     -18.395  12.322 -59.832  0.00  0.00    +0.000 A 
ATOM     25  C   UNL     1     -19.934  10.721 -58.129  0.00  0.00    +0.000 A 
ATOM     26  C   UNL     1     -19.783  12.272 -59.979  0.00  0.00    +0.000 A 
ATOM     27  C   UNL     1     -20.554  11.460 -59.140  0.00  0.00    +0.000 A 
ENDBRANCH  19  22
ENDBRANCH  18  19
ENDBRANCH  16  18
ENDBRANCH   4  17
TORSDOF 5
ENDMDL
MODEL 8
REMARK VINA RESULT:      -4.2     17.976     19.777
REMARK  Name = 142505467
REMARK  5 active torsions:
REMARK  status: ('A' for Active; 'I' for Inactive)
REMARK    1  A    between atoms: N_7  and  C_13
REMARK    2  A    between atoms: C_8  and  C_14
REMARK    3  A    between atoms: C_9  and  C_11
REMARK    4  A    between atoms: C_12  and  C_13
REMARK    5  A    between atoms: C_12  and  C_16
REMARK                            x       y       z     vdW  Elec       q    Type
REMARK                         _______ _______ _______ _____ _____    ______ ____
ROOT
ATOM      1  S   UNL     1      -6.616  -4.171 -60.381  0.00  0.00    +0.000 S 
ATOM      2  N   UNL     1      -5.301  -2.544 -58.888  0.00  0.00    +0.000 N 
ATOM      3  N   UNL     1      -7.078  -3.296 -57.754  0.00  0.00    +0.000 NA
ATOM      4  C   UNL     1      -5.266  -1.873 -57.693  0.00  0.00    +0.000 A 
ATOM      5  C   UNL     1      -6.334  -2.422 -56.978  0.00  0.00    +0.000 A 
ATOM      6  C   UNL     1      -6.416  -3.328 -58.876  0.00  0.00    +0.000 A 
ATOM      7  C   UNL     1      -4.563  -2.597 -60.051  0.00  0.00    +0.000 A 
ATOM      8  C   UNL     1      -5.118  -3.423 -60.957  0.00  0.00    +0.000 A 
ENDROOT
BRANCH   5  10
ATOM      9 CL   UNL     1      -7.845  -1.323 -51.294  0.00  0.00    +0.000 Cl
ATOM     10  C   UNL     1      -6.681  -2.127 -55.591  0.00  0.00    +0.000 A 
ATOM     11  C   UNL     1      -7.268  -0.906 -55.224  0.00  0.00    +0.000 A 
ATOM     12  C   UNL     1      -6.403  -3.067 -54.594  0.00  0.00    +0.000 A 
ATOM     13  C   UNL     1      -7.639  -0.660 -53.898  0.00  0.00    +0.000 A 
ATOM     14  C   UNL     1      -6.754  -2.816 -53.262  0.00  0.00    +0.000 A 
ATOM     15  C   UNL     1      -7.389  -1.624 -52.924  0.00  0.00    +0.000 A 
ENDBRANCH   5  10
BRANCH   4  17
ATOM     16  N   UNL     1      -3.363  -1.041 -56.529  0.00  0.00    +0.000 NA
ATOM     17  C   UNL     1      -4.366  -0.832 -57.310  0.00  0.00    +0.000 C 
BRANCH  16  18
ATOM     18  C   UNL     1      -2.638   0.215 -56.253  0.00  0.00    +0.000 C 
BRANCH  18  19
ATOM     19  C   UNL     1      -3.620   1.357 -55.996  0.00  0.00    +0.000 C 
BRANCH  19  22
ATOM     20 CL   UNL     1      -3.186  -0.317 -51.102  0.00  0.00    +0.000 Cl
ATOM     21 CL   UNL     1      -5.854   1.407 -50.386  0.00  0.00    +0.000 Cl
ATOM     22  C   UNL     1      -4.127   1.425 -54.577  0.00  0.00    +0.000 A 
ATOM     23  C   UNL     1      -3.511   0.658 -53.576  0.00  0.00    +0.000 A 
ATOM     24  C   UNL     1      -5.221   2.230 -54.241  0.00  0.00    +0.000 A 
ATOM     25  C   UNL     1      -4.008   0.655 -52.271  0.00  0.00    +0.000 A 
ATOM     26  C   UNL     1      -5.730   2.217 -52.939  0.00  0.00    +0.000 A 
ATOM     27  C   UNL     1      -5.136   1.418 -51.956  0.00  0.00    +0.000 A 
ENDBRANCH  19  22
ENDBRANCH  18  19
ENDBRANCH  16  18
ENDBRANCH   4  17
TORSDOF 5
ENDMDL
MODEL 9
REMARK VINA RESULT:      -4.1     18.469     20.957
REMARK  Name = 142505467
REMARK  5 active torsions:
REMARK  status: ('A' for Active; 'I' for Inactive)
REMARK    1  A    between atoms: N_7  and  C_13
REMARK    2  A    between atoms: C_8  and  C_14
REMARK    3  A    between atoms: C_9  and  C_11
REMARK    4  A    between atoms: C_12  and  C_13
REMARK    5  A    between atoms: C_12  and  C_16
REMARK                            x       y       z     vdW  Elec       q    Type
REMARK                         _______ _______ _______ _____ _____    ______ ____
ROOT
ATOM      1  S   UNL     1      -7.785  -1.253 -52.941  0.00  0.00    +0.000 S 
ATOM      2  N   UNL     1      -5.498  -0.179 -52.469  0.00  0.00    +0.000 N 
ATOM      3  N   UNL     1      -6.599   1.081 -53.954  0.00  0.00    +0.000 NA
ATOM      4  C   UNL     1      -4.621   0.820 -52.802  0.00  0.00    +0.000 A 
ATOM      5  C   UNL     1      -5.362   1.633 -53.662  0.00  0.00    +0.000 A 
ATOM      6  C   UNL     1      -6.623   0.008 -53.216  0.00  0.00    +0.000 A 
ATOM      7  C   UNL     1      -5.521  -1.287 -51.648  0.00  0.00    +0.000 A 
ATOM      8  C   UNL     1      -6.670  -1.974 -51.769  0.00  0.00    +0.000 A 
ENDROOT
BRANCH   5  10
ATOM      9 CL   UNL     1      -3.440   6.792 -56.004  0.00  0.00    +0.000 Cl
ATOM     10  C   UNL     1      -4.926   2.905 -54.232  0.00  0.00    +0.000 A 
ATOM     11  C   UNL     1      -5.049   4.109 -53.521  0.00  0.00    +0.000 A 
ATOM     12  C   UNL     1      -4.393   2.936 -55.525  0.00  0.00    +0.000 A 
ATOM     13  C   UNL     1      -4.580   5.310 -54.063  0.00  0.00    +0.000 A 
ATOM     14  C   UNL     1      -3.941   4.140 -56.078  0.00  0.00    +0.000 A 
ATOM     15  C   UNL     1      -4.017   5.317 -55.337  0.00  0.00    +0.000 A 
ENDBRANCH   5  10
BRANCH   4  17
ATOM     16  N   UNL     1      -2.934   1.265 -51.180  0.00  0.00    +0.000 NA
ATOM     17  C   UNL     1      -3.261   0.953 -52.387  0.00  0.00    +0.000 C 
BRANCH  16  18
ATOM     18  C   UNL     1      -1.470   1.390 -51.045  0.00  0.00    +0.000 C 
BRANCH  18  19
ATOM     19  C   UNL     1      -0.944   0.427 -49.982  0.00  0.00    +0.000 C 
BRANCH  19  22
ATOM     20 CL   UNL     1      -3.487  -3.949 -48.831  0.00  0.00    +0.000 Cl
ATOM     21 CL   UNL     1      -1.660  -5.473 -51.055  0.00  0.00    +0.000 Cl
ATOM     22  C   UNL     1      -1.182  -1.029 -50.298  0.00  0.00    +0.000 A 
ATOM     23  C   UNL     1      -2.122  -1.761 -49.557  0.00  0.00    +0.000 A 
ATOM     24  C   UNL     1      -0.462  -1.673 -51.311  0.00  0.00    +0.000 A 
ATOM     25  C   UNL     1      -2.306  -3.126 -49.788  0.00  0.00    +0.000 A 
ATOM     26  C   UNL     1      -0.634  -3.041 -51.534  0.00  0.00    +0.000 A 
ATOM     27  C   UNL     1      -1.543  -3.774 -50.763  0.00  0.00    +0.000 A 
ENDBRANCH  19  22
ENDBRANCH  18  19
ENDBRANCH  16  18
ENDBRANCH   4  17
TORSDOF 5
ENDMDL
MODEL 10
REMARK VINA RESULT:      -4.1      8.907     11.388
REMARK  Name = 142505467
REMARK  5 active torsions:
REMARK  status: ('A' for Active; 'I' for Inactive)
REMARK    1  A    between atoms: N_7  and  C_13
REMARK    2  A    between atoms: C_8  and  C_14
REMARK    3  A    between atoms: C_9  and  C_11
REMARK    4  A    between atoms: C_12  and  C_13
REMARK    5  A    between atoms: C_12  and  C_16
REMARK                            x       y       z     vdW  Elec       q    Type
REMARK                         _______ _______ _______ _____ _____    ______ ____
ROOT
ATOM      1  S   UNL     1      -9.116  12.658 -55.665  0.00  0.00    +0.000 S 
ATOM      2  N   UNL     1     -11.295  11.962 -56.837  0.00  0.00    +0.000 N 
ATOM      3  N   UNL     1      -9.941  12.926 -58.335  0.00  0.00    +0.000 NA
ATOM      4  C   UNL     1     -12.022  11.997 -57.999  0.00  0.00    +0.000 A 
ATOM      5  C   UNL     1     -11.126  12.525 -58.931  0.00  0.00    +0.000 A 
ATOM      6  C   UNL     1     -10.100  12.566 -57.093  0.00  0.00    +0.000 A 
ATOM      7  C   UNL     1     -11.466  11.535 -55.538  0.00  0.00    +0.000 A 
ATOM      8  C   UNL     1     -10.397  11.821 -54.774  0.00  0.00    +0.000 A 
ENDROOT
BRANCH   5  10
ATOM      9 CL   UNL     1     -11.976  13.122 -64.823  0.00  0.00    +0.000 Cl
ATOM     10  C   UNL     1     -11.366  12.680 -60.363  0.00  0.00    +0.000 A 
ATOM     11  C   UNL     1     -11.747  13.913 -60.915  0.00  0.00    +0.000 A 
ATOM     12  C   UNL     1     -11.241  11.573 -61.208  0.00  0.00    +0.000 A 
ATOM     13  C   UNL     1     -11.926  14.054 -62.295  0.00  0.00    +0.000 A 
ATOM     14  C   UNL     1     -11.438  11.706 -62.588  0.00  0.00    +0.000 A 
ATOM     15  C   UNL     1     -11.758  12.949 -63.127  0.00  0.00    +0.000 A 
ENDBRANCH   5  10
BRANCH   4  17
ATOM     16  N   UNL     1     -13.727  10.525 -58.772  0.00  0.00    +0.000 NA
ATOM     17  C   UNL     1     -13.387  11.617 -58.178  0.00  0.00    +0.000 C 
BRANCH  16  18
ATOM     18  C   UNL     1     -15.195  10.412 -58.870  0.00  0.00    +0.000 C 
BRANCH  18  19
ATOM     19  C   UNL     1     -15.830  11.790 -59.051  0.00  0.00    +0.000 C 
BRANCH  19  22
ATOM     20 CL   UNL     1     -19.439  12.669 -62.676  0.00  0.00    +0.000 Cl
ATOM     21 CL   UNL     1     -17.038  12.900 -64.863  0.00  0.00    +0.000 Cl
ATOM     22  C   UNL     1     -16.134  12.143 -60.486  0.00  0.00    +0.000 A 
ATOM     23  C   UNL     1     -17.467  12.269 -60.907  0.00  0.00    +0.000 A 
ATOM     24  C   UNL     1     -15.106  12.328 -61.417  0.00  0.00    +0.000 A 
ATOM     25  C   UNL     1     -17.771  12.527 -62.246  0.00  0.00    +0.000 A 
ATOM     26  C   UNL     1     -15.408  12.572 -62.759  0.00  0.00    +0.000 A 
ATOM     27  C   UNL     1     -16.740  12.656 -63.179  0.00  0.00    +0.000 A 
ENDBRANCH  19  22
ENDBRANCH  18  19
ENDBRANCH  16  18
ENDBRANCH   4  17
TORSDOF 5
ENDMDL
