REMARK  Name = 142505361
REMARK  5 active torsions:
REMARK  status: ('A' for Active; 'I' for Inactive)
REMARK    1  A    between atoms: O_5  and  N_8
REMARK    2  A    between atoms: O_5  and  C_21
REMARK    3  A    between atoms: C_9  and  C_14
REMARK    4  A    between atoms: C_10  and  C_12
REMARK    5  A    between atoms: C_20  and  C_21
REMARK                            x       y       z     vdW  Elec       q    Type
REMARK                         _______ _______ _______ _____ _____    ______ ____
ROOT
ATOM      1  S   UNL     1      -4.610   2.109  -8.441  0.00  0.00    +0.000 S 
ATOM      2  N   UNL     1      -4.834   1.547  -5.945  0.00  0.00    +0.000 N 
ATOM      3  N   UNL     1      -2.731   1.151  -6.586  0.00  0.00    +0.000 NA
ATOM      4  C   UNL     1      -4.197   1.121  -4.807  0.00  0.00    +0.000 A 
ATOM      5  C   UNL     1      -2.900   0.837  -5.245  0.00  0.00    +0.000 A 
ATOM      6  C   UNL     1      -3.914   1.556  -6.949  0.00  0.00    +0.000 A 
ATOM      7  C   UNL     1      -6.098   1.969  -6.306  0.00  0.00    +0.000 A 
ATOM      8  C   UNL     1      -6.159   2.305  -7.605  0.00  0.00    +0.000 A 
ENDROOT
BRANCH   5  10
ATOM      9  F   UNL     1       1.306  -1.437  -2.337  0.00  0.00    +0.000 F 
ATOM     10  C   UNL     1      -1.819   0.249  -4.461  0.00  0.00    +0.000 A 
ATOM     11  C   UNL     1      -0.488   0.565  -4.778  0.00  0.00    +0.000 A 
ATOM     12  C   UNL     1      -2.066  -0.672  -3.429  0.00  0.00    +0.000 A 
ATOM     13  C   UNL     1       0.568  -0.003  -4.059  0.00  0.00    +0.000 A 
ATOM     14  C   UNL     1      -1.011  -1.228  -2.703  0.00  0.00    +0.000 A 
ATOM     15  C   UNL     1       0.296  -0.889  -3.025  0.00  0.00    +0.000 A 
ENDBRANCH   5  10
BRANCH   4  17
ATOM     16  N   UNL     1      -6.038   0.730  -3.371  0.00  0.00    +0.000 NA
ATOM     17  C   UNL     1      -4.783   1.015  -3.506  0.00  0.00    +0.000 C 
BRANCH  16  18
ATOM     18  O   UNL     1      -6.332   0.610  -2.002  0.00  0.00    +0.000 OA
BRANCH  18  19
ATOM     19  C   UNL     1      -7.455  -0.266  -1.862  0.00  0.00    +0.000 C 
BRANCH  19  22
ATOM     20 CL   UNL     1      -8.301   2.169   2.678  0.00  0.00    +0.000 Cl
ATOM     21 CL   UNL     1      -9.636  -0.589   3.772  0.00  0.00    +0.000 Cl
ATOM     22  C   UNL     1      -7.928  -0.328  -0.429  0.00  0.00    +0.000 A 
ATOM     23  C   UNL     1      -7.890   0.798   0.408  0.00  0.00    +0.000 A 
ATOM     24  C   UNL     1      -8.500  -1.512   0.061  0.00  0.00    +0.000 A 
ATOM     25  C   UNL     1      -8.397   0.739   1.712  0.00  0.00    +0.000 A 
ATOM     26  C   UNL     1      -9.011  -1.573   1.359  0.00  0.00    +0.000 A 
ATOM     27  C   UNL     1      -8.964  -0.448   2.187  0.00  0.00    +0.000 A 
ENDBRANCH  19  22
ENDBRANCH  18  19
ENDBRANCH  16  18
ENDBRANCH   4  17
TORSDOF 5
