MODEL 1
REMARK VINA RESULT:      -5.7      0.000      0.000
REMARK  Name = 142505469
REMARK  5 active torsions:
REMARK  status: ('A' for Active; 'I' for Inactive)
REMARK    1  A    between atoms: O_2  and  N_5
REMARK    2  A    between atoms: O_2  and  C_19
REMARK    3  A    between atoms: C_6  and  C_11
REMARK    4  A    between atoms: C_7  and  C_9
REMARK    5  A    between atoms: C_18  and  C_19
REMARK                            x       y       z     vdW  Elec       q    Type
REMARK                         _______ _______ _______ _____ _____    ______ ____
ROOT
ATOM      1  S   UNL     1      10.580  13.028  24.427  0.00  0.00    +0.000 S 
ATOM      2  N   UNL     1      12.585  11.599  23.696  0.00  0.00    +0.000 N 
ATOM      3  N   UNL     1      11.086  11.637  22.040  0.00  0.00    +0.000 NA
ATOM      4  C   UNL     1      13.158  10.866  22.690  0.00  0.00    +0.000 A 
ATOM      5  C   UNL     1      12.193  10.881  21.679  0.00  0.00    +0.000 A 
ATOM      6  C   UNL     1      11.372  12.029  23.248  0.00  0.00    +0.000 A 
ATOM      7  C   UNL     1      12.934  12.042  24.956  0.00  0.00    +0.000 A 
ATOM      8  C   UNL     1      11.979  12.817  25.494  0.00  0.00    +0.000 A 
ENDROOT
BRANCH   5   9
ATOM      9  C   UNL     1      12.297  10.234  20.376  0.00  0.00    +0.000 A 
ATOM     10  C   UNL     1      13.009  10.868  19.350  0.00  0.00    +0.000 A 
ATOM     11  C   UNL     1      11.720   8.981  20.118  0.00  0.00    +0.000 A 
ATOM     12  C   UNL     1      13.195  10.234  18.117  0.00  0.00    +0.000 A 
ATOM     13  C   UNL     1      11.924   8.339  18.896  0.00  0.00    +0.000 A 
ATOM     14  C   UNL     1      12.670   8.961  17.900  0.00  0.00    +0.000 A 
ENDBRANCH   5   9
BRANCH   4  16
ATOM     15  N   UNL     1      15.489  10.916  22.253  0.00  0.00    +0.000 NA
ATOM     16  C   UNL     1      14.462  10.277  22.710  0.00  0.00    +0.000 C 
BRANCH  15  17
ATOM     17  O   UNL     1      16.634  10.128  22.471  0.00  0.00    +0.000 OA
BRANCH  17  18
ATOM     18  C   UNL     1      17.334   9.983  21.232  0.00  0.00    +0.000 C 
BRANCH  18  19
ATOM     19  C   UNL     1      17.073   8.637  20.600  0.00  0.00    +0.000 A 
ATOM     20  C   UNL     1      15.882   8.431  19.885  0.00  0.00    +0.000 A 
ATOM     21  C   UNL     1      17.945   7.555  20.777  0.00  0.00    +0.000 A 
ATOM     22  C   UNL     1      15.574   7.176  19.357  0.00  0.00    +0.000 A 
ATOM     23  C   UNL     1      17.638   6.300  20.246  0.00  0.00    +0.000 A 
ATOM     24  C   UNL     1      16.452   6.110  19.541  0.00  0.00    +0.000 A 
ENDBRANCH  18  19
ENDBRANCH  17  18
ENDBRANCH  15  17
ENDBRANCH   4  16
TORSDOF 5
ENDMDL
MODEL 2
REMARK VINA RESULT:      -5.4     19.806     22.452
REMARK  Name = 142505469
REMARK  5 active torsions:
REMARK  status: ('A' for Active; 'I' for Inactive)
REMARK    1  A    between atoms: O_2  and  N_5
REMARK    2  A    between atoms: O_2  and  C_19
REMARK    3  A    between atoms: C_6  and  C_11
REMARK    4  A    between atoms: C_7  and  C_9
REMARK    5  A    between atoms: C_18  and  C_19
REMARK                            x       y       z     vdW  Elec       q    Type
REMARK                         _______ _______ _______ _____ _____    ______ ____
ROOT
ATOM      1  S   UNL     1       0.374  13.983  10.206  0.00  0.00    +0.000 S 
ATOM      2  N   UNL     1      -0.225  12.231   8.427  0.00  0.00    +0.000 N 
ATOM      3  N   UNL     1      -2.111  13.147   9.199  0.00  0.00    +0.000 NA
ATOM      4  C   UNL     1      -1.223  11.631   7.707  0.00  0.00    +0.000 A 
ATOM      5  C   UNL     1      -2.391  12.198   8.225  0.00  0.00    +0.000 A 
ATOM      6  C   UNL     1      -0.811  13.115   9.282  0.00  0.00    +0.000 A 
ATOM      7  C   UNL     1       1.155  12.213   8.460  0.00  0.00    +0.000 A 
ATOM      8  C   UNL     1       1.644  13.088   9.355  0.00  0.00    +0.000 A 
ENDROOT
BRANCH   5   9
ATOM      9  C   UNL     1      -3.756  11.898   7.807  0.00  0.00    +0.000 A 
ATOM     10  C   UNL     1      -4.345  12.656   6.788  0.00  0.00    +0.000 A 
ATOM     11  C   UNL     1      -4.498  10.854   8.383  0.00  0.00    +0.000 A 
ATOM     12  C   UNL     1      -5.620  12.337   6.311  0.00  0.00    +0.000 A 
ATOM     13  C   UNL     1      -5.762  10.523   7.893  0.00  0.00    +0.000 A 
ATOM     14  C   UNL     1      -6.318  11.257   6.850  0.00  0.00    +0.000 A 
ENDBRANCH   5   9
BRANCH   4  16
ATOM     15  N   UNL     1      -1.114   9.408   6.883  0.00  0.00    +0.000 NA
ATOM     16  C   UNL     1      -1.051  10.679   6.652  0.00  0.00    +0.000 C 
BRANCH  15  17
ATOM     17  O   UNL     1      -0.985   8.728   5.658  0.00  0.00    +0.000 OA
BRANCH  17  18
ATOM     18  C   UNL     1      -1.902   9.296   4.719  0.00  0.00    +0.000 C 
BRANCH  18  19
ATOM     19  C   UNL     1      -3.239   8.596   4.754  0.00  0.00    +0.000 A 
ATOM     20  C   UNL     1      -3.307   7.262   5.187  0.00  0.00    +0.000 A 
ATOM     21  C   UNL     1      -4.407   9.210   4.282  0.00  0.00    +0.000 A 
ATOM     22  C   UNL     1      -4.515   6.563   5.155  0.00  0.00    +0.000 A 
ATOM     23  C   UNL     1      -5.616   8.510   4.253  0.00  0.00    +0.000 A 
ATOM     24  C   UNL     1      -5.669   7.187   4.685  0.00  0.00    +0.000 A 
ENDBRANCH  18  19
ENDBRANCH  17  18
ENDBRANCH  15  17
ENDBRANCH   4  16
TORSDOF 5
ENDMDL
MODEL 3
REMARK VINA RESULT:      -5.2     22.350     25.162
REMARK  Name = 142505469
REMARK  5 active torsions:
REMARK  status: ('A' for Active; 'I' for Inactive)
REMARK    1  A    between atoms: O_2  and  N_5
REMARK    2  A    between atoms: O_2  and  C_19
REMARK    3  A    between atoms: C_6  and  C_11
REMARK    4  A    between atoms: C_7  and  C_9
REMARK    5  A    between atoms: C_18  and  C_19
REMARK                            x       y       z     vdW  Elec       q    Type
REMARK                         _______ _______ _______ _____ _____    ______ ____
ROOT
ATOM      1  S   UNL     1      -0.434  12.176   7.300  0.00  0.00    +0.000 S 
ATOM      2  N   UNL     1      -0.689  10.779   5.161  0.00  0.00    +0.000 N 
ATOM      3  N   UNL     1      -2.356  10.267   6.557  0.00  0.00    +0.000 NA
ATOM      4  C   UNL     1      -1.445   9.863   4.479  0.00  0.00    +0.000 A 
ATOM      5  C   UNL     1      -2.463   9.538   5.381  0.00  0.00    +0.000 A 
ATOM      6  C   UNL     1      -1.280  10.978   6.372  0.00  0.00    +0.000 A 
ATOM      7  C   UNL     1       0.425  11.557   4.919  0.00  0.00    +0.000 A 
ATOM      8  C   UNL     1       0.705  12.363   5.957  0.00  0.00    +0.000 A 
ENDROOT
BRANCH   5   9
ATOM      9  C   UNL     1      -3.548   8.590   5.154  0.00  0.00    +0.000 A 
ATOM     10  C   UNL     1      -4.743   9.038   4.578  0.00  0.00    +0.000 A 
ATOM     11  C   UNL     1      -3.427   7.229   5.478  0.00  0.00    +0.000 A 
ATOM     12  C   UNL     1      -5.767   8.137   4.274  0.00  0.00    +0.000 A 
ATOM     13  C   UNL     1      -4.440   6.326   5.155  0.00  0.00    +0.000 A 
ATOM     14  C   UNL     1      -5.606   6.778   4.543  0.00  0.00    +0.000 A 
ENDBRANCH   5   9
BRANCH   4  16
ATOM     15  N   UNL     1      -1.508  10.157   2.126  0.00  0.00    +0.000 NA
ATOM     16  C   UNL     1      -1.221   9.409   3.141  0.00  0.00    +0.000 C 
BRANCH  15  17
ATOM     17  O   UNL     1      -1.114   9.485   0.954  0.00  0.00    +0.000 OA
BRANCH  17  18
ATOM     18  C   UNL     1      -1.069  10.427  -0.121  0.00  0.00    +0.000 C 
BRANCH  18  19
ATOM     19  C   UNL     1      -2.251  10.274  -1.047  0.00  0.00    +0.000 A 
ATOM     20  C   UNL     1      -2.201  10.844  -2.329  0.00  0.00    +0.000 A 
ATOM     21  C   UNL     1      -3.438   9.652  -0.634  0.00  0.00    +0.000 A 
ATOM     22  C   UNL     1      -3.309  10.788  -3.178  0.00  0.00    +0.000 A 
ATOM     23  C   UNL     1      -4.544   9.594  -1.485  0.00  0.00    +0.000 A 
ATOM     24  C   UNL     1      -4.480  10.165  -2.754  0.00  0.00    +0.000 A 
ENDBRANCH  18  19
ENDBRANCH  17  18
ENDBRANCH  15  17
ENDBRANCH   4  16
TORSDOF 5
ENDMDL
MODEL 4
REMARK VINA RESULT:      -4.9      2.819      5.522
REMARK  Name = 142505469
REMARK  5 active torsions:
REMARK  status: ('A' for Active; 'I' for Inactive)
REMARK    1  A    between atoms: O_2  and  N_5
REMARK    2  A    between atoms: O_2  and  C_19
REMARK    3  A    between atoms: C_6  and  C_11
REMARK    4  A    between atoms: C_7  and  C_9
REMARK    5  A    between atoms: C_18  and  C_19
REMARK                            x       y       z     vdW  Elec       q    Type
REMARK                         _______ _______ _______ _____ _____    ______ ____
ROOT
ATOM      1  S   UNL     1      19.811  12.601  21.538  0.00  0.00    +0.000 S 
ATOM      2  N   UNL     1      17.418  11.949  22.204  0.00  0.00    +0.000 N 
ATOM      3  N   UNL     1      18.196  10.442  20.749  0.00  0.00    +0.000 NA
ATOM      4  C   UNL     1      16.406  11.034  22.076  0.00  0.00    +0.000 A 
ATOM      5  C   UNL     1      16.904  10.120  21.143  0.00  0.00    +0.000 A 
ATOM      6  C   UNL     1      18.442  11.541  21.404  0.00  0.00    +0.000 A 
ATOM      7  C   UNL     1      17.673  13.084  22.948  0.00  0.00    +0.000 A 
ATOM      8  C   UNL     1      18.905  13.565  22.716  0.00  0.00    +0.000 A 
ENDROOT
BRANCH   5   9
ATOM      9  C   UNL     1      16.214   8.937  20.639  0.00  0.00    +0.000 A 
ATOM     10  C   UNL     1      16.394   7.709  21.286  0.00  0.00    +0.000 A 
ATOM     11  C   UNL     1      15.354   8.994  19.531  0.00  0.00    +0.000 A 
ATOM     12  C   UNL     1      15.682   6.578  20.876  0.00  0.00    +0.000 A 
ATOM     13  C   UNL     1      14.626   7.871  19.135  0.00  0.00    +0.000 A 
ATOM     14  C   UNL     1      14.782   6.666  19.814  0.00  0.00    +0.000 A 
ENDBRANCH   5   9
BRANCH   4  16
ATOM     15  N   UNL     1      14.196  11.820  22.431  0.00  0.00    +0.000 NA
ATOM     16  C   UNL     1      15.165  11.041  22.787  0.00  0.00    +0.000 C 
BRANCH  15  17
ATOM     17  O   UNL     1      13.088  11.556  23.257  0.00  0.00    +0.000 OA
BRANCH  17  18
ATOM     18  C   UNL     1      11.897  11.647  22.469  0.00  0.00    +0.000 C 
BRANCH  18  19
ATOM     19  C   UNL     1      11.476  10.298  21.939  0.00  0.00    +0.000 A 
ATOM     20  C   UNL     1      10.942   9.347  22.823  0.00  0.00    +0.000 A 
ATOM     21  C   UNL     1      11.684   9.930  20.603  0.00  0.00    +0.000 A 
ATOM     22  C   UNL     1      10.618   8.063  22.380  0.00  0.00    +0.000 A 
ATOM     23  C   UNL     1      11.356   8.647  20.159  0.00  0.00    +0.000 A 
ATOM     24  C   UNL     1      10.828   7.713  21.048  0.00  0.00    +0.000 A 
ENDBRANCH  18  19
ENDBRANCH  17  18
ENDBRANCH  15  17
ENDBRANCH   4  16
TORSDOF 5
ENDMDL
MODEL 5
REMARK VINA RESULT:      -4.8     31.119     33.154
REMARK  Name = 142505469
REMARK  5 active torsions:
REMARK  status: ('A' for Active; 'I' for Inactive)
REMARK    1  A    between atoms: O_2  and  N_5
REMARK    2  A    between atoms: O_2  and  C_19
REMARK    3  A    between atoms: C_6  and  C_11
REMARK    4  A    between atoms: C_7  and  C_9
REMARK    5  A    between atoms: C_18  and  C_19
REMARK                            x       y       z     vdW  Elec       q    Type
REMARK                         _______ _______ _______ _____ _____    ______ ____
ROOT
ATOM      1  S   UNL     1     -20.596   7.853  33.324  0.00  0.00    +0.000 S 
ATOM      2  N   UNL     1     -19.561   6.169  31.684  0.00  0.00    +0.000 N 
ATOM      3  N   UNL     1     -18.129   6.510  33.364  0.00  0.00    +0.000 NA
ATOM      4  C   UNL     1     -18.502   5.345  31.411  0.00  0.00    +0.000 A 
ATOM      5  C   UNL     1     -17.609   5.596  32.457  0.00  0.00    +0.000 A 
ATOM      6  C   UNL     1     -19.283   6.821  32.847  0.00  0.00    +0.000 A 
ATOM      7  C   UNL     1     -20.801   6.443  31.141  0.00  0.00    +0.000 A 
ATOM      8  C   UNL     1     -21.488   7.324  31.888  0.00  0.00    +0.000 A 
ENDROOT
BRANCH   5   9
ATOM      9  C   UNL     1     -16.303   4.976  32.645  0.00  0.00    +0.000 A 
ATOM     10  C   UNL     1     -15.150   5.674  32.268  0.00  0.00    +0.000 A 
ATOM     11  C   UNL     1     -16.160   3.700  33.213  0.00  0.00    +0.000 A 
ATOM     12  C   UNL     1     -13.882   5.139  32.513  0.00  0.00    +0.000 A 
ATOM     13  C   UNL     1     -14.894   3.174  33.477  0.00  0.00    +0.000 A 
ATOM     14  C   UNL     1     -13.755   3.899  33.137  0.00  0.00    +0.000 A 
ENDBRANCH   5   9
BRANCH   4  16
ATOM     15  N   UNL     1     -17.763   4.748  29.236  0.00  0.00    +0.000 NA
ATOM     16  C   UNL     1     -18.402   4.431  30.315  0.00  0.00    +0.000 C 
BRANCH  15  17
ATOM     17  O   UNL     1     -17.768   3.637  28.374  0.00  0.00    +0.000 OA
BRANCH  17  18
ATOM     18  C   UNL     1     -16.420   3.347  27.992  0.00  0.00    +0.000 C 
BRANCH  18  19
ATOM     19  C   UNL     1     -15.745   2.429  28.983  0.00  0.00    +0.000 A 
ATOM     20  C   UNL     1     -14.467   2.755  29.464  0.00  0.00    +0.000 A 
ATOM     21  C   UNL     1     -16.320   1.212  29.373  0.00  0.00    +0.000 A 
ATOM     22  C   UNL     1     -13.784   1.887  30.318  0.00  0.00    +0.000 A 
ATOM     23  C   UNL     1     -15.637   0.346  30.230  0.00  0.00    +0.000 A 
ATOM     24  C   UNL     1     -14.369   0.682  30.699  0.00  0.00    +0.000 A 
ENDBRANCH  18  19
ENDBRANCH  17  18
ENDBRANCH  15  17
ENDBRANCH   4  16
TORSDOF 5
ENDMDL
MODEL 6
REMARK VINA RESULT:      -4.7     13.638     16.060
REMARK  Name = 142505469
REMARK  5 active torsions:
REMARK  status: ('A' for Active; 'I' for Inactive)
REMARK    1  A    between atoms: O_2  and  N_5
REMARK    2  A    between atoms: O_2  and  C_19
REMARK    3  A    between atoms: C_6  and  C_11
REMARK    4  A    between atoms: C_7  and  C_9
REMARK    5  A    between atoms: C_18  and  C_19
REMARK                            x       y       z     vdW  Elec       q    Type
REMARK                         _______ _______ _______ _____ _____    ______ ____
ROOT
ATOM      1  S   UNL     1      16.414  -3.378  32.034  0.00  0.00    +0.000 S 
ATOM      2  N   UNL     1      17.369  -2.898  29.699  0.00  0.00    +0.000 N 
ATOM      3  N   UNL     1      16.837  -5.064  29.827  0.00  0.00    +0.000 NA
ATOM      4  C   UNL     1      17.664  -3.404  28.460  0.00  0.00    +0.000 A 
ATOM      5  C   UNL     1      17.350  -4.761  28.573  0.00  0.00    +0.000 A 
ATOM      6  C   UNL     1      16.882  -3.923  30.453  0.00  0.00    +0.000 A 
ATOM      7  C   UNL     1      17.380  -1.667  30.322  0.00  0.00    +0.000 A 
ATOM      8  C   UNL     1      16.904  -1.739  31.576  0.00  0.00    +0.000 A 
ENDROOT
BRANCH   5   9
ATOM      9  C   UNL     1      17.486  -5.769  27.528  0.00  0.00    +0.000 A 
ATOM     10  C   UNL     1      18.737  -6.352  27.294  0.00  0.00    +0.000 A 
ATOM     11  C   UNL     1      16.393  -6.191  26.755  0.00  0.00    +0.000 A 
ATOM     12  C   UNL     1      18.878  -7.379  26.356  0.00  0.00    +0.000 A 
ATOM     13  C   UNL     1      16.529  -7.230  25.834  0.00  0.00    +0.000 A 
ATOM     14  C   UNL     1      17.770  -7.831  25.642  0.00  0.00    +0.000 A 
ENDBRANCH   5   9
BRANCH   4  16
ATOM     15  N   UNL     1      17.348  -2.321  26.372  0.00  0.00    +0.000 NA
ATOM     16  C   UNL     1      18.142  -2.660  27.335  0.00  0.00    +0.000 C 
BRANCH  15  17
ATOM     17  O   UNL     1      18.073  -1.541  25.453  0.00  0.00    +0.000 OA
BRANCH  17  18
ATOM     18  C   UNL     1      17.626  -1.856  24.131  0.00  0.00    +0.000 C 
BRANCH  18  19
ATOM     19  C   UNL     1      17.956  -3.281  23.758  0.00  0.00    +0.000 A 
ATOM     20  C   UNL     1      19.279  -3.736  23.877  0.00  0.00    +0.000 A 
ATOM     21  C   UNL     1      16.996  -4.143  23.210  0.00  0.00    +0.000 A 
ATOM     22  C   UNL     1      19.631  -5.023  23.464  0.00  0.00    +0.000 A 
ATOM     23  C   UNL     1      17.348  -5.432  22.801  0.00  0.00    +0.000 A 
ATOM     24  C   UNL     1      18.665  -5.869  22.924  0.00  0.00    +0.000 A 
ENDBRANCH  18  19
ENDBRANCH  17  18
ENDBRANCH  15  17
ENDBRANCH   4  16
TORSDOF 5
ENDMDL
MODEL 7
REMARK VINA RESULT:      -4.7     10.612     13.449
REMARK  Name = 142505469
REMARK  5 active torsions:
REMARK  status: ('A' for Active; 'I' for Inactive)
REMARK    1  A    between atoms: O_2  and  N_5
REMARK    2  A    between atoms: O_2  and  C_19
REMARK    3  A    between atoms: C_6  and  C_11
REMARK    4  A    between atoms: C_7  and  C_9
REMARK    5  A    between atoms: C_18  and  C_19
REMARK                            x       y       z     vdW  Elec       q    Type
REMARK                         _______ _______ _______ _____ _____    ______ ____
ROOT
ATOM      1  S   UNL     1       4.047  17.806  15.156  0.00  0.00    +0.000 S 
ATOM      2  N   UNL     1       4.731  17.542  17.618  0.00  0.00    +0.000 N 
ATOM      3  N   UNL     1       2.567  17.025  17.412  0.00  0.00    +0.000 NA
ATOM      4  C   UNL     1       4.339  17.176  18.878  0.00  0.00    +0.000 A 
ATOM      5  C   UNL     1       2.980  16.885  18.731  0.00  0.00    +0.000 A 
ATOM      6  C   UNL     1       3.646  17.425  16.802  0.00  0.00    +0.000 A 
ATOM      7  C   UNL     1       5.900  17.917  16.986  0.00  0.00    +0.000 A 
ATOM      8  C   UNL     1       5.717  18.101  15.668  0.00  0.00    +0.000 A 
ENDROOT
BRANCH   5   9
ATOM      9  C   UNL     1       2.071  16.447  19.784  0.00  0.00    +0.000 A 
ATOM     10  C   UNL     1       1.561  17.388  20.687  0.00  0.00    +0.000 A 
ATOM     11  C   UNL     1       1.673  15.107  19.914  0.00  0.00    +0.000 A 
ATOM     12  C   UNL     1       0.625  17.011  21.654  0.00  0.00    +0.000 A 
ATOM     13  C   UNL     1       0.722  14.735  20.865  0.00  0.00    +0.000 A 
ATOM     14  C   UNL     1       0.191  15.688  21.728  0.00  0.00    +0.000 A 
ENDBRANCH   5   9
BRANCH   4  16
ATOM     15  N   UNL     1       5.734  15.975  20.375  0.00  0.00    +0.000 NA
ATOM     16  C   UNL     1       5.179  17.092  20.034  0.00  0.00    +0.000 C 
BRANCH  15  17
ATOM     17  O   UNL     1       6.554  16.211  21.494  0.00  0.00    +0.000 OA
BRANCH  17  18
ATOM     18  C   UNL     1       6.134  15.354  22.559  0.00  0.00    +0.000 C 
BRANCH  18  19
ATOM     19  C   UNL     1       5.080  16.011  23.418  0.00  0.00    +0.000 A 
ATOM     20  C   UNL     1       3.820  15.404  23.546  0.00  0.00    +0.000 A 
ATOM     21  C   UNL     1       5.291  17.256  24.025  0.00  0.00    +0.000 A 
ATOM     22  C   UNL     1       2.799  16.027  24.267  0.00  0.00    +0.000 A 
ATOM     23  C   UNL     1       4.270  17.876  24.749  0.00  0.00    +0.000 A 
ATOM     24  C   UNL     1       3.024  17.264  24.866  0.00  0.00    +0.000 A 
ENDBRANCH  18  19
ENDBRANCH  17  18
ENDBRANCH  15  17
ENDBRANCH   4  16
TORSDOF 5
ENDMDL
MODEL 8
REMARK VINA RESULT:      -4.6     10.365     13.283
REMARK  Name = 142505469
REMARK  5 active torsions:
REMARK  status: ('A' for Active; 'I' for Inactive)
REMARK    1  A    between atoms: O_2  and  N_5
REMARK    2  A    between atoms: O_2  and  C_19
REMARK    3  A    between atoms: C_6  and  C_11
REMARK    4  A    between atoms: C_7  and  C_9
REMARK    5  A    between atoms: C_18  and  C_19
REMARK                            x       y       z     vdW  Elec       q    Type
REMARK                         _______ _______ _______ _____ _____    ______ ____
ROOT
ATOM      1  S   UNL     1       0.324  16.561  15.267  0.00  0.00    +0.000 S 
ATOM      2  N   UNL     1       2.326  15.812  16.692  0.00  0.00    +0.000 N 
ATOM      3  N   UNL     1       0.582  16.182  18.039  0.00  0.00    +0.000 NA
ATOM      4  C   UNL     1       2.781  15.500  17.946  0.00  0.00    +0.000 A 
ATOM      5  C   UNL     1       1.685  15.765  18.771  0.00  0.00    +0.000 A 
ATOM      6  C   UNL     1       1.025  16.200  16.814  0.00  0.00    +0.000 A 
ATOM      7  C   UNL     1       2.806  15.773  15.398  0.00  0.00    +0.000 A 
ATOM      8  C   UNL     1       1.870  16.143  14.508  0.00  0.00    +0.000 A 
ENDROOT
BRANCH   5   9
ATOM      9  C   UNL     1       1.636  15.605  20.220  0.00  0.00    +0.000 A 
ATOM     10  C   UNL     1       2.426  16.430  21.030  0.00  0.00    +0.000 A 
ATOM     11  C   UNL     1       0.805  14.656  20.836  0.00  0.00    +0.000 A 
ATOM     12  C   UNL     1       2.337  16.355  22.423  0.00  0.00    +0.000 A 
ATOM     13  C   UNL     1       0.700  14.595  22.226  0.00  0.00    +0.000 A 
ATOM     14  C   UNL     1       1.458  15.451  23.019  0.00  0.00    +0.000 A 
ENDBRANCH   5   9
BRANCH   4  16
ATOM     15  N   UNL     1       5.072  15.781  18.493  0.00  0.00    +0.000 NA
ATOM     16  C   UNL     1       4.076  14.987  18.271  0.00  0.00    +0.000 C 
BRANCH  15  17
ATOM     17  O   UNL     1       6.187  15.005  18.860  0.00  0.00    +0.000 OA
BRANCH  17  18
ATOM     18  C   UNL     1       7.162  15.859  19.465  0.00  0.00    +0.000 C 
BRANCH  18  19
ATOM     19  C   UNL     1       6.731  16.310  20.840  0.00  0.00    +0.000 A 
ATOM     20  C   UNL     1       6.438  15.347  21.820  0.00  0.00    +0.000 A 
ATOM     21  C   UNL     1       6.530  17.662  21.146  0.00  0.00    +0.000 A 
ATOM     22  C   UNL     1       5.961  15.730  23.075  0.00  0.00    +0.000 A 
ATOM     23  C   UNL     1       6.056  18.044  22.403  0.00  0.00    +0.000 A 
ATOM     24  C   UNL     1       5.767  17.078  23.365  0.00  0.00    +0.000 A 
ENDBRANCH  18  19
ENDBRANCH  17  18
ENDBRANCH  15  17
ENDBRANCH   4  16
TORSDOF 5
ENDMDL
MODEL 9
REMARK VINA RESULT:      -4.5     28.254     30.335
REMARK  Name = 142505469
REMARK  5 active torsions:
REMARK  status: ('A' for Active; 'I' for Inactive)
REMARK    1  A    between atoms: O_2  and  N_5
REMARK    2  A    between atoms: O_2  and  C_19
REMARK    3  A    between atoms: C_6  and  C_11
REMARK    4  A    between atoms: C_7  and  C_9
REMARK    5  A    between atoms: C_18  and  C_19
REMARK                            x       y       z     vdW  Elec       q    Type
REMARK                         _______ _______ _______ _____ _____    ______ ____
ROOT
ATOM      1  S   UNL     1      -6.093 -16.044  11.834  0.00  0.00    +0.000 S 
ATOM      2  N   UNL     1      -5.379 -13.871  13.002  0.00  0.00    +0.000 N 
ATOM      3  N   UNL     1      -5.359 -13.541  10.793  0.00  0.00    +0.000 NA
ATOM      4  C   UNL     1      -5.020 -12.558  12.849  0.00  0.00    +0.000 A 
ATOM      5  C   UNL     1      -4.987 -12.383  11.463  0.00  0.00    +0.000 A 
ATOM      6  C   UNL     1      -5.570 -14.390  11.757  0.00  0.00    +0.000 A 
ATOM      7  C   UNL     1      -5.645 -14.737  14.044  0.00  0.00    +0.000 A 
ATOM      8  C   UNL     1      -6.038 -15.943  13.602  0.00  0.00    +0.000 A 
ENDROOT
BRANCH   5   9
ATOM      9  C   UNL     1      -4.650 -11.153  10.755  0.00  0.00    +0.000 A 
ATOM     10  C   UNL     1      -5.654 -10.455  10.075  0.00  0.00    +0.000 A 
ATOM     11  C   UNL     1      -3.346 -10.632  10.749  0.00  0.00    +0.000 A 
ATOM     12  C   UNL     1      -5.377  -9.231   9.458  0.00  0.00    +0.000 A 
ATOM     13  C   UNL     1      -3.074  -9.400  10.152  0.00  0.00    +0.000 A 
ATOM     14  C   UNL     1      -4.091  -8.695   9.516  0.00  0.00    +0.000 A 
ENDBRANCH   5   9
BRANCH   4  16
ATOM     15  N   UNL     1      -3.641 -11.565  14.505  0.00  0.00    +0.000 NA
ATOM     16  C   UNL     1      -4.783 -11.618  13.902  0.00  0.00    +0.000 C 
BRANCH  15  17
ATOM     17  O   UNL     1      -3.676 -10.506  15.431  0.00  0.00    +0.000 OA
BRANCH  17  18
ATOM     18  C   UNL     1      -3.338 -11.016  16.724  0.00  0.00    +0.000 C 
BRANCH  18  19
ATOM     19  C   UNL     1      -4.527 -11.008  17.654  0.00  0.00    +0.000 A 
ATOM     20  C   UNL     1      -5.670 -10.271  17.305  0.00  0.00    +0.000 A 
ATOM     21  C   UNL     1      -4.494 -11.644  18.902  0.00  0.00    +0.000 A 
ATOM     22  C   UNL     1      -6.754 -10.179  18.180  0.00  0.00    +0.000 A 
ATOM     23  C   UNL     1      -5.581 -11.554  19.776  0.00  0.00    +0.000 A 
ATOM     24  C   UNL     1      -6.708 -10.818  19.416  0.00  0.00    +0.000 A 
ENDBRANCH  18  19
ENDBRANCH  17  18
ENDBRANCH  15  17
ENDBRANCH   4  16
TORSDOF 5
ENDMDL
MODEL 10
REMARK VINA RESULT:      -4.5     13.457     16.103
REMARK  Name = 142505469
REMARK  5 active torsions:
REMARK  status: ('A' for Active; 'I' for Inactive)
REMARK    1  A    between atoms: O_2  and  N_5
REMARK    2  A    between atoms: O_2  and  C_19
REMARK    3  A    between atoms: C_6  and  C_11
REMARK    4  A    between atoms: C_7  and  C_9
REMARK    5  A    between atoms: C_18  and  C_19
REMARK                            x       y       z     vdW  Elec       q    Type
REMARK                         _______ _______ _______ _____ _____    ______ ____
ROOT
ATOM      1  S   UNL     1      23.680  -2.558  26.674  0.00  0.00    +0.000 S 
ATOM      2  N   UNL     1      21.202  -2.736  27.325  0.00  0.00    +0.000 N 
ATOM      3  N   UNL     1      21.341  -2.169  25.169  0.00  0.00    +0.000 NA
ATOM      4  C   UNL     1      19.902  -2.666  26.899  0.00  0.00    +0.000 A 
ATOM      5  C   UNL     1      20.013  -2.284  25.559  0.00  0.00    +0.000 A 
ATOM      6  C   UNL     1      21.998  -2.438  26.260  0.00  0.00    +0.000 A 
ATOM      7  C   UNL     1      21.876  -3.074  28.482  0.00  0.00    +0.000 A 
ATOM      8  C   UNL     1      23.208  -3.031  28.314  0.00  0.00    +0.000 A 
ENDROOT
BRANCH   5   9
ATOM      9  C   UNL     1      18.911  -2.060  24.631  0.00  0.00    +0.000 A 
ATOM     10  C   UNL     1      18.065  -0.960  24.821  0.00  0.00    +0.000 A 
ATOM     11  C   UNL     1      18.678  -2.905  23.535  0.00  0.00    +0.000 A 
ATOM     12  C   UNL     1      17.052  -0.674  23.901  0.00  0.00    +0.000 A 
ATOM     13  C   UNL     1      17.681  -2.608  22.605  0.00  0.00    +0.000 A 
ATOM     14  C   UNL     1      16.876  -1.487  22.782  0.00  0.00    +0.000 A 
ENDBRANCH   5   9
BRANCH   4  16
ATOM     15  N   UNL     1      18.422  -2.247  28.705  0.00  0.00    +0.000 NA
ATOM     16  C   UNL     1      18.740  -2.966  27.678  0.00  0.00    +0.000 C 
BRANCH  15  17
ATOM     17  O   UNL     1      17.204  -2.726  29.222  0.00  0.00    +0.000 OA
BRANCH  17  18
ATOM     18  C   UNL     1      17.273  -4.153  29.311  0.00  0.00    +0.000 C 
BRANCH  18  19
ATOM     19  C   UNL     1      16.063  -4.726  30.006  0.00  0.00    +0.000 A 
ATOM     20  C   UNL     1      15.512  -5.934  29.547  0.00  0.00    +0.000 A 
ATOM     21  C   UNL     1      15.415  -4.046  31.046  0.00  0.00    +0.000 A 
ATOM     22  C   UNL     1      14.346  -6.448  30.117  0.00  0.00    +0.000 A 
ATOM     23  C   UNL     1      14.251  -4.563  31.619  0.00  0.00    +0.000 A 
ATOM     24  C   UNL     1      13.715  -5.761  31.152  0.00  0.00    +0.000 A 
ENDBRANCH  18  19
ENDBRANCH  17  18
ENDBRANCH  15  17
ENDBRANCH   4  16
TORSDOF 5
ENDMDL
