MODEL 1
REMARK VINA RESULT:      -6.1      0.000      0.000
REMARK  Name = 142505454
REMARK  6 active torsions:
REMARK  status: ('A' for Active; 'I' for Inactive)
REMARK    1  A    between atoms: O_5  and  C_10
REMARK    2  A    between atoms: O_5  and  C_13
REMARK    3  A    between atoms: C_8  and  C_10
REMARK    4  A    between atoms: C_9  and  C_12
REMARK    5  A    between atoms: C_13  and  C_14
REMARK    6  A    between atoms: C_14  and  C_16
REMARK                            x       y       z     vdW  Elec       q    Type
REMARK                         _______ _______ _______ _____ _____    ______ ____
ROOT
ATOM      1  S   UNL     1     -18.787   6.826  33.297  0.00  0.00    +0.000 S 
ATOM      2  N   UNL     1     -16.592   5.641  33.917  0.00  0.00    +0.000 N 
ATOM      3  N   UNL     1     -16.139   7.739  33.334  0.00  0.00    +0.000 NA
ATOM      4  C   UNL     1     -15.221   5.744  34.030  0.00  0.00    +0.000 A 
ATOM      5  C   UNL     1     -14.957   7.066  33.641  0.00  0.00    +0.000 A 
ATOM      6  C   UNL     1     -17.066   6.852  33.518  0.00  0.00    +0.000 A 
ATOM      7  C   UNL     1     -17.555   4.660  34.057  0.00  0.00    +0.000 A 
ATOM      8  C   UNL     1     -18.785   5.119  33.763  0.00  0.00    +0.000 A 
ENDROOT
BRANCH   5  10
ATOM      9 CL   UNL     1      -9.791  10.107  33.158  0.00  0.00    +0.000 Cl
ATOM     10  C   UNL     1     -13.682   7.766  33.483  0.00  0.00    +0.000 A 
ATOM     11  C   UNL     1     -13.098   8.382  34.605  0.00  0.00    +0.000 A 
ATOM     12  C   UNL     1     -13.014   7.904  32.255  0.00  0.00    +0.000 A 
ATOM     13  C   UNL     1     -11.903   9.100  34.512  0.00  0.00    +0.000 A 
ATOM     14  C   UNL     1     -11.811   8.629  32.152  0.00  0.00    +0.000 A 
ATOM     15  C   UNL     1     -11.262   9.220  33.285  0.00  0.00    +0.000 A 
ENDBRANCH   5  10
BRANCH   4  16
ATOM     16  C   UNL     1     -14.397   4.566  34.397  0.00  0.00    +0.000 C 
BRANCH  16  17
ATOM     17  O   UNL     1     -14.423   3.624  33.315  0.00  0.00    +0.000 OA
BRANCH  17  18
ATOM     18  C   UNL     1     -13.541   4.049  32.271  0.00  0.00    +0.000 C 
BRANCH  18  19
ATOM     19  C   UNL     1     -13.403   3.073  31.092  0.00  0.00    +0.000 C 
BRANCH  19  22
ATOM     20 CL   UNL     1     -16.380   3.851  26.934  0.00  0.00    +0.000 Cl
ATOM     21 CL   UNL     1     -17.412   0.776  27.198  0.00  0.00    +0.000 Cl
ATOM     22  C   UNL     1     -14.589   2.569  30.294  0.00  0.00    +0.000 A 
ATOM     23  C   UNL     1     -15.056   3.349  29.215  0.00  0.00    +0.000 A 
ATOM     24  C   UNL     1     -15.089   1.271  30.425  0.00  0.00    +0.000 A 
ATOM     25  C   UNL     1     -15.943   2.832  28.264  0.00  0.00    +0.000 A 
ATOM     26  C   UNL     1     -15.989   0.754  29.478  0.00  0.00    +0.000 A 
ATOM     27  C   UNL     1     -16.397   1.521  28.384  0.00  0.00    +0.000 A 
ENDBRANCH  19  22
ENDBRANCH  18  19
ENDBRANCH  17  18
ENDBRANCH  16  17
ENDBRANCH   4  16
TORSDOF 6
ENDMDL
MODEL 2
REMARK VINA RESULT:      -5.8     20.987     23.753
REMARK  Name = 142505454
REMARK  6 active torsions:
REMARK  status: ('A' for Active; 'I' for Inactive)
REMARK    1  A    between atoms: O_5  and  C_10
REMARK    2  A    between atoms: O_5  and  C_13
REMARK    3  A    between atoms: C_8  and  C_10
REMARK    4  A    between atoms: C_9  and  C_12
REMARK    5  A    between atoms: C_13  and  C_14
REMARK    6  A    between atoms: C_14  and  C_16
REMARK                            x       y       z     vdW  Elec       q    Type
REMARK                         _______ _______ _______ _____ _____    ______ ____
ROOT
ATOM      1  S   UNL     1       2.929  16.325  17.078  0.00  0.00    +0.000 S 
ATOM      2  N   UNL     1       1.687  16.124  19.319  0.00  0.00    +0.000 N 
ATOM      3  N   UNL     1       0.196  16.387  17.690  0.00  0.00    +0.000 NA
ATOM      4  C   UNL     1       0.466  16.126  19.963  0.00  0.00    +0.000 A 
ATOM      5  C   UNL     1      -0.455  16.312  18.921  0.00  0.00    +0.000 A 
ATOM      6  C   UNL     1       1.451  16.267  17.988  0.00  0.00    +0.000 A 
ATOM      7  C   UNL     1       3.022  16.060  19.668  0.00  0.00    +0.000 A 
ATOM      8  C   UNL     1       3.826  16.155  18.594  0.00  0.00    +0.000 A 
ENDROOT
BRANCH   5  10
ATOM      9 CL   UNL     1      -6.413  17.021  19.330  0.00  0.00    +0.000 Cl
ATOM     10  C   UNL     1      -1.909  16.470  18.964  0.00  0.00    +0.000 A 
ATOM     11  C   UNL     1      -2.464  17.463  19.791  0.00  0.00    +0.000 A 
ATOM     12  C   UNL     1      -2.804  15.653  18.253  0.00  0.00    +0.000 A 
ATOM     13  C   UNL     1      -3.845  17.639  19.906  0.00  0.00    +0.000 A 
ATOM     14  C   UNL     1      -4.198  15.820  18.366  0.00  0.00    +0.000 A 
ATOM     15  C   UNL     1      -4.709  16.816  19.191  0.00  0.00    +0.000 A 
ENDBRANCH   5  10
BRANCH   4  16
ATOM     16  C   UNL     1       0.385  16.042  21.442  0.00  0.00    +0.000 C 
BRANCH  16  17
ATOM     17  O   UNL     1       0.504  14.668  21.839  0.00  0.00    +0.000 OA
BRANCH  17  18
ATOM     18  C   UNL     1       1.464  14.542  22.893  0.00  0.00    +0.000 C 
BRANCH  18  19
ATOM     19  C   UNL     1       1.821  15.851  23.614  0.00  0.00    +0.000 C 
BRANCH  19  22
ATOM     20 CL   UNL     1       6.817  15.152  22.470  0.00  0.00    +0.000 Cl
ATOM     21 CL   UNL     1       7.476  17.943  24.008  0.00  0.00    +0.000 Cl
ATOM     22  C   UNL     1       3.245  16.250  23.944  0.00  0.00    +0.000 A 
ATOM     23  C   UNL     1       4.303  15.556  23.319  0.00  0.00    +0.000 A 
ATOM     24  C   UNL     1       3.557  17.415  24.650  0.00  0.00    +0.000 A 
ATOM     25  C   UNL     1       5.615  16.040  23.345  0.00  0.00    +0.000 A 
ATOM     26  C   UNL     1       4.876  17.896  24.687  0.00  0.00    +0.000 A 
ATOM     27  C   UNL     1       5.901  17.227  24.016  0.00  0.00    +0.000 A 
ENDBRANCH  19  22
ENDBRANCH  18  19
ENDBRANCH  17  18
ENDBRANCH  16  17
ENDBRANCH   4  16
TORSDOF 6
ENDMDL
MODEL 3
REMARK VINA RESULT:      -5.6     21.619     23.964
REMARK  Name = 142505454
REMARK  6 active torsions:
REMARK  status: ('A' for Active; 'I' for Inactive)
REMARK    1  A    between atoms: O_5  and  C_10
REMARK    2  A    between atoms: O_5  and  C_13
REMARK    3  A    between atoms: C_8  and  C_10
REMARK    4  A    between atoms: C_9  and  C_12
REMARK    5  A    between atoms: C_13  and  C_14
REMARK    6  A    between atoms: C_14  and  C_16
REMARK                            x       y       z     vdW  Elec       q    Type
REMARK                         _______ _______ _______ _____ _____    ______ ____
ROOT
ATOM      1  S   UNL     1      -1.969  19.557  19.401  0.00  0.00    +0.000 S 
ATOM      2  N   UNL     1      -1.217  17.227  20.183  0.00  0.00    +0.000 N 
ATOM      3  N   UNL     1       0.521  18.279  19.277  0.00  0.00    +0.000 NA
ATOM      4  C   UNL     1      -0.180  16.321  20.270  0.00  0.00    +0.000 A 
ATOM      5  C   UNL     1       0.897  16.997  19.677  0.00  0.00    +0.000 A 
ATOM      6  C   UNL     1      -0.731  18.357  19.603  0.00  0.00    +0.000 A 
ATOM      7  C   UNL     1      -2.566  17.263  20.481  0.00  0.00    +0.000 A 
ATOM      8  C   UNL     1      -3.127  18.433  20.127  0.00  0.00    +0.000 A 
ENDROOT
BRANCH   5  10
ATOM      9 CL   UNL     1       6.418  14.905  18.532  0.00  0.00    +0.000 Cl
ATOM     10  C   UNL     1       2.261  16.543  19.403  0.00  0.00    +0.000 A 
ATOM     11  C   UNL     1       2.460  15.480  18.504  0.00  0.00    +0.000 A 
ATOM     12  C   UNL     1       3.401  17.080  20.024  0.00  0.00    +0.000 A 
ATOM     13  C   UNL     1       3.733  14.974  18.230  0.00  0.00    +0.000 A 
ATOM     14  C   UNL     1       4.688  16.574  19.757  0.00  0.00    +0.000 A 
ATOM     15  C   UNL     1       4.845  15.524  18.858  0.00  0.00    +0.000 A 
ENDBRANCH   5  10
BRANCH   4  16
ATOM     16  C   UNL     1      -0.403  14.958  20.810  0.00  0.00    +0.000 C 
BRANCH  16  17
ATOM     17  O   UNL     1       0.801  14.505  21.446  0.00  0.00    +0.000 OA
BRANCH  17  18
ATOM     18  C   UNL     1       0.893  15.047  22.768  0.00  0.00    +0.000 C 
BRANCH  18  19
ATOM     19  C   UNL     1       2.223  14.785  23.491  0.00  0.00    +0.000 C 
BRANCH  19  22
ATOM     20 CL   UNL     1       3.804  19.125  25.820  0.00  0.00    +0.000 Cl
ATOM     21 CL   UNL     1       6.828  18.467  24.816  0.00  0.00    +0.000 Cl
ATOM     22  C   UNL     1       3.327  15.819  23.589  0.00  0.00    +0.000 A 
ATOM     23  C   UNL     1       3.115  16.960  24.391  0.00  0.00    +0.000 A 
ATOM     24  C   UNL     1       4.622  15.585  23.118  0.00  0.00    +0.000 A 
ATOM     25  C   UNL     1       4.167  17.804  24.761  0.00  0.00    +0.000 A 
ATOM     26  C   UNL     1       5.678  16.438  23.480  0.00  0.00    +0.000 A 
ATOM     27  C   UNL     1       5.460  17.532  24.320  0.00  0.00    +0.000 A 
ENDBRANCH  19  22
ENDBRANCH  18  19
ENDBRANCH  17  18
ENDBRANCH  16  17
ENDBRANCH   4  16
TORSDOF 6
ENDMDL
MODEL 4
REMARK VINA RESULT:      -5.5      2.707      3.777
REMARK  Name = 142505454
REMARK  6 active torsions:
REMARK  status: ('A' for Active; 'I' for Inactive)
REMARK    1  A    between atoms: O_5  and  C_10
REMARK    2  A    between atoms: O_5  and  C_13
REMARK    3  A    between atoms: C_8  and  C_10
REMARK    4  A    between atoms: C_9  and  C_12
REMARK    5  A    between atoms: C_13  and  C_14
REMARK    6  A    between atoms: C_14  and  C_16
REMARK                            x       y       z     vdW  Elec       q    Type
REMARK                         _______ _______ _______ _____ _____    ______ ____
ROOT
ATOM      1  S   UNL     1     -20.966   5.619  35.768  0.00  0.00    +0.000 S 
ATOM      2  N   UNL     1     -19.908   5.013  33.505  0.00  0.00    +0.000 N 
ATOM      3  N   UNL     1     -18.421   6.137  34.719  0.00  0.00    +0.000 NA
ATOM      4  C   UNL     1     -18.794   5.101  32.695  0.00  0.00    +0.000 A 
ATOM      5  C   UNL     1     -17.879   5.828  33.471  0.00  0.00    +0.000 A 
ATOM      6  C   UNL     1     -19.612   5.629  34.681  0.00  0.00    +0.000 A 
ATOM      7  C   UNL     1     -21.196   4.521  33.417  0.00  0.00    +0.000 A 
ATOM      8  C   UNL     1     -21.902   4.760  34.536  0.00  0.00    +0.000 A 
ENDROOT
BRANCH   5  10
ATOM      9 CL   UNL     1     -12.303   7.787  32.360  0.00  0.00    +0.000 Cl
ATOM     10  C   UNL     1     -16.537   6.309  33.144  0.00  0.00    +0.000 A 
ATOM     11  C   UNL     1     -15.437   5.806  33.861  0.00  0.00    +0.000 A 
ATOM     12  C   UNL     1     -16.275   7.290  32.173  0.00  0.00    +0.000 A 
ATOM     13  C   UNL     1     -14.135   6.254  33.624  0.00  0.00    +0.000 A 
ATOM     14  C   UNL     1     -14.966   7.750  31.929  0.00  0.00    +0.000 A 
ATOM     15  C   UNL     1     -13.903   7.225  32.657  0.00  0.00    +0.000 A 
ENDBRANCH   5  10
BRANCH   4  16
ATOM     16  C   UNL     1     -18.816   4.568  31.311  0.00  0.00    +0.000 C 
BRANCH  16  17
ATOM     17  O   UNL     1     -18.921   5.663  30.391  0.00  0.00    +0.000 OA
BRANCH  17  18
ATOM     18  C   UNL     1     -18.301   5.322  29.146  0.00  0.00    +0.000 C 
BRANCH  18  19
ATOM     19  C   UNL     1     -16.767   5.415  29.132  0.00  0.00    +0.000 C 
BRANCH  19  22
ATOM     20 CL   UNL     1     -13.459   3.001  32.292  0.00  0.00    +0.000 Cl
ATOM     21 CL   UNL     1     -13.890   0.292  30.542  0.00  0.00    +0.000 Cl
ATOM     22  C   UNL     1     -15.865   4.211  29.311  0.00  0.00    +0.000 A 
ATOM     23  C   UNL     1     -15.029   4.156  30.446  0.00  0.00    +0.000 A 
ATOM     24  C   UNL     1     -15.991   3.053  28.538  0.00  0.00    +0.000 A 
ATOM     25  C   UNL     1     -14.390   2.973  30.832  0.00  0.00    +0.000 A 
ATOM     26  C   UNL     1     -15.341   1.867  28.918  0.00  0.00    +0.000 A 
ATOM     27  C   UNL     1     -14.562   1.816  30.076  0.00  0.00    +0.000 A 
ENDBRANCH  19  22
ENDBRANCH  18  19
ENDBRANCH  17  18
ENDBRANCH  16  17
ENDBRANCH   4  16
TORSDOF 6
ENDMDL
MODEL 5
REMARK VINA RESULT:      -5.4     22.610     25.135
REMARK  Name = 142505454
REMARK  6 active torsions:
REMARK  status: ('A' for Active; 'I' for Inactive)
REMARK    1  A    between atoms: O_5  and  C_10
REMARK    2  A    between atoms: O_5  and  C_13
REMARK    3  A    between atoms: C_8  and  C_10
REMARK    4  A    between atoms: C_9  and  C_12
REMARK    5  A    between atoms: C_13  and  C_14
REMARK    6  A    between atoms: C_14  and  C_16
REMARK                            x       y       z     vdW  Elec       q    Type
REMARK                         _______ _______ _______ _____ _____    ______ ____
ROOT
ATOM      1  S   UNL     1      -1.094  16.704  16.088  0.00  0.00    +0.000 S 
ATOM      2  N   UNL     1       1.181  15.838  16.912  0.00  0.00    +0.000 N 
ATOM      3  N   UNL     1       0.053  16.660  18.644  0.00  0.00    +0.000 NA
ATOM      4  C   UNL     1       2.030  15.675  17.988  0.00  0.00    +0.000 A 
ATOM      5  C   UNL     1       1.307  16.216  19.062  0.00  0.00    +0.000 A 
ATOM      6  C   UNL     1       0.036  16.408  17.372  0.00  0.00    +0.000 A 
ATOM      7  C   UNL     1       1.212  15.620  15.548  0.00  0.00    +0.000 A 
ATOM      8  C   UNL     1       0.078  16.027  14.949  0.00  0.00    +0.000 A 
ENDROOT
BRANCH   5  10
ATOM      9 CL   UNL     1       2.723  16.820  24.875  0.00  0.00    +0.000 Cl
ATOM     10  C   UNL     1       1.693  16.402  20.461  0.00  0.00    +0.000 A 
ATOM     11  C   UNL     1       1.632  15.304  21.338  0.00  0.00    +0.000 A 
ATOM     12  C   UNL     1       2.086  17.636  21.004  0.00  0.00    +0.000 A 
ATOM     13  C   UNL     1       1.949  15.425  22.693  0.00  0.00    +0.000 A 
ATOM     14  C   UNL     1       2.404  17.769  22.370  0.00  0.00    +0.000 A 
ATOM     15  C   UNL     1       2.335  16.658  23.205  0.00  0.00    +0.000 A 
ENDBRANCH   5  10
BRANCH   4  16
ATOM     16  C   UNL     1       3.395  15.125  17.804  0.00  0.00    +0.000 C 
BRANCH  16  17
ATOM     17  O   UNL     1       4.342  16.202  17.844  0.00  0.00    +0.000 OA
BRANCH  17  18
ATOM     18  C   UNL     1       5.530  15.789  18.527  0.00  0.00    +0.000 C 
BRANCH  18  19
ATOM     19  C   UNL     1       5.323  15.327  19.978  0.00  0.00    +0.000 C 
BRANCH  19  22
ATOM     20 CL   UNL     1       5.928  20.089  21.904  0.00  0.00    +0.000 Cl
ATOM     21 CL   UNL     1       6.068  18.780  24.880  0.00  0.00    +0.000 Cl
ATOM     22  C   UNL     1       5.767  16.142  21.176  0.00  0.00    +0.000 A 
ATOM     23  C   UNL     1       5.830  17.546  21.051  0.00  0.00    +0.000 A 
ATOM     24  C   UNL     1       5.889  15.595  22.456  0.00  0.00    +0.000 A 
ATOM     25  C   UNL     1       5.948  18.378  22.169  0.00  0.00    +0.000 A 
ATOM     26  C   UNL     1       6.019  16.429  23.579  0.00  0.00    +0.000 A 
ATOM     27  C   UNL     1       6.023  17.819  23.443  0.00  0.00    +0.000 A 
ENDBRANCH  19  22
ENDBRANCH  18  19
ENDBRANCH  17  18
ENDBRANCH  16  17
ENDBRANCH   4  16
TORSDOF 6
ENDMDL
MODEL 6
REMARK VINA RESULT:      -5.3      9.496     12.477
REMARK  Name = 142505454
REMARK  6 active torsions:
REMARK  status: ('A' for Active; 'I' for Inactive)
REMARK    1  A    between atoms: O_5  and  C_10
REMARK    2  A    between atoms: O_5  and  C_13
REMARK    3  A    between atoms: C_8  and  C_10
REMARK    4  A    between atoms: C_9  and  C_12
REMARK    5  A    between atoms: C_13  and  C_14
REMARK    6  A    between atoms: C_14  and  C_16
REMARK                            x       y       z     vdW  Elec       q    Type
REMARK                         _______ _______ _______ _____ _____    ______ ____
ROOT
ATOM      1  S   UNL     1     -19.876   4.520  19.274  0.00  0.00    +0.000 S 
ATOM      2  N   UNL     1     -17.589   5.249  20.194  0.00  0.00    +0.000 N 
ATOM      3  N   UNL     1     -18.631   4.031  21.735  0.00  0.00    +0.000 NA
ATOM      4  C   UNL     1     -16.717   5.223  21.263  0.00  0.00    +0.000 A 
ATOM      5  C   UNL     1     -17.401   4.468  22.227  0.00  0.00    +0.000 A 
ATOM      6  C   UNL     1     -18.684   4.518  20.536  0.00  0.00    +0.000 A 
ATOM      7  C   UNL     1     -17.651   5.834  18.943  0.00  0.00    +0.000 A 
ATOM      8  C   UNL     1     -18.805   5.551  18.313  0.00  0.00    +0.000 A 
ENDROOT
BRANCH   5  10
ATOM      9 CL   UNL     1     -15.966   2.893  27.851  0.00  0.00    +0.000 Cl
ATOM     10  C   UNL     1     -17.033   4.140  23.604  0.00  0.00    +0.000 A 
ATOM     11  C   UNL     1     -16.542   2.854  23.893  0.00  0.00    +0.000 A 
ATOM     12  C   UNL     1     -17.181   5.026  24.684  0.00  0.00    +0.000 A 
ATOM     13  C   UNL     1     -16.210   2.466  25.193  0.00  0.00    +0.000 A 
ATOM     14  C   UNL     1     -16.853   4.643  25.999  0.00  0.00    +0.000 A 
ATOM     15  C   UNL     1     -16.366   3.363  26.243  0.00  0.00    +0.000 A 
ENDBRANCH   5  10
BRANCH   4  16
ATOM     16  C   UNL     1     -15.442   5.980  21.224  0.00  0.00    +0.000 C 
BRANCH  16  17
ATOM     17  O   UNL     1     -14.356   5.079  21.478  0.00  0.00    +0.000 OA
BRANCH  17  18
ATOM     18  C   UNL     1     -13.127   5.805  21.581  0.00  0.00    +0.000 C 
BRANCH  18  19
ATOM     19  C   UNL     1     -13.269   7.335  21.583  0.00  0.00    +0.000 C 
BRANCH  19  22
ATOM     20 CL   UNL     1     -10.424   7.954  17.307  0.00  0.00    +0.000 Cl
ATOM     21 CL   UNL     1     -10.313  11.144  17.939  0.00  0.00    +0.000 Cl
ATOM     22  C   UNL     1     -12.324   8.254  20.833  0.00  0.00    +0.000 A 
ATOM     23  C   UNL     1     -11.711   7.776  19.656  0.00  0.00    +0.000 A 
ATOM     24  C   UNL     1     -12.215   9.617  21.119  0.00  0.00    +0.000 A 
ATOM     25  C   UNL     1     -11.065   8.637  18.763  0.00  0.00    +0.000 A 
ATOM     26  C   UNL     1     -11.556  10.482  20.229  0.00  0.00    +0.000 A 
ATOM     27  C   UNL     1     -11.004  10.001  19.040  0.00  0.00    +0.000 A 
ENDBRANCH  19  22
ENDBRANCH  18  19
ENDBRANCH  17  18
ENDBRANCH  16  17
ENDBRANCH   4  16
TORSDOF 6
ENDMDL
MODEL 7
REMARK VINA RESULT:      -5.2     28.713     32.344
REMARK  Name = 142505454
REMARK  6 active torsions:
REMARK  status: ('A' for Active; 'I' for Inactive)
REMARK    1  A    between atoms: O_5  and  C_10
REMARK    2  A    between atoms: O_5  and  C_13
REMARK    3  A    between atoms: C_8  and  C_10
REMARK    4  A    between atoms: C_9  and  C_12
REMARK    5  A    between atoms: C_13  and  C_14
REMARK    6  A    between atoms: C_14  and  C_16
REMARK                            x       y       z     vdW  Elec       q    Type
REMARK                         _______ _______ _______ _____ _____    ______ ____
ROOT
ATOM      1  S   UNL     1      -8.897 -10.430   3.223  0.00  0.00    +0.000 S 
ATOM      2  N   UNL     1      -7.286 -10.762   5.198  0.00  0.00    +0.000 N 
ATOM      3  N   UNL     1      -6.339 -11.564   3.352  0.00  0.00    +0.000 NA
ATOM      4  C   UNL     1      -6.066 -11.249   5.618  0.00  0.00    +0.000 A 
ATOM      5  C   UNL     1      -5.496 -11.766   4.445  0.00  0.00    +0.000 A 
ATOM      6  C   UNL     1      -7.373 -10.967   3.856  0.00  0.00    +0.000 A 
ATOM      7  C   UNL     1      -8.405 -10.186   5.769  0.00  0.00    +0.000 A 
ATOM      8  C   UNL     1      -9.365  -9.944   4.859  0.00  0.00    +0.000 A 
ENDROOT
BRANCH   5  10
ATOM      9 CL   UNL     1      -0.257 -14.657   3.846  0.00  0.00    +0.000 Cl
ATOM     10  C   UNL     1      -4.235 -12.480   4.243  0.00  0.00    +0.000 A 
ATOM     11  C   UNL     1      -3.697 -13.229   5.305  0.00  0.00    +0.000 A 
ATOM     12  C   UNL     1      -3.493 -12.431   3.052  0.00  0.00    +0.000 A 
ATOM     13  C   UNL     1      -2.478 -13.902   5.189  0.00  0.00    +0.000 A 
ATOM     14  C   UNL     1      -2.261 -13.103   2.926  0.00  0.00    +0.000 A 
ATOM     15  C   UNL     1      -1.763 -13.837   3.998  0.00  0.00    +0.000 A 
ENDBRANCH   5  10
BRANCH   4  16
ATOM     16  C   UNL     1      -5.689 -11.224   7.053  0.00  0.00    +0.000 C 
BRANCH  16  17
ATOM     17  O   UNL     1      -4.974 -10.011   7.327  0.00  0.00    +0.000 OA
BRANCH  17  18
ATOM     18  C   UNL     1      -5.275  -9.550   8.648  0.00  0.00    +0.000 C 
BRANCH  18  19
ATOM     19  C   UNL     1      -4.118  -8.849   9.376  0.00  0.00    +0.000 C 
BRANCH  19  22
ATOM     20 CL   UNL     1      -5.152 -11.293  13.816  0.00  0.00    +0.000 Cl
ATOM     21 CL   UNL     1      -1.958 -11.777  14.200  0.00  0.00    +0.000 Cl
ATOM     22  C   UNL     1      -3.549  -9.343  10.692  0.00  0.00    +0.000 A 
ATOM     23  C   UNL     1      -4.434  -9.879  11.651  0.00  0.00    +0.000 A 
ATOM     24  C   UNL     1      -2.178  -9.510  10.904  0.00  0.00    +0.000 A 
ATOM     25  C   UNL     1      -3.972 -10.608  12.751  0.00  0.00    +0.000 A 
ATOM     26  C   UNL     1      -1.711 -10.232  12.015  0.00  0.00    +0.000 A 
ATOM     27  C   UNL     1      -2.603 -10.804  12.925  0.00  0.00    +0.000 A 
ENDBRANCH  19  22
ENDBRANCH  18  19
ENDBRANCH  17  18
ENDBRANCH  16  17
ENDBRANCH   4  16
TORSDOF 6
ENDMDL
MODEL 8
REMARK VINA RESULT:      -5.1     39.975     41.814
REMARK  Name = 142505454
REMARK  6 active torsions:
REMARK  status: ('A' for Active; 'I' for Inactive)
REMARK    1  A    between atoms: O_5  and  C_10
REMARK    2  A    between atoms: O_5  and  C_13
REMARK    3  A    between atoms: C_8  and  C_10
REMARK    4  A    between atoms: C_9  and  C_12
REMARK    5  A    between atoms: C_13  and  C_14
REMARK    6  A    between atoms: C_14  and  C_16
REMARK                            x       y       z     vdW  Elec       q    Type
REMARK                         _______ _______ _______ _____ _____    ______ ____
ROOT
ATOM      1  S   UNL     1      14.395   9.867  -0.138  0.00  0.00    +0.000 S 
ATOM      2  N   UNL     1      14.601   7.388   0.508  0.00  0.00    +0.000 N 
ATOM      3  N   UNL     1      13.121   7.583  -1.141  0.00  0.00    +0.000 NA
ATOM      4  C   UNL     1      14.166   6.099   0.277  0.00  0.00    +0.000 A 
ATOM      5  C   UNL     1      13.222   6.248  -0.750  0.00  0.00    +0.000 A 
ATOM      6  C   UNL     1      13.957   8.204  -0.369  0.00  0.00    +0.000 A 
ATOM      7  C   UNL     1      15.449   8.036   1.385  0.00  0.00    +0.000 A 
ATOM      8  C   UNL     1      15.460   9.366   1.184  0.00  0.00    +0.000 A 
ENDROOT
BRANCH   5  10
ATOM      9 CL   UNL     1       9.850   2.115  -3.526  0.00  0.00    +0.000 Cl
ATOM     10  C   UNL     1      12.358   5.256  -1.389  0.00  0.00    +0.000 A 
ATOM     11  C   UNL     1      12.926   4.062  -1.868  0.00  0.00    +0.000 A 
ATOM     12  C   UNL     1      10.981   5.441  -1.597  0.00  0.00    +0.000 A 
ATOM     13  C   UNL     1      12.161   3.093  -2.522  0.00  0.00    +0.000 A 
ATOM     14  C   UNL     1      10.203   4.471  -2.259  0.00  0.00    +0.000 A 
ATOM     15  C   UNL     1      10.800   3.300  -2.716  0.00  0.00    +0.000 A 
ENDBRANCH   5  10
BRANCH   4  16
ATOM     16  C   UNL     1      14.644   4.973   1.116  0.00  0.00    +0.000 C 
BRANCH  16  17
ATOM     17  O   UNL     1      13.627   4.636   2.070  0.00  0.00    +0.000 OA
BRANCH  17  18
ATOM     18  C   UNL     1      12.993   3.407   1.700  0.00  0.00    +0.000 C 
BRANCH  18  19
ATOM     19  C   UNL     1      11.523   3.274   2.127  0.00  0.00    +0.000 C 
BRANCH  19  22
ATOM     20 CL   UNL     1       9.959   5.820   6.350  0.00  0.00    +0.000 Cl
ATOM     21 CL   UNL     1       9.203   8.349   4.447  0.00  0.00    +0.000 Cl
ATOM     22  C   UNL     1      10.707   4.439   2.652  0.00  0.00    +0.000 A 
ATOM     23  C   UNL     1      10.533   4.566   4.047  0.00  0.00    +0.000 A 
ATOM     24  C   UNL     1      10.321   5.513   1.846  0.00  0.00    +0.000 A 
ATOM     25  C   UNL     1      10.049   5.745   4.622  0.00  0.00    +0.000 A 
ATOM     26  C   UNL     1       9.824   6.694   2.422  0.00  0.00    +0.000 A 
ATOM     27  C   UNL     1       9.711   6.824   3.807  0.00  0.00    +0.000 A 
ENDBRANCH  19  22
ENDBRANCH  18  19
ENDBRANCH  17  18
ENDBRANCH  16  17
ENDBRANCH   4  16
TORSDOF 6
ENDMDL
MODEL 9
REMARK VINA RESULT:      -5.1     31.484     34.097
REMARK  Name = 142505454
REMARK  6 active torsions:
REMARK  status: ('A' for Active; 'I' for Inactive)
REMARK    1  A    between atoms: O_5  and  C_10
REMARK    2  A    between atoms: O_5  and  C_13
REMARK    3  A    between atoms: C_8  and  C_10
REMARK    4  A    between atoms: C_9  and  C_12
REMARK    5  A    between atoms: C_13  and  C_14
REMARK    6  A    between atoms: C_14  and  C_16
REMARK                            x       y       z     vdW  Elec       q    Type
REMARK                         _______ _______ _______ _____ _____    ______ ____
ROOT
ATOM      1  S   UNL     1      16.184  14.593  12.794  0.00  0.00    +0.000 S 
ATOM      2  N   UNL     1      15.380  12.409  13.885  0.00  0.00    +0.000 N 
ATOM      3  N   UNL     1      16.218  13.737  15.461  0.00  0.00    +0.000 NA
ATOM      4  C   UNL     1      15.257  11.683  15.052  0.00  0.00    +0.000 A 
ATOM      5  C   UNL     1      15.808  12.529  16.026  0.00  0.00    +0.000 A 
ATOM      6  C   UNL     1      15.938  13.608  14.202  0.00  0.00    +0.000 A 
ATOM      7  C   UNL     1      15.133  12.224  12.538  0.00  0.00    +0.000 A 
ATOM      8  C   UNL     1      15.504  13.290  11.808  0.00  0.00    +0.000 A 
ENDROOT
BRANCH   5  10
ATOM      9 CL   UNL     1      16.492  11.556  21.921  0.00  0.00    +0.000 Cl
ATOM     10  C   UNL     1      16.031  12.305  17.454  0.00  0.00    +0.000 A 
ATOM     11  C   UNL     1      15.284  11.314  18.115  0.00  0.00    +0.000 A 
ATOM     12  C   UNL     1      16.929  13.057  18.231  0.00  0.00    +0.000 A 
ATOM     13  C   UNL     1      15.423  11.077  19.485  0.00  0.00    +0.000 A 
ATOM     14  C   UNL     1      17.072  12.828  19.613  0.00  0.00    +0.000 A 
ATOM     15  C   UNL     1      16.318  11.835  20.231  0.00  0.00    +0.000 A 
ENDBRANCH   5  10
BRANCH   4  16
ATOM     16  C   UNL     1      14.730  10.297  15.034  0.00  0.00    +0.000 C 
BRANCH  16  17
ATOM     17  O   UNL     1      13.301  10.339  15.163  0.00  0.00    +0.000 OA
BRANCH  17  18
ATOM     18  C   UNL     1      12.818   9.102  15.696  0.00  0.00    +0.000 C 
BRANCH  18  19
ATOM     19  C   UNL     1      12.026   9.218  17.007  0.00  0.00    +0.000 C 
BRANCH  19  22
ATOM     20 CL   UNL     1      15.767   6.520  19.350  0.00  0.00    +0.000 Cl
ATOM     21 CL   UNL     1      14.732   7.712  22.196  0.00  0.00    +0.000 Cl
ATOM     22  C   UNL     1      12.520   8.652  18.323  0.00  0.00    +0.000 A 
ATOM     23  C   UNL     1      13.654   7.812  18.314  0.00  0.00    +0.000 A 
ATOM     24  C   UNL     1      12.055   9.106  19.561  0.00  0.00    +0.000 A 
ATOM     25  C   UNL     1      14.337   7.487  19.491  0.00  0.00    +0.000 A 
ATOM     26  C   UNL     1      12.733   8.770  20.745  0.00  0.00    +0.000 A 
ATOM     27  C   UNL     1      13.886   7.984  20.712  0.00  0.00    +0.000 A 
ENDBRANCH  19  22
ENDBRANCH  18  19
ENDBRANCH  17  18
ENDBRANCH  16  17
ENDBRANCH   4  16
TORSDOF 6
ENDMDL
MODEL 10
REMARK VINA RESULT:      -5.0     34.452     36.062
REMARK  Name = 142505454
REMARK  6 active torsions:
REMARK  status: ('A' for Active; 'I' for Inactive)
REMARK    1  A    between atoms: O_5  and  C_10
REMARK    2  A    between atoms: O_5  and  C_13
REMARK    3  A    between atoms: C_8  and  C_10
REMARK    4  A    between atoms: C_9  and  C_12
REMARK    5  A    between atoms: C_13  and  C_14
REMARK    6  A    between atoms: C_14  and  C_16
REMARK                            x       y       z     vdW  Elec       q    Type
REMARK                         _______ _______ _______ _____ _____    ______ ____
ROOT
ATOM      1  S   UNL     1      10.991  12.516   3.961  0.00  0.00    +0.000 S 
ATOM      2  N   UNL     1      10.689  10.586   5.631  0.00  0.00    +0.000 N 
ATOM      3  N   UNL     1      10.275  12.509   6.669  0.00  0.00    +0.000 NA
ATOM      4  C   UNL     1      10.390  10.223   6.928  0.00  0.00    +0.000 A 
ATOM      5  C   UNL     1      10.152  11.449   7.567  0.00  0.00    +0.000 A 
ATOM      6  C   UNL     1      10.589  11.940   5.548  0.00  0.00    +0.000 A 
ATOM      7  C   UNL     1      11.087   9.962   4.464  0.00  0.00    +0.000 A 
ATOM      8  C   UNL     1      11.295  10.843   3.469  0.00  0.00    +0.000 A 
ENDROOT
BRANCH   5  10
ATOM      9 CL   UNL     1       9.090  12.478  13.395  0.00  0.00    +0.000 Cl
ATOM     10  C   UNL     1       9.854  11.740   8.969  0.00  0.00    +0.000 A 
ATOM     11  C   UNL     1      10.888  11.653   9.919  0.00  0.00    +0.000 A 
ATOM     12  C   UNL     1       8.573  12.066   9.443  0.00  0.00    +0.000 A 
ATOM     13  C   UNL     1      10.660  11.880  11.279  0.00  0.00    +0.000 A 
ATOM     14  C   UNL     1       8.333  12.294  10.812  0.00  0.00    +0.000 A 
ATOM     15  C   UNL     1       9.382  12.201  11.722  0.00  0.00    +0.000 A 
ENDBRANCH   5  10
BRANCH   4  16
ATOM     16  C   UNL     1      10.467   8.805   7.358  0.00  0.00    +0.000 C 
BRANCH  16  17
ATOM     17  O   UNL     1       9.220   8.433   7.963  0.00  0.00    +0.000 OA
BRANCH  17  18
ATOM     18  C   UNL     1       8.414   7.713   7.025  0.00  0.00    +0.000 C 
BRANCH  18  19
ATOM     19  C   UNL     1       8.925   6.310   6.663  0.00  0.00    +0.000 C 
BRANCH  19  22
ATOM     20 CL   UNL     1       9.299   7.862   1.743  0.00  0.00    +0.000 Cl
ATOM     21 CL   UNL     1      11.295   5.353   1.187  0.00  0.00    +0.000 Cl
ATOM     22  C   UNL     1       9.313   5.910   5.253  0.00  0.00    +0.000 A 
ATOM     23  C   UNL     1       9.049   6.810   4.200  0.00  0.00    +0.000 A 
ATOM     24  C   UNL     1      10.125   4.805   4.980  0.00  0.00    +0.000 A 
ATOM     25  C   UNL     1       9.624   6.648   2.934  0.00  0.00    +0.000 A 
ATOM     26  C   UNL     1      10.693   4.636   3.707  0.00  0.00    +0.000 A 
ATOM     27  C   UNL     1      10.467   5.567   2.691  0.00  0.00    +0.000 A 
ENDBRANCH  19  22
ENDBRANCH  18  19
ENDBRANCH  17  18
ENDBRANCH  16  17
ENDBRANCH   4  16
TORSDOF 6
ENDMDL
