REMARK  Name = 142505419
REMARK  5 active torsions:
REMARK  status: ('A' for Active; 'I' for Inactive)
REMARK    1  A    between atoms: O_4  and  N_7
REMARK    2  A    between atoms: O_4  and  C_24
REMARK    3  A    between atoms: C_8  and  C_9
REMARK    4  A    between atoms: C_10  and  C_18
REMARK    5  A    between atoms: C_24  and  C_25
REMARK                            x       y       z     vdW  Elec       q    Type
REMARK                         _______ _______ _______ _____ _____    ______ ____
ROOT
ATOM      1  S   UNL     1      -4.592   2.084  -8.447  0.00  0.00    +0.000 S 
ATOM      2  N   UNL     1      -4.794   1.557  -5.944  0.00  0.00    +0.000 N 
ATOM      3  N   UNL     1      -2.720   1.077  -6.613  0.00  0.00    +0.000 NA
ATOM      4  C   UNL     1      -2.874   0.790  -5.260  0.00  0.00    +0.000 A 
ATOM      5  C   UNL     1      -4.175   1.072  -4.821  0.00  0.00    +0.000 A 
ATOM      6  C   UNL     1      -3.888   1.535  -6.958  0.00  0.00    +0.000 A 
ATOM      7  C   UNL     1      -6.059   1.982  -6.294  0.00  0.00    +0.000 A 
ATOM      8  C   UNL     1      -6.131   2.303  -7.597  0.00  0.00    +0.000 A 
ENDROOT
BRANCH   4   9
ATOM      9  C   UNL     1      -1.776   0.239  -4.474  0.00  0.00    +0.000 A 
ATOM     10  C   UNL     1       0.187  -1.220  -4.347  0.00  0.00    +0.000 A 
ATOM     11  C   UNL     1      -0.860  -0.632  -5.081  0.00  0.00    +0.000 A 
ATOM     12  C   UNL     1       0.316  -0.929  -2.971  0.00  0.00    +0.000 A 
ATOM     13  C   UNL     1      -1.600   0.555  -3.122  0.00  0.00    +0.000 A 
ATOM     14  C   UNL     1      -0.586  -0.043  -2.371  0.00  0.00    +0.000 A 
ATOM     15  C   UNL     1       1.110  -2.095  -4.946  0.00  0.00    +0.000 A 
ATOM     16  C   UNL     1       1.346  -1.523  -2.225  0.00  0.00    +0.000 A 
ATOM     17  C   UNL     1       2.137  -2.669  -4.195  0.00  0.00    +0.000 A 
ATOM     18  C   UNL     1       2.255  -2.387  -2.839  0.00  0.00    +0.000 A 
ENDBRANCH   4   9
BRANCH   5  20
ATOM     19  N   UNL     1      -4.472  -0.116  -2.812  0.00  0.00    +0.000 NA
ATOM     20  C   UNL     1      -4.827   0.871  -3.561  0.00  0.00    +0.000 C 
BRANCH  19  21
ATOM     21  O   UNL     1      -5.217  -0.137  -1.629  0.00  0.00    +0.000 OA
BRANCH  21  22
ATOM     22  C   UNL     1      -4.974  -1.401  -1.003  0.00  0.00    +0.000 C 
BRANCH  22  25
ATOM     23 CL   UNL     1      -5.766   0.259   3.862  0.00  0.00    +0.000 Cl
ATOM     24 CL   UNL     1      -8.400  -1.650   3.959  0.00  0.00    +0.000 Cl
ATOM     25  C   UNL     1      -5.782  -1.486   0.263  0.00  0.00    +0.000 A 
ATOM     26  C   UNL     1      -5.454  -0.696   1.374  0.00  0.00    +0.000 A 
ATOM     27  C   UNL     1      -6.887  -2.342   0.336  0.00  0.00    +0.000 A 
ATOM     28  C   UNL     1      -6.236  -0.742   2.533  0.00  0.00    +0.000 A 
ATOM     29  C   UNL     1      -7.671  -2.388   1.490  0.00  0.00    +0.000 A 
ATOM     30  C   UNL     1      -7.356  -1.578   2.585  0.00  0.00    +0.000 A 
ENDBRANCH  22  25
ENDBRANCH  21  22
ENDBRANCH  19  21
ENDBRANCH   5  20
TORSDOF 5
