MODEL 1
REMARK VINA RESULT:      -6.5      0.000      0.000
REMARK  Name = 142505500
REMARK  6 active torsions:
REMARK  status: ('A' for Active; 'I' for Inactive)
REMARK    1  A    between atoms: O_7  and  N_10
REMARK    2  A    between atoms: O_7  and  C_25
REMARK    3  A    between atoms: C_11  and  C_13
REMARK    4  A    between atoms: C_12  and  C_18
REMARK    5  A    between atoms: C_19  and  C_23
REMARK    6  A    between atoms: C_24  and  C_25
REMARK                            x       y       z     vdW  Elec       q    Type
REMARK                         _______ _______ _______ _____ _____    ______ ____
ROOT
ATOM      1  S   UNL     1       5.305  11.297   2.305  0.00  0.00    +0.000 S 
ATOM      2  N   UNL     1       7.455   9.906   2.150  0.00  0.00    +0.000 N 
ATOM      3  N   UNL     1       6.534   9.584   4.157  0.00  0.00    +0.000 NA
ATOM      4  C   UNL     1       7.721   8.863   4.042  0.00  0.00    +0.000 A 
ATOM      5  C   UNL     1       8.325   9.065   2.794  0.00  0.00    +0.000 A 
ATOM      6  C   UNL     1       6.432  10.177   3.003  0.00  0.00    +0.000 A 
ATOM      7  C   UNL     1       7.401  10.565   0.938  0.00  0.00    +0.000 A 
ATOM      8  C   UNL     1       6.316  11.352   0.851  0.00  0.00    +0.000 A 
ENDROOT
BRANCH   4   9
ATOM      9  C   UNL     1       8.225   8.046   5.142  0.00  0.00    +0.000 A 
ATOM     10  C   UNL     1       8.651   8.608   6.353  0.00  0.00    +0.000 A 
ATOM     11  C   UNL     1       8.293   6.654   4.995  0.00  0.00    +0.000 A 
ATOM     12  C   UNL     1       9.118   6.410   7.273  0.00  0.00    +0.000 A 
ATOM     13  C   UNL     1       9.067   7.800   7.416  0.00  0.00    +0.000 A 
ATOM     14  C   UNL     1       8.736   5.844   6.048  0.00  0.00    +0.000 A 
BRANCH  12  18
ATOM     15  F   UNL     1      10.808   5.888   8.900  0.00  0.00    +0.000 F 
ATOM     16  F   UNL     1       8.740   5.553   9.473  0.00  0.00    +0.000 F 
ATOM     17  F   UNL     1       9.701   4.225   8.044  0.00  0.00    +0.000 F 
ATOM     18  C   UNL     1       9.588   5.533   8.407  0.00  0.00    +0.000 C 
ENDBRANCH  12  18
ENDBRANCH   4   9
BRANCH   5  20
ATOM     19  N   UNL     1       9.662   7.425   1.782  0.00  0.00    +0.000 NA
ATOM     20  C   UNL     1       9.573   8.624   2.250  0.00  0.00    +0.000 C 
BRANCH  19  21
ATOM     21  O   UNL     1      10.941   7.179   1.279  0.00  0.00    +0.000 OA
BRANCH  21  22
ATOM     22  C   UNL     1      11.307   5.864   1.712  0.00  0.00    +0.000 C 
BRANCH  22  25
ATOM     23 CL   UNL     1       9.780   4.289  -3.021  0.00  0.00    +0.000 Cl
ATOM     24 CL   UNL     1      12.314   2.246  -3.014  0.00  0.00    +0.000 Cl
ATOM     25  C   UNL     1      11.450   4.900   0.560  0.00  0.00    +0.000 A 
ATOM     26  C   UNL     1      10.614   4.962  -0.564  0.00  0.00    +0.000 A 
ATOM     27  C   UNL     1      12.513   3.986   0.568  0.00  0.00    +0.000 A 
ATOM     28  C   UNL     1      10.848   4.139  -1.670  0.00  0.00    +0.000 A 
ATOM     29  C   UNL     1      12.749   3.166  -0.536  0.00  0.00    +0.000 A 
ATOM     30  C   UNL     1      11.927   3.249  -1.662  0.00  0.00    +0.000 A 
ENDBRANCH  22  25
ENDBRANCH  21  22
ENDBRANCH  19  21
ENDBRANCH   5  20
TORSDOF 6
ENDMDL
MODEL 2
REMARK VINA RESULT:      -6.4     18.846     21.904
REMARK  Name = 142505500
REMARK  6 active torsions:
REMARK  status: ('A' for Active; 'I' for Inactive)
REMARK    1  A    between atoms: O_7  and  N_10
REMARK    2  A    between atoms: O_7  and  C_25
REMARK    3  A    between atoms: C_11  and  C_13
REMARK    4  A    between atoms: C_12  and  C_18
REMARK    5  A    between atoms: C_19  and  C_23
REMARK    6  A    between atoms: C_24  and  C_25
REMARK                            x       y       z     vdW  Elec       q    Type
REMARK                         _______ _______ _______ _____ _____    ______ ____
ROOT
ATOM      1  S   UNL     1      13.176  15.131  26.733  0.00  0.00    +0.000 S 
ATOM      2  N   UNL     1      11.269  14.763  25.057  0.00  0.00    +0.000 N 
ATOM      3  N   UNL     1      12.722  13.079  24.874  0.00  0.00    +0.000 NA
ATOM      4  C   UNL     1      11.680  12.929  23.961  0.00  0.00    +0.000 A 
ATOM      5  C   UNL     1      10.765  13.986  24.048  0.00  0.00    +0.000 A 
ATOM      6  C   UNL     1      12.417  14.181  25.495  0.00  0.00    +0.000 A 
ATOM      7  C   UNL     1      10.950  15.964  25.661  0.00  0.00    +0.000 A 
ATOM      8  C   UNL     1      11.863  16.311  26.583  0.00  0.00    +0.000 A 
ENDROOT
BRANCH   4   9
ATOM      9  C   UNL     1      11.636  11.798  23.037  0.00  0.00    +0.000 A 
ATOM     10  C   UNL     1      10.905  10.636  23.317  0.00  0.00    +0.000 A 
ATOM     11  C   UNL     1      12.344  11.863  21.830  0.00  0.00    +0.000 A 
ATOM     12  C   UNL     1      11.518   9.668  21.176  0.00  0.00    +0.000 A 
ATOM     13  C   UNL     1      10.824   9.594  22.388  0.00  0.00    +0.000 A 
ATOM     14  C   UNL     1      12.288  10.810  20.909  0.00  0.00    +0.000 A 
BRANCH  12  18
ATOM     15  F   UNL     1      11.362   7.307  20.756  0.00  0.00    +0.000 F 
ATOM     16  F   UNL     1      10.382   8.635  19.343  0.00  0.00    +0.000 F 
ATOM     17  F   UNL     1      12.552   8.489  19.373  0.00  0.00    +0.000 F 
ATOM     18  C   UNL     1      11.454   8.538  20.178  0.00  0.00    +0.000 C 
ENDBRANCH  12  18
ENDBRANCH   4   9
BRANCH   5  20
ATOM     19  N   UNL     1       9.760  14.970  22.171  0.00  0.00    +0.000 NA
ATOM     20  C   UNL     1       9.608  14.319  23.274  0.00  0.00    +0.000 C 
BRANCH  19  21
ATOM     21  O   UNL     1       8.531  15.189  21.546  0.00  0.00    +0.000 OA
BRANCH  21  22
ATOM     22  C   UNL     1       7.521  14.951  22.532  0.00  0.00    +0.000 C 
BRANCH  22  25
ATOM     23 CL   UNL     1       4.199  16.194  18.706  0.00  0.00    +0.000 Cl
ATOM     24 CL   UNL     1       1.928  16.628  20.998  0.00  0.00    +0.000 Cl
ATOM     25  C   UNL     1       6.172  15.481  22.110  0.00  0.00    +0.000 A 
ATOM     26  C   UNL     1       5.834  15.649  20.760  0.00  0.00    +0.000 A 
ATOM     27  C   UNL     1       5.196  15.712  23.089  0.00  0.00    +0.000 A 
ATOM     28  C   UNL     1       4.537  16.023  20.393  0.00  0.00    +0.000 A 
ATOM     29  C   UNL     1       3.902  16.083  22.725  0.00  0.00    +0.000 A 
ATOM     30  C   UNL     1       3.564  16.226  21.378  0.00  0.00    +0.000 A 
ENDBRANCH  22  25
ENDBRANCH  21  22
ENDBRANCH  19  21
ENDBRANCH   5  20
TORSDOF 6
ENDMDL
MODEL 3
REMARK VINA RESULT:      -6.4     36.282     38.737
REMARK  Name = 142505500
REMARK  6 active torsions:
REMARK  status: ('A' for Active; 'I' for Inactive)
REMARK    1  A    between atoms: O_7  and  N_10
REMARK    2  A    between atoms: O_7  and  C_25
REMARK    3  A    between atoms: C_11  and  C_13
REMARK    4  A    between atoms: C_12  and  C_18
REMARK    5  A    between atoms: C_19  and  C_23
REMARK    6  A    between atoms: C_24  and  C_25
REMARK                            x       y       z     vdW  Elec       q    Type
REMARK                         _______ _______ _______ _____ _____    ______ ____
ROOT
ATOM      1  S   UNL     1      -2.118  12.921  34.626  0.00  0.00    +0.000 S 
ATOM      2  N   UNL     1      -3.351  11.864  36.611  0.00  0.00    +0.000 N 
ATOM      3  N   UNL     1      -1.496  10.690  36.210  0.00  0.00    +0.000 NA
ATOM      4  C   UNL     1      -2.210  10.132  37.269  0.00  0.00    +0.000 A 
ATOM      5  C   UNL     1      -3.388  10.845  37.527  0.00  0.00    +0.000 A 
ATOM      6  C   UNL     1      -2.223  11.714  35.868  0.00  0.00    +0.000 A 
ATOM      7  C   UNL     1      -4.170  12.911  36.235  0.00  0.00    +0.000 A 
ATOM      8  C   UNL     1      -3.662  13.583  35.188  0.00  0.00    +0.000 A 
ENDROOT
BRANCH   4   9
ATOM      9  C   UNL     1      -1.739   8.932  37.955  0.00  0.00    +0.000 A 
ATOM     10  C   UNL     1      -2.306   7.672  37.725  0.00  0.00    +0.000 A 
ATOM     11  C   UNL     1      -0.690   9.029  38.878  0.00  0.00    +0.000 A 
ATOM     12  C   UNL     1      -0.735   6.623  39.251  0.00  0.00    +0.000 A 
ATOM     13  C   UNL     1      -1.795   6.527  38.343  0.00  0.00    +0.000 A 
ATOM     14  C   UNL     1      -0.193   7.888  39.521  0.00  0.00    +0.000 A 
BRANCH  12  18
ATOM     15  F   UNL     1       0.893   4.858  39.319  0.00  0.00    +0.000 F 
ATOM     16  F   UNL     1       0.201   5.644  41.222  0.00  0.00    +0.000 F 
ATOM     17  F   UNL     1      -1.111   4.393  40.020  0.00  0.00    +0.000 F 
ATOM     18  C   UNL     1      -0.193   5.396  39.941  0.00  0.00    +0.000 C 
ENDBRANCH  12  18
ENDBRANCH   4   9
BRANCH   5  20
ATOM     19  N   UNL     1      -5.295   9.650  38.187  0.00  0.00    +0.000 NA
ATOM     20  C   UNL     1      -4.471  10.612  38.433  0.00  0.00    +0.000 C 
BRANCH  19  21
ATOM     21  O   UNL     1      -6.271   9.562  39.182  0.00  0.00    +0.000 OA
BRANCH  21  22
ATOM     22  C   UNL     1      -5.608   9.797  40.429  0.00  0.00    +0.000 C 
BRANCH  22  25
ATOM     23 CL   UNL     1      -7.254   5.690  43.194  0.00  0.00    +0.000 Cl
ATOM     24 CL   UNL     1      -4.259   4.453  42.891  0.00  0.00    +0.000 Cl
ATOM     25  C   UNL     1      -5.288   8.515  41.158  0.00  0.00    +0.000 A 
ATOM     26  C   UNL     1      -6.275   7.782  41.833  0.00  0.00    +0.000 A 
ATOM     27  C   UNL     1      -3.991   7.990  41.072  0.00  0.00    +0.000 A 
ATOM     28  C   UNL     1      -5.976   6.536  42.394  0.00  0.00    +0.000 A 
ATOM     29  C   UNL     1      -3.692   6.747  41.629  0.00  0.00    +0.000 A 
ATOM     30  C   UNL     1      -4.685   6.010  42.278  0.00  0.00    +0.000 A 
ENDBRANCH  22  25
ENDBRANCH  21  22
ENDBRANCH  19  21
ENDBRANCH   5  20
TORSDOF 6
ENDMDL
MODEL 4
REMARK VINA RESULT:      -6.4     18.436     20.938
REMARK  Name = 142505500
REMARK  6 active torsions:
REMARK  status: ('A' for Active; 'I' for Inactive)
REMARK    1  A    between atoms: O_7  and  N_10
REMARK    2  A    between atoms: O_7  and  C_25
REMARK    3  A    between atoms: C_11  and  C_13
REMARK    4  A    between atoms: C_12  and  C_18
REMARK    5  A    between atoms: C_19  and  C_23
REMARK    6  A    between atoms: C_24  and  C_25
REMARK                            x       y       z     vdW  Elec       q    Type
REMARK                         _______ _______ _______ _____ _____    ______ ____
ROOT
ATOM      1  S   UNL     1      12.242  16.062  26.830  0.00  0.00    +0.000 S 
ATOM      2  N   UNL     1      11.780  14.216  25.110  0.00  0.00    +0.000 N 
ATOM      3  N   UNL     1      10.451  15.955  24.673  0.00  0.00    +0.000 NA
ATOM      4  C   UNL     1      10.213  14.918  23.773  0.00  0.00    +0.000 A 
ATOM      5  C   UNL     1      11.026  13.809  24.041  0.00  0.00    +0.000 A 
ATOM      6  C   UNL     1      11.392  15.478  25.435  0.00  0.00    +0.000 A 
ATOM      7  C   UNL     1      12.739  13.663  25.937  0.00  0.00    +0.000 A 
ATOM      8  C   UNL     1      13.100  14.514  26.911  0.00  0.00    +0.000 A 
ENDROOT
BRANCH   4   9
ATOM      9  C   UNL     1       9.201  15.036  22.727  0.00  0.00    +0.000 A 
ATOM     10  C   UNL     1       7.830  15.053  23.015  0.00  0.00    +0.000 A 
ATOM     11  C   UNL     1       9.599  15.131  21.387  0.00  0.00    +0.000 A 
ATOM     12  C   UNL     1       7.282  15.347  20.668  0.00  0.00    +0.000 A 
ATOM     13  C   UNL     1       6.882  15.233  22.004  0.00  0.00    +0.000 A 
ATOM     14  C   UNL     1       8.651  15.284  20.367  0.00  0.00    +0.000 A 
BRANCH  12  18
ATOM     15  F   UNL     1       6.268  16.763  19.013  0.00  0.00    +0.000 F 
ATOM     16  F   UNL     1       6.460  14.653  18.533  0.00  0.00    +0.000 F 
ATOM     17  F   UNL     1       4.990  15.306  19.997  0.00  0.00    +0.000 F 
ATOM     18  C   UNL     1       6.265  15.518  19.567  0.00  0.00    +0.000 C 
ENDBRANCH  12  18
ENDBRANCH   4   9
BRANCH   5  20
ATOM     19  N   UNL     1      10.600  11.504  24.129  0.00  0.00    +0.000 NA
ATOM     20  C   UNL     1      11.083  12.500  23.465  0.00  0.00    +0.000 C 
BRANCH  19  21
ATOM     21  O   UNL     1      10.726  10.315  23.407  0.00  0.00    +0.000 OA
BRANCH  21  22
ATOM     22  C   UNL     1      11.156  10.677  22.091  0.00  0.00    +0.000 C 
BRANCH  22  25
ATOM     23 CL   UNL     1      12.166   7.729  17.906  0.00  0.00    +0.000 Cl
ATOM     24 CL   UNL     1      14.831   6.679  19.453  0.00  0.00    +0.000 Cl
ATOM     25  C   UNL     1      11.980   9.593  21.439  0.00  0.00    +0.000 A 
ATOM     26  C   UNL     1      11.710   9.140  20.140  0.00  0.00    +0.000 A 
ATOM     27  C   UNL     1      13.107   9.100  22.110  0.00  0.00    +0.000 A 
ATOM     28  C   UNL     1      12.563   8.225  19.514  0.00  0.00    +0.000 A 
ATOM     29  C   UNL     1      13.960   8.190  21.487  0.00  0.00    +0.000 A 
ATOM     30  C   UNL     1      13.700   7.760  20.185  0.00  0.00    +0.000 A 
ENDBRANCH  22  25
ENDBRANCH  21  22
ENDBRANCH  19  21
ENDBRANCH   5  20
TORSDOF 6
ENDMDL
MODEL 5
REMARK VINA RESULT:      -6.1     33.454     35.710
REMARK  Name = 142505500
REMARK  6 active torsions:
REMARK  status: ('A' for Active; 'I' for Inactive)
REMARK    1  A    between atoms: O_7  and  N_10
REMARK    2  A    between atoms: O_7  and  C_25
REMARK    3  A    between atoms: C_11  and  C_13
REMARK    4  A    between atoms: C_12  and  C_18
REMARK    5  A    between atoms: C_19  and  C_23
REMARK    6  A    between atoms: C_24  and  C_25
REMARK                            x       y       z     vdW  Elec       q    Type
REMARK                         _______ _______ _______ _____ _____    ______ ____
ROOT
ATOM      1  S   UNL     1       7.656 -13.971  27.952  0.00  0.00    +0.000 S 
ATOM      2  N   UNL     1       6.443 -13.422  30.144  0.00  0.00    +0.000 N 
ATOM      3  N   UNL     1       7.628 -11.639  29.514  0.00  0.00    +0.000 NA
ATOM      4  C   UNL     1       6.972 -11.390  30.717  0.00  0.00    +0.000 A 
ATOM      5  C   UNL     1       6.234 -12.503  31.140  0.00  0.00    +0.000 A 
ATOM      6  C   UNL     1       7.271 -12.857  29.226  0.00  0.00    +0.000 A 
ATOM      7  C   UNL     1       6.091 -14.734  29.893  0.00  0.00    +0.000 A 
ATOM      8  C   UNL     1       6.652 -15.187  28.760  0.00  0.00    +0.000 A 
ENDROOT
BRANCH   4   9
ATOM      9  C   UNL     1       7.111 -10.111  31.408  0.00  0.00    +0.000 A 
ATOM     10  C   UNL     1       6.302  -9.009  31.105  0.00  0.00    +0.000 A 
ATOM     11  C   UNL     1       8.083  -9.967  32.406  0.00  0.00    +0.000 A 
ATOM     12  C   UNL     1       7.368  -7.679  32.834  0.00  0.00    +0.000 A 
ATOM     13  C   UNL     1       6.409  -7.815  31.826  0.00  0.00    +0.000 A 
ATOM     14  C   UNL     1       8.213  -8.764  33.112  0.00  0.00    +0.000 A 
BRANCH  12  18
ATOM     15  F   UNL     1       6.668  -5.404  33.166  0.00  0.00    +0.000 F 
ATOM     16  F   UNL     1       7.244  -6.534  34.930  0.00  0.00    +0.000 F 
ATOM     17  F   UNL     1       8.762  -5.864  33.523  0.00  0.00    +0.000 F 
ATOM     18  C   UNL     1       7.507  -6.387  33.601  0.00  0.00    +0.000 C 
ENDBRANCH  12  18
ENDBRANCH   4   9
BRANCH   5  20
ATOM     19  N   UNL     1       6.117 -13.062  33.415  0.00  0.00    +0.000 NA
ATOM     20  C   UNL     1       5.484 -12.761  32.331  0.00  0.00    +0.000 C 
BRANCH  19  21
ATOM     21  O   UNL     1       5.229 -13.260  34.473  0.00  0.00    +0.000 OA
BRANCH  21  22
ATOM     22  C   UNL     1       4.232 -12.238  34.371  0.00  0.00    +0.000 C 
BRANCH  22  25
ATOM     23 CL   UNL     1       4.824 -10.516  39.260  0.00  0.00    +0.000 Cl
ATOM     24 CL   UNL     1       5.746  -7.659  38.002  0.00  0.00    +0.000 Cl
ATOM     25  C   UNL     1       4.490 -11.090  35.317  0.00  0.00    +0.000 A 
ATOM     26  C   UNL     1       4.482 -11.264  36.709  0.00  0.00    +0.000 A 
ATOM     27  C   UNL     1       4.847  -9.842  34.790  0.00  0.00    +0.000 A 
ATOM     28  C   UNL     1       4.846 -10.214  37.558  0.00  0.00    +0.000 A 
ATOM     29  C   UNL     1       5.212  -8.795  35.635  0.00  0.00    +0.000 A 
ATOM     30  C   UNL     1       5.226  -8.980  37.019  0.00  0.00    +0.000 A 
ENDBRANCH  22  25
ENDBRANCH  21  22
ENDBRANCH  19  21
ENDBRANCH   5  20
TORSDOF 6
ENDMDL
MODEL 6
REMARK VINA RESULT:      -6.1     22.706     25.160
REMARK  Name = 142505500
REMARK  6 active torsions:
REMARK  status: ('A' for Active; 'I' for Inactive)
REMARK    1  A    between atoms: O_7  and  N_10
REMARK    2  A    between atoms: O_7  and  C_25
REMARK    3  A    between atoms: C_11  and  C_13
REMARK    4  A    between atoms: C_12  and  C_18
REMARK    5  A    between atoms: C_19  and  C_23
REMARK    6  A    between atoms: C_24  and  C_25
REMARK                            x       y       z     vdW  Elec       q    Type
REMARK                         _______ _______ _______ _____ _____    ______ ____
ROOT
ATOM      1  S   UNL     1      19.491 -15.980  -4.517  0.00  0.00    +0.000 S 
ATOM      2  N   UNL     1      17.250 -16.520  -3.391  0.00  0.00    +0.000 N 
ATOM      3  N   UNL     1      18.415 -15.161  -2.057  0.00  0.00    +0.000 NA
ATOM      4  C   UNL     1      17.198 -15.499  -1.469  0.00  0.00    +0.000 A 
ATOM      5  C   UNL     1      16.458 -16.366  -2.283  0.00  0.00    +0.000 A 
ATOM      6  C   UNL     1      18.383 -15.795  -3.194  0.00  0.00    +0.000 A 
ATOM      7  C   UNL     1      17.212 -17.247  -4.564  0.00  0.00    +0.000 A 
ATOM      8  C   UNL     1      18.331 -17.075  -5.288  0.00  0.00    +0.000 A 
ENDROOT
BRANCH   4   9
ATOM      9  C   UNL     1      16.826 -14.997  -0.149  0.00  0.00    +0.000 A 
ATOM     10  C   UNL     1      15.973 -13.898   0.016  0.00  0.00    +0.000 A 
ATOM     11  C   UNL     1      17.334 -15.622   0.997  0.00  0.00    +0.000 A 
ATOM     12  C   UNL     1      16.072 -14.114   2.433  0.00  0.00    +0.000 A 
ATOM     13  C   UNL     1      15.579 -13.477   1.289  0.00  0.00    +0.000 A 
ATOM     14  C   UNL     1      16.963 -15.186   2.275  0.00  0.00    +0.000 A 
BRANCH  12  18
ATOM     15  F   UNL     1      15.706 -14.639   4.749  0.00  0.00    +0.000 F 
ATOM     16  F   UNL     1      16.475 -12.660   4.288  0.00  0.00    +0.000 F 
ATOM     17  F   UNL     1      14.403 -13.152   3.846  0.00  0.00    +0.000 F 
ATOM     18  C   UNL     1      15.670 -13.650   3.811  0.00  0.00    +0.000 C 
ENDBRANCH  12  18
ENDBRANCH   4   9
BRANCH   5  20
ATOM     19  N   UNL     1      15.237 -18.288  -1.718  0.00  0.00    +0.000 NA
ATOM     20  C   UNL     1      15.216 -17.049  -2.078  0.00  0.00    +0.000 C 
BRANCH  19  21
ATOM     21  O   UNL     1      13.941 -18.780  -1.549  0.00  0.00    +0.000 OA
BRANCH  21  22
ATOM     22  C   UNL     1      13.366 -18.880  -2.856  0.00  0.00    +0.000 C 
BRANCH  22  25
ATOM     23 CL   UNL     1       8.919 -20.513  -5.043  0.00  0.00    +0.000 Cl
ATOM     24 CL   UNL     1       7.396 -19.598  -2.315  0.00  0.00    +0.000 Cl
ATOM     25  C   UNL     1      11.860 -18.973  -2.813  0.00  0.00    +0.000 A 
ATOM     26  C   UNL     1      11.127 -19.570  -3.848  0.00  0.00    +0.000 A 
ATOM     27  C   UNL     1      11.185 -18.545  -1.661  0.00  0.00    +0.000 A 
ATOM     28  C   UNL     1       9.745 -19.754  -3.727  0.00  0.00    +0.000 A 
ATOM     29  C   UNL     1       9.808 -18.730  -1.538  0.00  0.00    +0.000 A 
ATOM     30  C   UNL     1       9.087 -19.347  -2.562  0.00  0.00    +0.000 A 
ENDBRANCH  22  25
ENDBRANCH  21  22
ENDBRANCH  19  21
ENDBRANCH   5  20
TORSDOF 6
ENDMDL
MODEL 7
REMARK VINA RESULT:      -6.0     19.567     21.881
REMARK  Name = 142505500
REMARK  6 active torsions:
REMARK  status: ('A' for Active; 'I' for Inactive)
REMARK    1  A    between atoms: O_7  and  N_10
REMARK    2  A    between atoms: O_7  and  C_25
REMARK    3  A    between atoms: C_11  and  C_13
REMARK    4  A    between atoms: C_12  and  C_18
REMARK    5  A    between atoms: C_19  and  C_23
REMARK    6  A    between atoms: C_24  and  C_25
REMARK                            x       y       z     vdW  Elec       q    Type
REMARK                         _______ _______ _______ _____ _____    ______ ____
ROOT
ATOM      1  S   UNL     1       9.318  17.874  24.391  0.00  0.00    +0.000 S 
ATOM      2  N   UNL     1       8.109  17.080  22.273  0.00  0.00    +0.000 N 
ATOM      3  N   UNL     1       6.630  17.206  23.939  0.00  0.00    +0.000 NA
ATOM      4  C   UNL     1       6.017  16.753  22.773  0.00  0.00    +0.000 A 
ATOM      5  C   UNL     1       6.932  16.650  21.718  0.00  0.00    +0.000 A 
ATOM      6  C   UNL     1       7.867  17.384  23.575  0.00  0.00    +0.000 A 
ATOM      7  C   UNL     1       9.425  17.208  21.873  0.00  0.00    +0.000 A 
ATOM      8  C   UNL     1      10.209  17.623  22.881  0.00  0.00    +0.000 A 
ENDROOT
BRANCH   4   9
ATOM      9  C   UNL     1       4.596  16.416  22.743  0.00  0.00    +0.000 A 
ATOM     10  C   UNL     1       4.064  15.362  23.497  0.00  0.00    +0.000 A 
ATOM     11  C   UNL     1       3.726  17.159  21.935  0.00  0.00    +0.000 A 
ATOM     12  C   UNL     1       1.821  15.855  22.709  0.00  0.00    +0.000 A 
ATOM     13  C   UNL     1       2.691  15.100  23.502  0.00  0.00    +0.000 A 
ATOM     14  C   UNL     1       2.353  16.883  21.916  0.00  0.00    +0.000 A 
BRANCH  12  18
ATOM     15  F   UNL     1      -0.427  16.666  22.457  0.00  0.00    +0.000 F 
ATOM     16  F   UNL     1      -0.005  14.662  21.730  0.00  0.00    +0.000 F 
ATOM     17  F   UNL     1      -0.104  15.045  23.868  0.00  0.00    +0.000 F 
ATOM     18  C   UNL     1       0.341  15.564  22.691  0.00  0.00    +0.000 C 
ENDBRANCH  12  18
ENDBRANCH   4   9
BRANCH   5  20
ATOM     19  N   UNL     1       6.309  14.979  20.195  0.00  0.00    +0.000 NA
ATOM     20  C   UNL     1       6.803  16.156  20.381  0.00  0.00    +0.000 C 
BRANCH  19  21
ATOM     21  O   UNL     1       6.243  14.674  18.834  0.00  0.00    +0.000 OA
BRANCH  21  22
ATOM     22  C   UNL     1       5.753  15.845  18.174  0.00  0.00    +0.000 C 
BRANCH  22  25
ATOM     23 CL   UNL     1       1.588  18.985  18.059  0.00  0.00    +0.000 Cl
ATOM     24 CL   UNL     1      -0.254  16.340  18.512  0.00  0.00    +0.000 Cl
ATOM     25  C   UNL     1       4.268  16.033  18.366  0.00  0.00    +0.000 A 
ATOM     26  C   UNL     1       3.656  17.285  18.212  0.00  0.00    +0.000 A 
ATOM     27  C   UNL     1       3.466  14.909  18.603  0.00  0.00    +0.000 A 
ATOM     28  C   UNL     1       2.264  17.408  18.274  0.00  0.00    +0.000 A 
ATOM     29  C   UNL     1       2.078  15.029  18.663  0.00  0.00    +0.000 A 
ATOM     30  C   UNL     1       1.472  16.275  18.485  0.00  0.00    +0.000 A 
ENDBRANCH  22  25
ENDBRANCH  21  22
ENDBRANCH  19  21
ENDBRANCH   5  20
TORSDOF 6
ENDMDL
MODEL 8
REMARK VINA RESULT:      -6.0     38.765     41.407
REMARK  Name = 142505500
REMARK  6 active torsions:
REMARK  status: ('A' for Active; 'I' for Inactive)
REMARK    1  A    between atoms: O_7  and  N_10
REMARK    2  A    between atoms: O_7  and  C_25
REMARK    3  A    between atoms: C_11  and  C_13
REMARK    4  A    between atoms: C_12  and  C_18
REMARK    5  A    between atoms: C_19  and  C_23
REMARK    6  A    between atoms: C_24  and  C_25
REMARK                            x       y       z     vdW  Elec       q    Type
REMARK                         _______ _______ _______ _____ _____    ______ ____
ROOT
ATOM      1  S   UNL     1      -5.413   3.341  47.048  0.00  0.00    +0.000 S 
ATOM      2  N   UNL     1      -5.731   4.630  44.853  0.00  0.00    +0.000 N 
ATOM      3  N   UNL     1      -3.617   3.922  44.972  0.00  0.00    +0.000 NA
ATOM      4  C   UNL     1      -3.825   4.651  43.802  0.00  0.00    +0.000 A 
ATOM      5  C   UNL     1      -5.142   5.119  43.716  0.00  0.00    +0.000 A 
ATOM      6  C   UNL     1      -4.784   3.944  45.547  0.00  0.00    +0.000 A 
ATOM      7  C   UNL     1      -6.965   4.716  45.466  0.00  0.00    +0.000 A 
ATOM      8  C   UNL     1      -6.973   4.082  46.650  0.00  0.00    +0.000 A 
ENDROOT
BRANCH   4   9
ATOM      9  C   UNL     1      -2.743   4.882  42.848  0.00  0.00    +0.000 A 
ATOM     10  C   UNL     1      -1.396   4.862  43.231  0.00  0.00    +0.000 A 
ATOM     11  C   UNL     1      -3.049   5.137  41.505  0.00  0.00    +0.000 A 
ATOM     12  C   UNL     1      -0.683   5.257  40.943  0.00  0.00    +0.000 A 
ATOM     13  C   UNL     1      -0.376   5.020  42.287  0.00  0.00    +0.000 A 
ATOM     14  C   UNL     1      -2.031   5.324  40.562  0.00  0.00    +0.000 A 
BRANCH  12  18
ATOM     15  F   UNL     1       1.095   4.310  39.633  0.00  0.00    +0.000 F 
ATOM     16  F   UNL     1      -0.059   5.914  38.730  0.00  0.00    +0.000 F 
ATOM     17  F   UNL     1       1.349   6.354  40.328  0.00  0.00    +0.000 F 
ATOM     18  C   UNL     1       0.411   5.453  39.923  0.00  0.00    +0.000 C 
ENDBRANCH  12  18
ENDBRANCH   4   9
BRANCH   5  20
ATOM     19  N   UNL     1      -5.688   7.249  42.901  0.00  0.00    +0.000 NA
ATOM     20  C   UNL     1      -5.798   5.970  42.770  0.00  0.00    +0.000 C 
BRANCH  19  21
ATOM     21  O   UNL     1      -6.374   7.916  41.883  0.00  0.00    +0.000 OA
BRANCH  21  22
ATOM     22  C   UNL     1      -5.692   9.156  41.672  0.00  0.00    +0.000 C 
BRANCH  22  25
ATOM     23 CL   UNL     1      -0.627   8.906  40.447  0.00  0.00    +0.000 Cl
ATOM     24 CL   UNL     1      -1.534   8.235  37.393  0.00  0.00    +0.000 Cl
ATOM     25  C   UNL     1      -4.619   9.048  40.615  0.00  0.00    +0.000 A 
ATOM     26  C   UNL     1      -3.256   9.085  40.940  0.00  0.00    +0.000 A 
ATOM     27  C   UNL     1      -4.996   8.800  39.288  0.00  0.00    +0.000 A 
ATOM     28  C   UNL     1      -2.285   8.858  39.959  0.00  0.00    +0.000 A 
ATOM     29  C   UNL     1      -4.029   8.572  38.309  0.00  0.00    +0.000 A 
ATOM     30  C   UNL     1      -2.673   8.586  38.643  0.00  0.00    +0.000 A 
ENDBRANCH  22  25
ENDBRANCH  21  22
ENDBRANCH  19  21
ENDBRANCH   5  20
TORSDOF 6
ENDMDL
MODEL 9
REMARK VINA RESULT:      -5.9     41.454     42.927
REMARK  Name = 142505500
REMARK  6 active torsions:
REMARK  status: ('A' for Active; 'I' for Inactive)
REMARK    1  A    between atoms: O_7  and  N_10
REMARK    2  A    between atoms: O_7  and  C_25
REMARK    3  A    between atoms: C_11  and  C_13
REMARK    4  A    between atoms: C_12  and  C_18
REMARK    5  A    between atoms: C_19  and  C_23
REMARK    6  A    between atoms: C_24  and  C_25
REMARK                            x       y       z     vdW  Elec       q    Type
REMARK                         _______ _______ _______ _____ _____    ______ ____
ROOT
ATOM      1  S   UNL     1      -5.699  -8.074  40.025  0.00  0.00    +0.000 S 
ATOM      2  N   UNL     1      -7.678  -9.581  39.399  0.00  0.00    +0.000 N 
ATOM      3  N   UNL     1      -5.905 -10.182  38.184  0.00  0.00    +0.000 NA
ATOM      4  C   UNL     1      -7.011 -10.963  37.855  0.00  0.00    +0.000 A 
ATOM      5  C   UNL     1      -8.141 -10.590  38.595  0.00  0.00    +0.000 A 
ATOM      6  C   UNL     1      -6.365  -9.387  39.106  0.00  0.00    +0.000 A 
ATOM      7  C   UNL     1      -8.208  -8.714  40.334  0.00  0.00    +0.000 A 
ATOM      8  C   UNL     1      -7.287  -7.841  40.775  0.00  0.00    +0.000 A 
ENDROOT
BRANCH   4   9
ATOM      9  C   UNL     1      -6.932 -12.001  36.831  0.00  0.00    +0.000 A 
ATOM     10  C   UNL     1      -7.549 -11.863  35.581  0.00  0.00    +0.000 A 
ATOM     11  C   UNL     1      -6.223 -13.180  37.095  0.00  0.00    +0.000 A 
ATOM     12  C   UNL     1      -6.680 -14.010  34.852  0.00  0.00    +0.000 A 
ATOM     13  C   UNL     1      -7.404 -12.841  34.593  0.00  0.00    +0.000 A 
ATOM     14  C   UNL     1      -6.098 -14.175  36.117  0.00  0.00    +0.000 A 
BRANCH  12  18
ATOM     15  F   UNL     1      -7.198 -16.235  34.105  0.00  0.00    +0.000 F 
ATOM     16  F   UNL     1      -7.021 -14.692  32.586  0.00  0.00    +0.000 F 
ATOM     17  F   UNL     1      -5.242 -15.439  33.589  0.00  0.00    +0.000 F 
ATOM     18  C   UNL     1      -6.539 -15.081  33.799  0.00  0.00    +0.000 C 
ENDBRANCH  12  18
ENDBRANCH   4   9
BRANCH   5  20
ATOM     19  N   UNL     1     -10.327 -10.413  37.764  0.00  0.00    +0.000 NA
ATOM     20  C   UNL     1      -9.504 -11.024  38.548  0.00  0.00    +0.000 C 
BRANCH  19  21
ATOM     21  O   UNL     1     -11.600 -10.982  37.837  0.00  0.00    +0.000 OA
BRANCH  21  22
ATOM     22  C   UNL     1     -12.299 -10.578  36.655  0.00  0.00    +0.000 C 
BRANCH  22  25
ATOM     23 CL   UNL     1     -10.287 -14.984  34.716  0.00  0.00    +0.000 Cl
ATOM     24 CL   UNL     1     -12.843 -15.110  32.704  0.00  0.00    +0.000 Cl
ATOM     25  C   UNL     1     -12.332 -11.665  35.609  0.00  0.00    +0.000 A 
ATOM     26  C   UNL     1     -11.376 -12.691  35.579  0.00  0.00    +0.000 A 
ATOM     27  C   UNL     1     -13.404 -11.709  34.708  0.00  0.00    +0.000 A 
ATOM     28  C   UNL     1     -11.501 -13.753  34.677  0.00  0.00    +0.000 A 
ATOM     29  C   UNL     1     -13.532 -12.769  33.810  0.00  0.00    +0.000 A 
ATOM     30  C   UNL     1     -12.590 -13.800  33.801  0.00  0.00    +0.000 A 
ENDBRANCH  22  25
ENDBRANCH  21  22
ENDBRANCH  19  21
ENDBRANCH   5  20
TORSDOF 6
ENDMDL
MODEL 10
REMARK VINA RESULT:      -5.9     17.620     18.854
REMARK  Name = 142505500
REMARK  6 active torsions:
REMARK  status: ('A' for Active; 'I' for Inactive)
REMARK    1  A    between atoms: O_7  and  N_10
REMARK    2  A    between atoms: O_7  and  C_25
REMARK    3  A    between atoms: C_11  and  C_13
REMARK    4  A    between atoms: C_12  and  C_18
REMARK    5  A    between atoms: C_19  and  C_23
REMARK    6  A    between atoms: C_24  and  C_25
REMARK                            x       y       z     vdW  Elec       q    Type
REMARK                         _______ _______ _______ _____ _____    ______ ____
ROOT
ATOM      1  S   UNL     1      14.160  16.182  17.587  0.00  0.00    +0.000 S 
ATOM      2  N   UNL     1      15.489  14.215  18.560  0.00  0.00    +0.000 N 
ATOM      3  N   UNL     1      13.310  13.749  18.696  0.00  0.00    +0.000 NA
ATOM      4  C   UNL     1      14.068  12.712  19.238  0.00  0.00    +0.000 A 
ATOM      5  C   UNL     1      15.439  12.993  19.178  0.00  0.00    +0.000 A 
ATOM      6  C   UNL     1      14.211  14.605  18.309  0.00  0.00    +0.000 A 
ATOM      7  C   UNL     1      16.463  15.128  18.209  0.00  0.00    +0.000 A 
ATOM      8  C   UNL     1      15.929  16.239  17.674  0.00  0.00    +0.000 A 
ENDROOT
BRANCH   4   9
ATOM      9  C   UNL     1      13.435  11.526  19.810  0.00  0.00    +0.000 A 
ATOM     10  C   UNL     1      12.943  10.487  19.011  0.00  0.00    +0.000 A 
ATOM     11  C   UNL     1      13.306  11.414  21.200  0.00  0.00    +0.000 A 
ATOM     12  C   UNL     1      12.290   9.213  20.973  0.00  0.00    +0.000 A 
ATOM     13  C   UNL     1      12.401   9.332  19.583  0.00  0.00    +0.000 A 
ATOM     14  C   UNL     1      12.739  10.270  21.777  0.00  0.00    +0.000 A 
BRANCH  12  18
ATOM     15  F   UNL     1      12.596   7.002  21.863  0.00  0.00    +0.000 F 
ATOM     16  F   UNL     1      11.068   8.242  22.784  0.00  0.00    +0.000 F 
ATOM     17  F   UNL     1      10.740   7.402  20.805  0.00  0.00    +0.000 F 
ATOM     18  C   UNL     1      11.685   7.980  21.598  0.00  0.00    +0.000 C 
ENDBRANCH  12  18
ENDBRANCH   4   9
BRANCH   5  20
ATOM     19  N   UNL     1      16.812  12.298  20.948  0.00  0.00    +0.000 NA
ATOM     20  C   UNL     1      16.584  12.294  19.678  0.00  0.00    +0.000 C 
BRANCH  19  21
ATOM     21  O   UNL     1      17.954  11.555  21.253  0.00  0.00    +0.000 OA
BRANCH  21  22
ATOM     22  C   UNL     1      17.544  10.521  22.153  0.00  0.00    +0.000 C 
BRANCH  22  25
ATOM     23 CL   UNL     1      15.072   7.036  19.159  0.00  0.00    +0.000 Cl
ATOM     24 CL   UNL     1      17.805   5.267  19.191  0.00  0.00    +0.000 Cl
ATOM     25  C   UNL     1      17.524   9.163  21.495  0.00  0.00    +0.000 A 
ATOM     26  C   UNL     1      16.418   8.716  20.758  0.00  0.00    +0.000 A 
ATOM     27  C   UNL     1      18.679   8.371  21.535  0.00  0.00    +0.000 A 
ATOM     28  C   UNL     1      16.473   7.507  20.056  0.00  0.00    +0.000 A 
ATOM     29  C   UNL     1      18.737   7.167  20.834  0.00  0.00    +0.000 A 
ATOM     30  C   UNL     1      17.642   6.738  20.082  0.00  0.00    +0.000 A 
ENDBRANCH  22  25
ENDBRANCH  21  22
ENDBRANCH  19  21
ENDBRANCH   5  20
TORSDOF 6
ENDMDL
