MODEL 1
REMARK VINA RESULT:      -5.1      0.000      0.000
REMARK  Name = 142505361
REMARK  5 active torsions:
REMARK  status: ('A' for Active; 'I' for Inactive)
REMARK    1  A    between atoms: O_5  and  N_8
REMARK    2  A    between atoms: O_5  and  C_21
REMARK    3  A    between atoms: C_9  and  C_14
REMARK    4  A    between atoms: C_10  and  C_12
REMARK    5  A    between atoms: C_20  and  C_21
REMARK                            x       y       z     vdW  Elec       q    Type
REMARK                         _______ _______ _______ _____ _____    ______ ____
ROOT
ATOM      1  S   UNL     1     -14.604  10.043 -58.470  0.00  0.00    +0.000 S 
ATOM      2  N   UNL     1     -12.369  11.245 -58.861  0.00  0.00    +0.000 N 
ATOM      3  N   UNL     1     -12.716  11.071 -56.662  0.00  0.00    +0.000 NA
ATOM      4  C   UNL     1     -11.262  11.817 -58.287  0.00  0.00    +0.000 A 
ATOM      5  C   UNL     1     -11.526  11.737 -56.917  0.00  0.00    +0.000 A 
ATOM      6  C   UNL     1     -13.176  10.814 -57.853  0.00  0.00    +0.000 A 
ATOM      7  C   UNL     1     -12.836  10.988 -60.135  0.00  0.00    +0.000 A 
ATOM      8  C   UNL     1     -14.020  10.354 -60.113  0.00  0.00    +0.000 A 
ENDROOT
BRANCH   5  10
ATOM      9  F   UNL     1      -8.393  13.758 -52.744  0.00  0.00    +0.000 F 
ATOM     10  C   UNL     1     -10.720  12.292 -55.834  0.00  0.00    +0.000 A 
ATOM     11  C   UNL     1      -9.392  11.865 -55.677  0.00  0.00    +0.000 A 
ATOM     12  C   UNL     1     -11.251  13.203 -54.905  0.00  0.00    +0.000 A 
ATOM     13  C   UNL     1      -8.604  12.362 -54.634  0.00  0.00    +0.000 A 
ATOM     14  C   UNL     1     -10.459  13.709 -53.872  0.00  0.00    +0.000 A 
ATOM     15  C   UNL     1      -9.144  13.283 -53.746  0.00  0.00    +0.000 A 
ENDBRANCH   5  10
BRANCH   4  17
ATOM     16  N   UNL     1     -10.069  13.617 -59.259  0.00  0.00    +0.000 NA
ATOM     17  C   UNL     1     -10.135  12.353 -58.987  0.00  0.00    +0.000 C 
BRANCH  16  18
ATOM     18  O   UNL     1      -8.834  13.886 -59.873  0.00  0.00    +0.000 OA
BRANCH  18  19
ATOM     19  C   UNL     1      -8.415  15.196 -59.477  0.00  0.00    +0.000 C 
BRANCH  19  22
ATOM     20 CL   UNL     1      -3.730  14.542 -57.267  0.00  0.00    +0.000 Cl
ATOM     21 CL   UNL     1      -5.101  15.304 -54.417  0.00  0.00    +0.000 Cl
ATOM     22  C   UNL     1      -7.570  15.147 -58.227  0.00  0.00    +0.000 A 
ATOM     23  C   UNL     1      -6.194  14.874 -58.278  0.00  0.00    +0.000 A 
ATOM     24  C   UNL     1      -8.147  15.467 -56.988  0.00  0.00    +0.000 A 
ATOM     25  C   UNL     1      -5.414  14.901 -57.115  0.00  0.00    +0.000 A 
ATOM     26  C   UNL     1      -7.371  15.500 -55.827  0.00  0.00    +0.000 A 
ATOM     27  C   UNL     1      -6.003  15.221 -55.888  0.00  0.00    +0.000 A 
ENDBRANCH  19  22
ENDBRANCH  18  19
ENDBRANCH  16  18
ENDBRANCH   4  17
TORSDOF 5
ENDMDL
MODEL 2
REMARK VINA RESULT:      -4.9     22.692     24.515
REMARK  Name = 142505361
REMARK  5 active torsions:
REMARK  status: ('A' for Active; 'I' for Inactive)
REMARK    1  A    between atoms: O_5  and  N_8
REMARK    2  A    between atoms: O_5  and  C_21
REMARK    3  A    between atoms: C_9  and  C_14
REMARK    4  A    between atoms: C_10  and  C_12
REMARK    5  A    between atoms: C_20  and  C_21
REMARK                            x       y       z     vdW  Elec       q    Type
REMARK                         _______ _______ _______ _____ _____    ______ ____
ROOT
ATOM      1  S   UNL     1     -18.896   3.315 -32.186  0.00  0.00    +0.000 S 
ATOM      2  N   UNL     1     -16.782   4.664 -32.738  0.00  0.00    +0.000 N 
ATOM      3  N   UNL     1     -18.552   6.021 -32.852  0.00  0.00    +0.000 NA
ATOM      4  C   UNL     1     -16.259   5.892 -33.057  0.00  0.00    +0.000 A 
ATOM      5  C   UNL     1     -17.389   6.709 -33.167  0.00  0.00    +0.000 A 
ATOM      6  C   UNL     1     -18.130   4.812 -32.617  0.00  0.00    +0.000 A 
ATOM      7  C   UNL     1     -16.309   3.389 -32.498  0.00  0.00    +0.000 A 
ATOM      8  C   UNL     1     -17.303   2.539 -32.192  0.00  0.00    +0.000 A 
ENDROOT
BRANCH   5  10
ATOM      9  F   UNL     1     -17.577  12.090 -34.694  0.00  0.00    +0.000 F 
ATOM     10  C   UNL     1     -17.423   8.105 -33.591  0.00  0.00    +0.000 A 
ATOM     11  C   UNL     1     -17.162   9.116 -32.652  0.00  0.00    +0.000 A 
ATOM     12  C   UNL     1     -17.765   8.475 -34.902  0.00  0.00    +0.000 A 
ATOM     13  C   UNL     1     -17.212  10.462 -33.025  0.00  0.00    +0.000 A 
ATOM     14  C   UNL     1     -17.802   9.819 -35.277  0.00  0.00    +0.000 A 
ATOM     15  C   UNL     1     -17.526  10.800 -34.335  0.00  0.00    +0.000 A 
ENDBRANCH   5  10
BRANCH   4  17
ATOM     16  N   UNL     1     -14.406   6.529 -34.384  0.00  0.00    +0.000 NA
ATOM     17  C   UNL     1     -14.871   6.197 -33.224  0.00  0.00    +0.000 C 
BRANCH  16  18
ATOM     18  O   UNL     1     -13.044   6.851 -34.253  0.00  0.00    +0.000 OA
BRANCH  18  19
ATOM     19  C   UNL     1     -12.569   7.310 -35.522  0.00  0.00    +0.000 C 
BRANCH  19  22
ATOM     20 CL   UNL     1      -7.450   6.453 -36.082  0.00  0.00    +0.000 Cl
ATOM     21 CL   UNL     1      -8.198   3.576 -37.406  0.00  0.00    +0.000 Cl
ATOM     22  C   UNL     1     -11.453   6.435 -36.041  0.00  0.00    +0.000 A 
ATOM     23  C   UNL     1     -10.105   6.790 -35.882  0.00  0.00    +0.000 A 
ATOM     24  C   UNL     1     -11.758   5.194 -36.621  0.00  0.00    +0.000 A 
ATOM     25  C   UNL     1      -9.083   5.932 -36.307  0.00  0.00    +0.000 A 
ATOM     26  C   UNL     1     -10.742   4.334 -37.042  0.00  0.00    +0.000 A 
ATOM     27  C   UNL     1      -9.402   4.699 -36.884  0.00  0.00    +0.000 A 
ENDBRANCH  19  22
ENDBRANCH  18  19
ENDBRANCH  16  18
ENDBRANCH   4  17
TORSDOF 5
ENDMDL
MODEL 3
REMARK VINA RESULT:      -4.9     14.009     17.050
REMARK  Name = 142505361
REMARK  5 active torsions:
REMARK  status: ('A' for Active; 'I' for Inactive)
REMARK    1  A    between atoms: O_5  and  N_8
REMARK    2  A    between atoms: O_5  and  C_21
REMARK    3  A    between atoms: C_9  and  C_14
REMARK    4  A    between atoms: C_10  and  C_12
REMARK    5  A    between atoms: C_20  and  C_21
REMARK                            x       y       z     vdW  Elec       q    Type
REMARK                         _______ _______ _______ _____ _____    ______ ____
ROOT
ATOM      1  S   UNL     1     -26.076   3.766 -56.106  0.00  0.00    +0.000 S 
ATOM      2  N   UNL     1     -24.752   5.182 -54.422  0.00  0.00    +0.000 N 
ATOM      3  N   UNL     1     -23.607   5.085 -56.337  0.00  0.00    +0.000 NA
ATOM      4  C   UNL     1     -23.630   5.940 -54.197  0.00  0.00    +0.000 A 
ATOM      5  C   UNL     1     -22.912   5.824 -55.391  0.00  0.00    +0.000 A 
ATOM      6  C   UNL     1     -24.683   4.722 -55.702  0.00  0.00    +0.000 A 
ATOM      7  C   UNL     1     -25.883   4.808 -53.725  0.00  0.00    +0.000 A 
ATOM      8  C   UNL     1     -26.699   4.046 -54.472  0.00  0.00    +0.000 A 
ENDROOT
BRANCH   5  10
ATOM      9  F   UNL     1     -17.854   7.942 -56.509  0.00  0.00    +0.000 F 
ATOM     10  C   UNL     1     -21.581   6.353 -55.668  0.00  0.00    +0.000 A 
ATOM     11  C   UNL     1     -21.343   7.729 -55.526  0.00  0.00    +0.000 A 
ATOM     12  C   UNL     1     -20.537   5.532 -56.128  0.00  0.00    +0.000 A 
ATOM     13  C   UNL     1     -20.083   8.266 -55.808  0.00  0.00    +0.000 A 
ATOM     14  C   UNL     1     -19.276   6.068 -56.397  0.00  0.00    +0.000 A 
ATOM     15  C   UNL     1     -19.061   7.430 -56.235  0.00  0.00    +0.000 A 
ENDBRANCH   5  10
BRANCH   4  17
ATOM     16  N   UNL     1     -24.043   7.673 -52.638  0.00  0.00    +0.000 NA
ATOM     17  C   UNL     1     -23.327   6.656 -52.995  0.00  0.00    +0.000 C 
BRANCH  16  18
ATOM     18  O   UNL     1     -23.583   8.137 -51.393  0.00  0.00    +0.000 OA
BRANCH  18  19
ATOM     19  C   UNL     1     -22.911   7.058 -50.736  0.00  0.00    +0.000 C 
BRANCH  19  22
ATOM     20 CL   UNL     1     -24.092   7.473 -45.667  0.00  0.00    +0.000 Cl
ATOM     21 CL   UNL     1     -26.333   5.158 -46.121  0.00  0.00    +0.000 Cl
ATOM     22  C   UNL     1     -23.699   6.563 -49.546  0.00  0.00    +0.000 A 
ATOM     23  C   UNL     1     -23.554   7.141 -48.275  0.00  0.00    +0.000 A 
ATOM     24  C   UNL     1     -24.665   5.561 -49.723  0.00  0.00    +0.000 A 
ATOM     25  C   UNL     1     -24.344   6.715 -47.200  0.00  0.00    +0.000 A 
ATOM     26  C   UNL     1     -25.458   5.137 -48.654  0.00  0.00    +0.000 A 
ATOM     27  C   UNL     1     -25.302   5.715 -47.391  0.00  0.00    +0.000 A 
ENDBRANCH  19  22
ENDBRANCH  18  19
ENDBRANCH  16  18
ENDBRANCH   4  17
TORSDOF 5
ENDMDL
MODEL 4
REMARK VINA RESULT:      -4.8      1.939      2.651
REMARK  Name = 142505361
REMARK  5 active torsions:
REMARK  status: ('A' for Active; 'I' for Inactive)
REMARK    1  A    between atoms: O_5  and  N_8
REMARK    2  A    between atoms: O_5  and  C_21
REMARK    3  A    between atoms: C_9  and  C_14
REMARK    4  A    between atoms: C_10  and  C_12
REMARK    5  A    between atoms: C_20  and  C_21
REMARK                            x       y       z     vdW  Elec       q    Type
REMARK                         _______ _______ _______ _____ _____    ______ ____
ROOT
ATOM      1  S   UNL     1     -14.122  11.590 -61.783  0.00  0.00    +0.000 S 
ATOM      2  N   UNL     1     -11.853  12.165 -60.726  0.00  0.00    +0.000 N 
ATOM      3  N   UNL     1     -13.317  11.729 -59.096  0.00  0.00    +0.000 NA
ATOM      4  C   UNL     1     -11.133  12.299 -59.566  0.00  0.00    +0.000 A 
ATOM      5  C   UNL     1     -12.081  12.068 -58.564  0.00  0.00    +0.000 A 
ATOM      6  C   UNL     1     -13.123  11.815 -60.380  0.00  0.00    +0.000 A 
ATOM      7  C   UNL     1     -11.623  12.267 -62.083  0.00  0.00    +0.000 A 
ATOM      8  C   UNL     1     -12.728  11.996 -62.797  0.00  0.00    +0.000 A 
ENDROOT
BRANCH   5  10
ATOM      9  F   UNL     1     -11.225  12.593 -53.059  0.00  0.00    +0.000 F 
ATOM     10  C   UNL     1     -11.880  12.185 -57.123  0.00  0.00    +0.000 A 
ATOM     11  C   UNL     1     -11.656  13.451 -56.560  0.00  0.00    +0.000 A 
ATOM     12  C   UNL     1     -11.848  11.058 -56.284  0.00  0.00    +0.000 A 
ATOM     13  C   UNL     1     -11.437  13.590 -55.186  0.00  0.00    +0.000 A 
ATOM     14  C   UNL     1     -11.642  11.199 -54.910  0.00  0.00    +0.000 A 
ATOM     15  C   UNL     1     -11.438  12.463 -54.374  0.00  0.00    +0.000 A 
ENDBRANCH   5  10
BRANCH   4  17
ATOM     16  N   UNL     1      -9.321  13.821 -59.634  0.00  0.00    +0.000 NA
ATOM     17  C   UNL     1      -9.739  12.607 -59.473  0.00  0.00    +0.000 C 
BRANCH  16  18
ATOM     18  O   UNL     1      -7.933  13.857 -59.415  0.00  0.00    +0.000 OA
BRANCH  18  19
ATOM     19  C   UNL     1      -7.628  12.962 -58.341  0.00  0.00    +0.000 C 
BRANCH  19  22
ATOM     20 CL   UNL     1      -8.275  14.049 -53.276  0.00  0.00    +0.000 Cl
ATOM     21 CL   UNL     1      -5.547  15.815 -53.428  0.00  0.00    +0.000 Cl
ATOM     22  C   UNL     1      -7.177  13.713 -57.111  0.00  0.00    +0.000 A 
ATOM     23  C   UNL     1      -7.852  13.593 -55.886  0.00  0.00    +0.000 A 
ATOM     24  C   UNL     1      -6.006  14.485 -57.161  0.00  0.00    +0.000 A 
ATOM     25  C   UNL     1      -7.378  14.242 -54.740  0.00  0.00    +0.000 A 
ATOM     26  C   UNL     1      -5.528  15.130 -56.019  0.00  0.00    +0.000 A 
ATOM     27  C   UNL     1      -6.209  15.009 -54.805  0.00  0.00    +0.000 A 
ENDBRANCH  19  22
ENDBRANCH  18  19
ENDBRANCH  16  18
ENDBRANCH   4  17
TORSDOF 5
ENDMDL
MODEL 5
REMARK VINA RESULT:      -4.7     14.837     17.898
REMARK  Name = 142505361
REMARK  5 active torsions:
REMARK  status: ('A' for Active; 'I' for Inactive)
REMARK    1  A    between atoms: O_5  and  N_8
REMARK    2  A    between atoms: O_5  and  C_21
REMARK    3  A    between atoms: C_9  and  C_14
REMARK    4  A    between atoms: C_10  and  C_12
REMARK    5  A    between atoms: C_20  and  C_21
REMARK                            x       y       z     vdW  Elec       q    Type
REMARK                         _______ _______ _______ _____ _____    ______ ____
ROOT
ATOM      1  S   UNL     1     -24.021  12.110 -52.762  0.00  0.00    +0.000 S 
ATOM      2  N   UNL     1     -23.685   9.706 -51.921  0.00  0.00    +0.000 N 
ATOM      3  N   UNL     1     -22.956   9.840 -54.028  0.00  0.00    +0.000 NA
ATOM      4  C   UNL     1     -23.219   8.449 -52.209  0.00  0.00    +0.000 A 
ATOM      5  C   UNL     1     -22.814   8.548 -53.543  0.00  0.00    +0.000 A 
ATOM      6  C   UNL     1     -23.488  10.478 -53.026  0.00  0.00    +0.000 A 
ATOM      7  C   UNL     1     -24.252  10.360 -50.845  0.00  0.00    +0.000 A 
ATOM      8  C   UNL     1     -24.500  11.651 -51.120  0.00  0.00    +0.000 A 
ENDROOT
BRANCH   5  10
ATOM      9  F   UNL     1     -20.905   4.482 -56.881  0.00  0.00    +0.000 F 
ATOM     10  C   UNL     1     -22.327   7.467 -54.394  0.00  0.00    +0.000 A 
ATOM     11  C   UNL     1     -21.047   7.561 -54.963  0.00  0.00    +0.000 A 
ATOM     12  C   UNL     1     -23.125   6.354 -54.710  0.00  0.00    +0.000 A 
ATOM     13  C   UNL     1     -20.565   6.552 -55.802  0.00  0.00    +0.000 A 
ATOM     14  C   UNL     1     -22.638   5.340 -55.537  0.00  0.00    +0.000 A 
ATOM     15  C   UNL     1     -21.363   5.449 -56.075  0.00  0.00    +0.000 A 
ENDBRANCH   5  10
BRANCH   4  17
ATOM     16  N   UNL     1     -24.271   6.701 -51.008  0.00  0.00    +0.000 NA
ATOM     17  C   UNL     1     -23.186   7.338 -51.307  0.00  0.00    +0.000 C 
BRANCH  16  18
ATOM     18  O   UNL     1     -23.946   5.617 -50.174  0.00  0.00    +0.000 OA
BRANCH  18  19
ATOM     19  C   UNL     1     -25.123   4.821 -49.998  0.00  0.00    +0.000 C 
BRANCH  19  22
ATOM     20 CL   UNL     1     -24.374  -0.317 -50.542  0.00  0.00    +0.000 Cl
ATOM     21 CL   UNL     1     -25.345  -0.010 -53.633  0.00  0.00    +0.000 Cl
ATOM     22  C   UNL     1     -25.102   3.604 -50.893  0.00  0.00    +0.000 A 
ATOM     23  C   UNL     1     -24.764   2.334 -50.400  0.00  0.00    +0.000 A 
ATOM     24  C   UNL     1     -25.510   3.720 -52.230  0.00  0.00    +0.000 A 
ATOM     25  C   UNL     1     -24.817   1.207 -51.228  0.00  0.00    +0.000 A 
ATOM     26  C   UNL     1     -25.569   2.597 -53.058  0.00  0.00    +0.000 A 
ATOM     27  C   UNL     1     -25.226   1.337 -52.559  0.00  0.00    +0.000 A 
ENDBRANCH  19  22
ENDBRANCH  18  19
ENDBRANCH  16  18
ENDBRANCH   4  17
TORSDOF 5
ENDMDL
MODEL 6
REMARK VINA RESULT:      -4.6      4.788      7.280
REMARK  Name = 142505361
REMARK  5 active torsions:
REMARK  status: ('A' for Active; 'I' for Inactive)
REMARK    1  A    between atoms: O_5  and  N_8
REMARK    2  A    between atoms: O_5  and  C_21
REMARK    3  A    between atoms: C_9  and  C_14
REMARK    4  A    between atoms: C_10  and  C_12
REMARK    5  A    between atoms: C_20  and  C_21
REMARK                            x       y       z     vdW  Elec       q    Type
REMARK                         _______ _______ _______ _____ _____    ______ ____
ROOT
ATOM      1  S   UNL     1      -6.755  15.485 -59.452  0.00  0.00    +0.000 S 
ATOM      2  N   UNL     1      -8.826  14.005 -59.789  0.00  0.00    +0.000 N 
ATOM      3  N   UNL     1      -8.522  14.330 -57.600  0.00  0.00    +0.000 NA
ATOM      4  C   UNL     1      -9.862  13.334 -59.189  0.00  0.00    +0.000 A 
ATOM      5  C   UNL     1      -9.621  13.514 -57.824  0.00  0.00    +0.000 A 
ATOM      6  C   UNL     1      -8.086  14.580 -58.801  0.00  0.00    +0.000 A 
ATOM      7  C   UNL     1      -8.382  14.253 -61.072  0.00  0.00    +0.000 A 
ATOM      8  C   UNL     1      -7.283  15.025 -61.079  0.00  0.00    +0.000 A 
ENDROOT
BRANCH   5  10
ATOM      9  F   UNL     1     -12.400  11.293 -53.503  0.00  0.00    +0.000 F 
ATOM     10  C   UNL     1     -10.365  12.921 -56.717  0.00  0.00    +0.000 A 
ATOM     11  C   UNL     1     -10.663  13.704 -55.590  0.00  0.00    +0.000 A 
ATOM     12  C   UNL     1     -10.745  11.568 -56.718  0.00  0.00    +0.000 A 
ATOM     13  C   UNL     1     -11.353  13.155 -54.505  0.00  0.00    +0.000 A 
ATOM     14  C   UNL     1     -11.445  11.025 -55.639  0.00  0.00    +0.000 A 
ATOM     15  C   UNL     1     -11.742  11.823 -54.543  0.00  0.00    +0.000 A 
ENDBRANCH   5  10
BRANCH   4  17
ATOM     16  N   UNL     1     -10.705  11.449 -60.348  0.00  0.00    +0.000 NA
ATOM     17  C   UNL     1     -10.910  12.631 -59.864  0.00  0.00    +0.000 C 
BRANCH  16  18
ATOM     18  O   UNL     1     -11.910  10.961 -60.882  0.00  0.00    +0.000 OA
BRANCH  18  19
ATOM     19  C   UNL     1     -12.747  10.554 -59.795  0.00  0.00    +0.000 C 
BRANCH  19  22
ATOM     20 CL   UNL     1     -16.322  13.056 -62.661  0.00  0.00    +0.000 Cl
ATOM     21 CL   UNL     1     -18.373  12.751 -60.153  0.00  0.00    +0.000 Cl
ATOM     22  C   UNL     1     -14.120  11.173 -59.897  0.00  0.00    +0.000 A 
ATOM     23  C   UNL     1     -14.562  11.793 -61.077  0.00  0.00    +0.000 A 
ATOM     24  C   UNL     1     -15.015  11.057 -58.822  0.00  0.00    +0.000 A 
ATOM     25  C   UNL     1     -15.864  12.300 -61.176  0.00  0.00    +0.000 A 
ATOM     26  C   UNL     1     -16.315  11.557 -58.919  0.00  0.00    +0.000 A 
ATOM     27  C   UNL     1     -16.744  12.177 -60.096  0.00  0.00    +0.000 A 
ENDBRANCH  19  22
ENDBRANCH  18  19
ENDBRANCH  16  18
ENDBRANCH   4  17
TORSDOF 5
ENDMDL
MODEL 7
REMARK VINA RESULT:      -4.6     12.443     14.472
REMARK  Name = 142505361
REMARK  5 active torsions:
REMARK  status: ('A' for Active; 'I' for Inactive)
REMARK    1  A    between atoms: O_5  and  N_8
REMARK    2  A    between atoms: O_5  and  C_21
REMARK    3  A    between atoms: C_9  and  C_14
REMARK    4  A    between atoms: C_10  and  C_12
REMARK    5  A    between atoms: C_20  and  C_21
REMARK                            x       y       z     vdW  Elec       q    Type
REMARK                         _______ _______ _______ _____ _____    ______ ____
ROOT
ATOM      1  S   UNL     1      -9.007  22.464 -45.609  0.00  0.00    +0.000 S 
ATOM      2  N   UNL     1      -8.378  20.017 -45.148  0.00  0.00    +0.000 N 
ATOM      3  N   UNL     1     -10.552  20.119 -45.653  0.00  0.00    +0.000 NA
ATOM      4  C   UNL     1      -8.808  18.715 -45.100  0.00  0.00    +0.000 A 
ATOM      5  C   UNL     1     -10.176  18.813 -45.373  0.00  0.00    +0.000 A 
ATOM      6  C   UNL     1      -9.446  20.788 -45.492  0.00  0.00    +0.000 A 
ATOM      7  C   UNL     1      -7.194  20.705 -44.968  0.00  0.00    +0.000 A 
ATOM      8  C   UNL     1      -7.348  22.023 -45.172  0.00  0.00    +0.000 A 
ENDROOT
BRANCH   5  10
ATOM      9  F   UNL     1     -13.981  14.709 -45.373  0.00  0.00    +0.000 F 
ATOM     10  C   UNL     1     -11.154  17.730 -45.349  0.00  0.00    +0.000 A 
ATOM     11  C   UNL     1     -11.561  17.143 -46.558  0.00  0.00    +0.000 A 
ATOM     12  C   UNL     1     -11.746  17.291 -44.153  0.00  0.00    +0.000 A 
ATOM     13  C   UNL     1     -12.515  16.121 -46.566  0.00  0.00    +0.000 A 
ATOM     14  C   UNL     1     -12.688  16.261 -44.161  0.00  0.00    +0.000 A 
ATOM     15  C   UNL     1     -13.065  15.686 -45.368  0.00  0.00    +0.000 A 
ENDBRANCH   5  10
BRANCH   4  17
ATOM     16  N   UNL     1      -7.170  17.122 -45.720  0.00  0.00    +0.000 NA
ATOM     17  C   UNL     1      -7.994  17.571 -44.828  0.00  0.00    +0.000 C 
BRANCH  16  18
ATOM     18  O   UNL     1      -6.445  16.051 -45.170  0.00  0.00    +0.000 OA
BRANCH  18  19
ATOM     19  C   UNL     1      -6.429  16.206 -43.748  0.00  0.00    +0.000 C 
BRANCH  19  22
ATOM     20 CL   UNL     1      -4.374  11.414 -44.008  0.00  0.00    +0.000 Cl
ATOM     21 CL   UNL     1      -3.090  11.934 -41.064  0.00  0.00    +0.000 Cl
ATOM     22  C   UNL     1      -5.657  15.091 -43.082  0.00  0.00    +0.000 A 
ATOM     23  C   UNL     1      -5.404  13.877 -43.739  0.00  0.00    +0.000 A 
ATOM     24  C   UNL     1      -5.103  15.297 -41.810  0.00  0.00    +0.000 A 
ATOM     25  C   UNL     1      -4.627  12.883 -43.132  0.00  0.00    +0.000 A 
ATOM     26  C   UNL     1      -4.324  14.309 -41.204  0.00  0.00    +0.000 A 
ATOM     27  C   UNL     1      -4.081  13.101 -41.863  0.00  0.00    +0.000 A 
ENDBRANCH  19  22
ENDBRANCH  18  19
ENDBRANCH  16  18
ENDBRANCH   4  17
TORSDOF 5
ENDMDL
MODEL 8
REMARK VINA RESULT:      -4.6     12.376     14.699
REMARK  Name = 142505361
REMARK  5 active torsions:
REMARK  status: ('A' for Active; 'I' for Inactive)
REMARK    1  A    between atoms: O_5  and  N_8
REMARK    2  A    between atoms: O_5  and  C_21
REMARK    3  A    between atoms: C_9  and  C_14
REMARK    4  A    between atoms: C_10  and  C_12
REMARK    5  A    between atoms: C_20  and  C_21
REMARK                            x       y       z     vdW  Elec       q    Type
REMARK                         _______ _______ _______ _____ _____    ______ ____
ROOT
ATOM      1  S   UNL     1     -20.002  14.891 -43.024  0.00  0.00    +0.000 S 
ATOM      2  N   UNL     1     -17.957  16.422 -42.763  0.00  0.00    +0.000 N 
ATOM      3  N   UNL     1     -17.717  15.212 -44.625  0.00  0.00    +0.000 NA
ATOM      4  C   UNL     1     -16.766  16.841 -43.300  0.00  0.00    +0.000 A 
ATOM      5  C   UNL     1     -16.618  16.038 -44.435  0.00  0.00    +0.000 A 
ATOM      6  C   UNL     1     -18.471  15.476 -43.597  0.00  0.00    +0.000 A 
ATOM      7  C   UNL     1     -18.737  16.718 -41.663  0.00  0.00    +0.000 A 
ATOM      8  C   UNL     1     -19.865  15.990 -41.642  0.00  0.00    +0.000 A 
ENDROOT
BRANCH   5  10
ATOM      9  F   UNL     1     -12.280  15.830 -47.964  0.00  0.00    +0.000 F 
ATOM     10  C   UNL     1     -15.468  15.991 -45.332  0.00  0.00    +0.000 A 
ATOM     11  C   UNL     1     -15.569  16.563 -46.610  0.00  0.00    +0.000 A 
ATOM     12  C   UNL     1     -14.276  15.339 -44.976  0.00  0.00    +0.000 A 
ATOM     13  C   UNL     1     -14.491  16.510 -47.499  0.00  0.00    +0.000 A 
ATOM     14  C   UNL     1     -13.195  15.299 -45.860  0.00  0.00    +0.000 A 
ATOM     15  C   UNL     1     -13.313  15.884 -47.113  0.00  0.00    +0.000 A 
ENDBRANCH   5  10
BRANCH   4  17
ATOM     16  N   UNL     1     -15.557  18.866 -43.509  0.00  0.00    +0.000 NA
ATOM     17  C   UNL     1     -15.921  17.867 -42.771  0.00  0.00    +0.000 C 
BRANCH  16  18
ATOM     18  O   UNL     1     -14.803  19.758 -42.727  0.00  0.00    +0.000 OA
BRANCH  18  19
ATOM     19  C   UNL     1     -13.594  19.099 -42.338  0.00  0.00    +0.000 C 
BRANCH  19  22
ATOM     20 CL   UNL     1     -12.454  19.908 -47.368  0.00  0.00    +0.000 Cl
ATOM     21 CL   UNL     1      -9.887  17.948 -46.979  0.00  0.00    +0.000 Cl
ATOM     22  C   UNL     1     -12.730  18.783 -43.536  0.00  0.00    +0.000 A 
ATOM     23  C   UNL     1     -12.954  19.386 -44.784  0.00  0.00    +0.000 A 
ATOM     24  C   UNL     1     -11.623  17.934 -43.387  0.00  0.00    +0.000 A 
ATOM     25  C   UNL     1     -12.100  19.133 -45.865  0.00  0.00    +0.000 A 
ATOM     26  C   UNL     1     -10.767  17.684 -44.461  0.00  0.00    +0.000 A 
ATOM     27  C   UNL     1     -11.001  18.284 -45.702  0.00  0.00    +0.000 A 
ENDBRANCH  19  22
ENDBRANCH  18  19
ENDBRANCH  16  18
ENDBRANCH   4  17
TORSDOF 5
ENDMDL
MODEL 9
REMARK VINA RESULT:      -4.5     23.001     24.893
REMARK  Name = 142505361
REMARK  5 active torsions:
REMARK  status: ('A' for Active; 'I' for Inactive)
REMARK    1  A    between atoms: O_5  and  N_8
REMARK    2  A    between atoms: O_5  and  C_21
REMARK    3  A    between atoms: C_9  and  C_14
REMARK    4  A    between atoms: C_10  and  C_12
REMARK    5  A    between atoms: C_20  and  C_21
REMARK                            x       y       z     vdW  Elec       q    Type
REMARK                         _______ _______ _______ _____ _____    ______ ____
ROOT
ATOM      1  S   UNL     1     -15.854   7.716 -35.011  0.00  0.00    +0.000 S 
ATOM      2  N   UNL     1     -13.575   7.920 -33.845  0.00  0.00    +0.000 N 
ATOM      3  N   UNL     1     -13.425   6.376 -35.452  0.00  0.00    +0.000 NA
ATOM      4  C   UNL     1     -12.272   7.496 -33.799  0.00  0.00    +0.000 A 
ATOM      5  C   UNL     1     -12.217   6.501 -34.780  0.00  0.00    +0.000 A 
ATOM      6  C   UNL     1     -14.194   7.235 -34.846  0.00  0.00    +0.000 A 
ATOM      7  C   UNL     1     -14.371   8.835 -33.184  0.00  0.00    +0.000 A 
ATOM      8  C   UNL     1     -15.621   8.855 -33.675  0.00  0.00    +0.000 A 
ENDROOT
BRANCH   5  10
ATOM      9  F   UNL     1      -7.903   3.182 -36.081  0.00  0.00    +0.000 F 
ATOM     10  C   UNL     1     -11.084   5.636 -35.090  0.00  0.00    +0.000 A 
ATOM     11  C   UNL     1     -10.342   5.866 -36.260  0.00  0.00    +0.000 A 
ATOM     12  C   UNL     1     -10.743   4.540 -34.280  0.00  0.00    +0.000 A 
ATOM     13  C   UNL     1      -9.266   5.039 -36.594  0.00  0.00    +0.000 A 
ATOM     14  C   UNL     1      -9.659   3.722 -34.608  0.00  0.00    +0.000 A 
ATOM     15  C   UNL     1      -8.932   3.978 -35.762  0.00  0.00    +0.000 A 
ENDBRANCH   5  10
BRANCH   4  17
ATOM     16  N   UNL     1     -10.935   7.352 -31.851  0.00  0.00    +0.000 NA
ATOM     17  C   UNL     1     -11.255   7.997 -32.926  0.00  0.00    +0.000 C 
BRANCH  16  18
ATOM     18  O   UNL     1      -9.865   8.015 -31.225  0.00  0.00    +0.000 OA
BRANCH  18  19
ATOM     19  C   UNL     1      -9.695   9.286 -31.860  0.00  0.00    +0.000 C 
BRANCH  19  22
ATOM     20 CL   UNL     1      -5.249   9.386 -29.125  0.00  0.00    +0.000 Cl
ATOM     21 CL   UNL     1      -5.240  12.619 -29.485  0.00  0.00    +0.000 Cl
ATOM     22  C   UNL     1      -8.602  10.090 -31.196  0.00  0.00    +0.000 A 
ATOM     23  C   UNL     1      -7.546   9.470 -30.511  0.00  0.00    +0.000 A 
ATOM     24  C   UNL     1      -8.587  11.486 -31.336  0.00  0.00    +0.000 A 
ATOM     25  C   UNL     1      -6.505  10.229 -29.962  0.00  0.00    +0.000 A 
ATOM     26  C   UNL     1      -7.548  12.245 -30.794  0.00  0.00    +0.000 A 
ATOM     27  C   UNL     1      -6.503  11.620 -30.108  0.00  0.00    +0.000 A 
ENDBRANCH  19  22
ENDBRANCH  18  19
ENDBRANCH  16  18
ENDBRANCH   4  17
TORSDOF 5
ENDMDL
MODEL 10
REMARK VINA RESULT:      -4.4     14.121     16.137
REMARK  Name = 142505361
REMARK  5 active torsions:
REMARK  status: ('A' for Active; 'I' for Inactive)
REMARK    1  A    between atoms: O_5  and  N_8
REMARK    2  A    between atoms: O_5  and  C_21
REMARK    3  A    between atoms: C_9  and  C_14
REMARK    4  A    between atoms: C_10  and  C_12
REMARK    5  A    between atoms: C_20  and  C_21
REMARK                            x       y       z     vdW  Elec       q    Type
REMARK                         _______ _______ _______ _____ _____    ______ ____
ROOT
ATOM      1  S   UNL     1       0.967  16.182 -47.621  0.00  0.00    +0.000 S 
ATOM      2  N   UNL     1      -0.285  14.414 -46.241  0.00  0.00    +0.000 N 
ATOM      3  N   UNL     1      -1.570  16.233 -46.416  0.00  0.00    +0.000 NA
ATOM      4  C   UNL     1      -1.438  14.092 -45.571  0.00  0.00    +0.000 A 
ATOM      5  C   UNL     1      -2.202  15.260 -45.655  0.00  0.00    +0.000 A 
ATOM      6  C   UNL     1      -0.433  15.678 -46.725  0.00  0.00    +0.000 A 
ATOM      7  C   UNL     1       0.914  13.805 -46.553  0.00  0.00    +0.000 A 
ATOM      8  C   UNL     1       1.705  14.608 -47.284  0.00  0.00    +0.000 A 
ENDROOT
BRANCH   5  10
ATOM      9  F   UNL     1      -7.200  16.221 -43.327  0.00  0.00    +0.000 F 
ATOM     10  C   UNL     1      -3.492  15.512 -45.021  0.00  0.00    +0.000 A 
ATOM     11  C   UNL     1      -4.620  14.791 -45.445  0.00  0.00    +0.000 A 
ATOM     12  C   UNL     1      -3.654  16.497 -44.032  0.00  0.00    +0.000 A 
ATOM     13  C   UNL     1      -5.873  15.029 -44.871  0.00  0.00    +0.000 A 
ATOM     14  C   UNL     1      -4.902  16.724 -43.451  0.00  0.00    +0.000 A 
ATOM     15  C   UNL     1      -6.000  15.989 -43.876  0.00  0.00    +0.000 A 
ENDBRANCH   5  10
BRANCH   4  17
ATOM     16  N   UNL     1      -1.189  12.522 -43.817  0.00  0.00    +0.000 NA
ATOM     17  C   UNL     1      -1.727  12.835 -44.951  0.00  0.00    +0.000 C 
BRANCH  16  18
ATOM     18  O   UNL     1      -1.698  11.280 -43.400  0.00  0.00    +0.000 OA
BRANCH  18  19
ATOM     19  C   UNL     1      -1.737  11.272 -41.969  0.00  0.00    +0.000 C 
BRANCH  19  22
ATOM     20 CL   UNL     1      -2.520  15.350 -38.804  0.00  0.00    +0.000 Cl
ATOM     21 CL   UNL     1      -5.473  15.662 -40.134  0.00  0.00    +0.000 Cl
ATOM     22  C   UNL     1      -2.666  12.338 -41.439  0.00  0.00    +0.000 A 
ATOM     23  C   UNL     1      -2.253  13.251 -40.456  0.00  0.00    +0.000 A 
ATOM     24  C   UNL     1      -3.945  12.483 -41.996  0.00  0.00    +0.000 A 
ATOM     25  C   UNL     1      -3.105  14.276 -40.026  0.00  0.00    +0.000 A 
ATOM     26  C   UNL     1      -4.796  13.506 -41.574  0.00  0.00    +0.000 A 
ATOM     27  C   UNL     1      -4.378  14.407 -40.590  0.00  0.00    +0.000 A 
ENDBRANCH  19  22
ENDBRANCH  18  19
ENDBRANCH  16  18
ENDBRANCH   4  17
TORSDOF 5
ENDMDL
