MODEL 1
REMARK VINA RESULT:      -6.1      0.000      0.000
REMARK  Name = 142505366
REMARK  6 active torsions:
REMARK  status: ('A' for Active; 'I' for Inactive)
REMARK    1  A    between atoms: O_4  and  N_7
REMARK    2  A    between atoms: O_4  and  C_22
REMARK    3  A    between atoms: C_8  and  C_10
REMARK    4  A    between atoms: C_9  and  C_15
REMARK    5  A    between atoms: C_16  and  C_20
REMARK    6  A    between atoms: C_21  and  C_22
REMARK                            x       y       z     vdW  Elec       q    Type
REMARK                         _______ _______ _______ _____ _____    ______ ____
ROOT
ATOM      1  S   UNL     1       0.768   8.770 -57.738  0.00  0.00    +0.000 S 
ATOM      2  N   UNL     1      -1.369   7.606 -58.561  0.00  0.00    +0.000 N 
ATOM      3  N   UNL     1      -1.143   7.231 -56.371  0.00  0.00    +0.000 NA
ATOM      4  C   UNL     1      -2.276   6.596 -56.860  0.00  0.00    +0.000 A 
ATOM      5  C   UNL     1      -2.466   6.856 -58.221  0.00  0.00    +0.000 A 
ATOM      6  C   UNL     1      -0.641   7.803 -57.426  0.00  0.00    +0.000 A 
ATOM      7  C   UNL     1      -0.857   8.203 -59.695  0.00  0.00    +0.000 A 
ATOM      8  C   UNL     1       0.284   8.864 -59.439  0.00  0.00    +0.000 A 
ENDROOT
BRANCH   4   9
ATOM      9  C   UNL     1      -3.103   5.746 -56.010  0.00  0.00    +0.000 A 
ATOM     10  C   UNL     1      -3.162   4.369 -56.256  0.00  0.00    +0.000 A 
ATOM     11  C   UNL     1      -3.892   6.274 -54.979  0.00  0.00    +0.000 A 
ATOM     12  C   UNL     1      -4.716   4.063 -54.414  0.00  0.00    +0.000 A 
ATOM     13  C   UNL     1      -3.964   3.535 -55.469  0.00  0.00    +0.000 A 
ATOM     14  C   UNL     1      -4.680   5.441 -54.181  0.00  0.00    +0.000 A 
ATOM     15  C   UNL     1      -5.618   3.191 -53.593  0.00  0.00    +0.000 C 
ENDBRANCH   4   9
BRANCH   5  17
ATOM     16  N   UNL     1      -4.172   7.339 -59.787  0.00  0.00    +0.000 NA
ATOM     17  C   UNL     1      -3.521   6.458 -59.098  0.00  0.00    +0.000 C 
BRANCH  16  18
ATOM     18  O   UNL     1      -5.086   6.681 -60.628  0.00  0.00    +0.000 OA
BRANCH  18  19
ATOM     19  C   UNL     1      -5.602   5.549 -59.923  0.00  0.00    +0.000 C 
BRANCH  19  22
ATOM     20 CL   UNL     1      -7.059   0.577 -60.544  0.00  0.00    +0.000 Cl
ATOM     21 CL   UNL     1      -7.157   1.134 -63.748  0.00  0.00    +0.000 Cl
ATOM     22  C   UNL     1      -5.886   4.392 -60.850  0.00  0.00    +0.000 A 
ATOM     23  C   UNL     1      -6.247   3.128 -60.359  0.00  0.00    +0.000 A 
ATOM     24  C   UNL     1      -5.896   4.604 -62.237  0.00  0.00    +0.000 A 
ATOM     25  C   UNL     1      -6.622   2.100 -61.234  0.00  0.00    +0.000 A 
ATOM     26  C   UNL     1      -6.274   3.582 -63.111  0.00  0.00    +0.000 A 
ATOM     27  C   UNL     1      -6.648   2.333 -62.612  0.00  0.00    +0.000 A 
ENDBRANCH  19  22
ENDBRANCH  18  19
ENDBRANCH  16  18
ENDBRANCH   5  17
TORSDOF 5
ENDMDL
MODEL 2
REMARK VINA RESULT:      -5.9     17.302     18.661
REMARK  Name = 142505366
REMARK  6 active torsions:
REMARK  status: ('A' for Active; 'I' for Inactive)
REMARK    1  A    between atoms: O_4  and  N_7
REMARK    2  A    between atoms: O_4  and  C_22
REMARK    3  A    between atoms: C_8  and  C_10
REMARK    4  A    between atoms: C_9  and  C_15
REMARK    5  A    between atoms: C_16  and  C_20
REMARK    6  A    between atoms: C_21  and  C_22
REMARK                            x       y       z     vdW  Elec       q    Type
REMARK                         _______ _______ _______ _____ _____    ______ ____
ROOT
ATOM      1  S   UNL     1     -22.641  13.893 -55.679  0.00  0.00    +0.000 S 
ATOM      2  N   UNL     1     -21.409  11.789 -56.487  0.00  0.00    +0.000 N 
ATOM      3  N   UNL     1     -23.262  11.168 -55.403  0.00  0.00    +0.000 NA
ATOM      4  C   UNL     1     -22.553  10.055 -55.835  0.00  0.00    +0.000 A 
ATOM      5  C   UNL     1     -21.413  10.419 -56.559  0.00  0.00    +0.000 A 
ATOM      6  C   UNL     1     -22.530  12.165 -55.807  0.00  0.00    +0.000 A 
ATOM      7  C   UNL     1     -20.616  12.828 -56.927  0.00  0.00    +0.000 A 
ATOM      8  C   UNL     1     -21.122  14.023 -56.580  0.00  0.00    +0.000 A 
ENDROOT
BRANCH   4   9
ATOM      9  C   UNL     1     -22.982   8.700 -55.506  0.00  0.00    +0.000 A 
ATOM     10  C   UNL     1     -24.044   8.120 -56.210  0.00  0.00    +0.000 A 
ATOM     11  C   UNL     1     -22.397   7.972 -54.461  0.00  0.00    +0.000 A 
ATOM     12  C   UNL     1     -23.871   6.092 -54.882  0.00  0.00    +0.000 A 
ATOM     13  C   UNL     1     -24.488   6.829 -55.898  0.00  0.00    +0.000 A 
ATOM     14  C   UNL     1     -22.828   6.678 -54.160  0.00  0.00    +0.000 A 
ATOM     15  C   UNL     1     -24.367   4.729 -54.504  0.00  0.00    +0.000 C 
ENDBRANCH   4   9
BRANCH   5  17
ATOM     16  N   UNL     1     -19.559   8.950 -56.551  0.00  0.00    +0.000 NA
ATOM     17  C   UNL     1     -20.445   9.607 -57.227  0.00  0.00    +0.000 C 
BRANCH  16  18
ATOM     18  O   UNL     1     -18.794   8.168 -57.435  0.00  0.00    +0.000 OA
BRANCH  18  19
ATOM     19  C   UNL     1     -18.671   6.858 -56.875  0.00  0.00    +0.000 C 
BRANCH  19  22
ATOM     20 CL   UNL     1     -22.972   5.863 -59.656  0.00  0.00    +0.000 Cl
ATOM     21 CL   UNL     1     -23.434   3.247 -57.777  0.00  0.00    +0.000 Cl
ATOM     22  C   UNL     1     -19.931   6.047 -57.061  0.00  0.00    +0.000 A 
ATOM     23  C   UNL     1     -20.825   6.308 -58.110  0.00  0.00    +0.000 A 
ATOM     24  C   UNL     1     -20.165   4.937 -56.235  0.00  0.00    +0.000 A 
ATOM     25  C   UNL     1     -21.925   5.472 -58.338  0.00  0.00    +0.000 A 
ATOM     26  C   UNL     1     -21.259   4.098 -56.463  0.00  0.00    +0.000 A 
ATOM     27  C   UNL     1     -22.134   4.357 -57.520  0.00  0.00    +0.000 A 
ENDBRANCH  19  22
ENDBRANCH  18  19
ENDBRANCH  16  18
ENDBRANCH   5  17
TORSDOF 5
ENDMDL
MODEL 3
REMARK VINA RESULT:      -5.6     23.195     25.815
REMARK  Name = 142505366
REMARK  6 active torsions:
REMARK  status: ('A' for Active; 'I' for Inactive)
REMARK    1  A    between atoms: O_4  and  N_7
REMARK    2  A    between atoms: O_4  and  C_22
REMARK    3  A    between atoms: C_8  and  C_10
REMARK    4  A    between atoms: C_9  and  C_15
REMARK    5  A    between atoms: C_16  and  C_20
REMARK    6  A    between atoms: C_21  and  C_22
REMARK                            x       y       z     vdW  Elec       q    Type
REMARK                         _______ _______ _______ _____ _____    ______ ____
ROOT
ATOM      1  S   UNL     1      -6.479   6.292 -36.946  0.00  0.00    +0.000 S 
ATOM      2  N   UNL     1      -8.269   4.828 -35.826  0.00  0.00    +0.000 N 
ATOM      3  N   UNL     1      -9.066   6.904 -36.041  0.00  0.00    +0.000 NA
ATOM      4  C   UNL     1      -9.997   6.086 -35.416  0.00  0.00    +0.000 A 
ATOM      5  C   UNL     1      -9.540   4.768 -35.314  0.00  0.00    +0.000 A 
ATOM      6  C   UNL     1      -8.059   6.107 -36.249  0.00  0.00    +0.000 A 
ATOM      7  C   UNL     1      -7.215   3.963 -36.036  0.00  0.00    +0.000 A 
ATOM      8  C   UNL     1      -6.173   4.578 -36.621  0.00  0.00    +0.000 A 
ENDROOT
BRANCH   4   9
ATOM      9  C   UNL     1     -11.264   6.610 -34.919  0.00  0.00    +0.000 A 
ATOM     10  C   UNL     1     -12.396   6.587 -35.743  0.00  0.00    +0.000 A 
ATOM     11  C   UNL     1     -11.376   7.194 -33.648  0.00  0.00    +0.000 A 
ATOM     12  C   UNL     1     -13.731   7.646 -34.010  0.00  0.00    +0.000 A 
ATOM     13  C   UNL     1     -13.618   7.104 -35.295  0.00  0.00    +0.000 A 
ATOM     14  C   UNL     1     -12.598   7.694 -33.194  0.00  0.00    +0.000 A 
ATOM     15  C   UNL     1     -15.019   8.248 -33.536  0.00  0.00    +0.000 C 
ENDBRANCH   4   9
BRANCH   5  17
ATOM     16  N   UNL     1     -11.113   3.010 -35.486  0.00  0.00    +0.000 NA
ATOM     17  C   UNL     1     -10.188   3.602 -34.802  0.00  0.00    +0.000 C 
BRANCH  16  18
ATOM     18  O   UNL     1     -11.518   1.850 -34.802  0.00  0.00    +0.000 OA
BRANCH  18  19
ATOM     19  C   UNL     1     -11.849   2.218 -33.461  0.00  0.00    +0.000 C 
BRANCH  19  22
ATOM     20 CL   UNL     1     -16.917   0.977 -33.347  0.00  0.00    +0.000 Cl
ATOM     21 CL   UNL     1     -17.527   4.060 -32.502  0.00  0.00    +0.000 Cl
ATOM     22  C   UNL     1     -13.287   2.664 -33.340  0.00  0.00    +0.000 A 
ATOM     23  C   UNL     1     -14.351   1.754 -33.441  0.00  0.00    +0.000 A 
ATOM     24  C   UNL     1     -13.570   3.999 -33.013  0.00  0.00    +0.000 A 
ATOM     25  C   UNL     1     -15.669   2.164 -33.209  0.00  0.00    +0.000 A 
ATOM     26  C   UNL     1     -14.885   4.410 -32.776  0.00  0.00    +0.000 A 
ATOM     27  C   UNL     1     -15.934   3.493 -32.862  0.00  0.00    +0.000 A 
ENDBRANCH  19  22
ENDBRANCH  18  19
ENDBRANCH  16  18
ENDBRANCH   5  17
TORSDOF 5
ENDMDL
MODEL 4
REMARK VINA RESULT:      -5.6     18.880     21.281
REMARK  Name = 142505366
REMARK  6 active torsions:
REMARK  status: ('A' for Active; 'I' for Inactive)
REMARK    1  A    between atoms: O_4  and  N_7
REMARK    2  A    between atoms: O_4  and  C_22
REMARK    3  A    between atoms: C_8  and  C_10
REMARK    4  A    between atoms: C_9  and  C_15
REMARK    5  A    between atoms: C_16  and  C_20
REMARK    6  A    between atoms: C_21  and  C_22
REMARK                            x       y       z     vdW  Elec       q    Type
REMARK                         _______ _______ _______ _____ _____    ______ ____
ROOT
ATOM      1  S   UNL     1     -25.077   3.021 -55.930  0.00  0.00    +0.000 S 
ATOM      2  N   UNL     1     -24.063   4.979 -54.612  0.00  0.00    +0.000 N 
ATOM      3  N   UNL     1     -22.905   4.706 -56.504  0.00  0.00    +0.000 NA
ATOM      4  C   UNL     1     -22.371   5.742 -55.749  0.00  0.00    +0.000 A 
ATOM      5  C   UNL     1     -23.108   5.964 -54.582  0.00  0.00    +0.000 A 
ATOM      6  C   UNL     1     -23.896   4.285 -55.774  0.00  0.00    +0.000 A 
ATOM      7  C   UNL     1     -25.108   4.551 -53.821  0.00  0.00    +0.000 A 
ATOM      8  C   UNL     1     -25.757   3.510 -54.370  0.00  0.00    +0.000 A 
ENDROOT
BRANCH   4   9
ATOM      9  C   UNL     1     -21.163   6.446 -56.165  0.00  0.00    +0.000 A 
ATOM     10  C   UNL     1     -21.250   7.774 -56.601  0.00  0.00    +0.000 A 
ATOM     11  C   UNL     1     -19.911   5.814 -56.196  0.00  0.00    +0.000 A 
ATOM     12  C   UNL     1     -18.856   7.840 -57.012  0.00  0.00    +0.000 A 
ATOM     13  C   UNL     1     -20.108   8.464 -57.024  0.00  0.00    +0.000 A 
ATOM     14  C   UNL     1     -18.769   6.507 -56.603  0.00  0.00    +0.000 A 
ATOM     15  C   UNL     1     -17.633   8.550 -57.509  0.00  0.00    +0.000 C 
ENDBRANCH   4   9
BRANCH   5  17
ATOM     16  N   UNL     1     -23.844   7.874 -53.397  0.00  0.00    +0.000 NA
ATOM     17  C   UNL     1     -22.950   6.954 -53.564  0.00  0.00    +0.000 C 
BRANCH  16  18
ATOM     18  O   UNL     1     -23.494   8.657 -52.283  0.00  0.00    +0.000 OA
BRANCH  18  19
ATOM     19  C   UNL     1     -22.689   7.856 -51.413  0.00  0.00    +0.000 C 
BRANCH  19  22
ATOM     20 CL   UNL     1     -25.174  10.437 -47.619  0.00  0.00    +0.000 Cl
ATOM     21 CL   UNL     1     -25.063   7.704 -45.856  0.00  0.00    +0.000 Cl
ATOM     22  C   UNL     1     -23.193   7.892 -49.990  0.00  0.00    +0.000 A 
ATOM     23  C   UNL     1     -23.833   9.026 -49.465  0.00  0.00    +0.000 A 
ATOM     24  C   UNL     1     -23.119   6.734 -49.202  0.00  0.00    +0.000 A 
ATOM     25  C   UNL     1     -24.398   9.000 -48.184  0.00  0.00    +0.000 A 
ATOM     26  C   UNL     1     -23.687   6.704 -47.925  0.00  0.00    +0.000 A 
ATOM     27  C   UNL     1     -24.336   7.831 -47.418  0.00  0.00    +0.000 A 
ENDBRANCH  19  22
ENDBRANCH  18  19
ENDBRANCH  16  18
ENDBRANCH   5  17
TORSDOF 5
ENDMDL
MODEL 5
REMARK VINA RESULT:      -5.5     24.403     27.920
REMARK  Name = 142505366
REMARK  6 active torsions:
REMARK  status: ('A' for Active; 'I' for Inactive)
REMARK    1  A    between atoms: O_4  and  N_7
REMARK    2  A    between atoms: O_4  and  C_22
REMARK    3  A    between atoms: C_8  and  C_10
REMARK    4  A    between atoms: C_9  and  C_15
REMARK    5  A    between atoms: C_16  and  C_20
REMARK    6  A    between atoms: C_21  and  C_22
REMARK                            x       y       z     vdW  Elec       q    Type
REMARK                         _______ _______ _______ _____ _____    ______ ____
ROOT
ATOM      1  S   UNL     1     -12.540  11.279 -31.004  0.00  0.00    +0.000 S 
ATOM      2  N   UNL     1     -14.134   9.875 -32.449  0.00  0.00    +0.000 N 
ATOM      3  N   UNL     1     -12.042   9.165 -32.784  0.00  0.00    +0.000 NA
ATOM      4  C   UNL     1     -12.934   8.445 -33.568  0.00  0.00    +0.000 A 
ATOM      5  C   UNL     1     -14.256   8.839 -33.340  0.00  0.00    +0.000 A 
ATOM      6  C   UNL     1     -12.809  10.005 -32.153  0.00  0.00    +0.000 A 
ATOM      7  C   UNL     1     -14.968  10.755 -31.791  0.00  0.00    +0.000 A 
ATOM      8  C   UNL     1     -14.285  11.580 -30.981  0.00  0.00    +0.000 A 
ENDROOT
BRANCH   4   9
ATOM      9  C   UNL     1     -12.476   7.440 -34.521  0.00  0.00    +0.000 A 
ATOM     10  C   UNL     1     -11.757   7.836 -35.655  0.00  0.00    +0.000 A 
ATOM     11  C   UNL     1     -12.781   6.080 -34.366  0.00  0.00    +0.000 A 
ATOM     12  C   UNL     1     -11.597   5.532 -36.411  0.00  0.00    +0.000 A 
ATOM     13  C   UNL     1     -11.325   6.892 -36.594  0.00  0.00    +0.000 A 
ATOM     14  C   UNL     1     -12.336   5.135 -35.293  0.00  0.00    +0.000 A 
ATOM     15  C   UNL     1     -11.184   4.516 -37.432  0.00  0.00    +0.000 C 
ENDBRANCH   4   9
BRANCH   5  17
ATOM     16  N   UNL     1     -15.941   8.782 -34.999  0.00  0.00    +0.000 NA
ATOM     17  C   UNL     1     -15.478   8.330 -33.879  0.00  0.00    +0.000 C 
BRANCH  16  18
ATOM     18  O   UNL     1     -17.095   8.058 -35.345  0.00  0.00    +0.000 OA
BRANCH  18  19
ATOM     19  C   UNL     1     -18.208   8.956 -35.316  0.00  0.00    +0.000 C 
BRANCH  19  22
ATOM     20 CL   UNL     1     -23.377   8.453 -34.812  0.00  0.00    +0.000 Cl
ATOM     21 CL   UNL     1     -22.813   6.185 -32.548  0.00  0.00    +0.000 Cl
ATOM     22  C   UNL     1     -19.383   8.369 -34.570  0.00  0.00    +0.000 A 
ATOM     23  C   UNL     1     -20.706   8.671 -34.929  0.00  0.00    +0.000 A 
ATOM     24  C   UNL     1     -19.157   7.417 -33.565  0.00  0.00    +0.000 A 
ATOM     25  C   UNL     1     -21.781   8.027 -34.305  0.00  0.00    +0.000 A 
ATOM     26  C   UNL     1     -20.228   6.770 -32.944  0.00  0.00    +0.000 A 
ATOM     27  C   UNL     1     -21.541   7.064 -33.320  0.00  0.00    +0.000 A 
ENDBRANCH  19  22
ENDBRANCH  18  19
ENDBRANCH  16  18
ENDBRANCH   5  17
TORSDOF 5
ENDMDL
MODEL 6
REMARK VINA RESULT:      -5.5     24.537     28.075
REMARK  Name = 142505366
REMARK  6 active torsions:
REMARK  status: ('A' for Active; 'I' for Inactive)
REMARK    1  A    between atoms: O_4  and  N_7
REMARK    2  A    between atoms: O_4  and  C_22
REMARK    3  A    between atoms: C_8  and  C_10
REMARK    4  A    between atoms: C_9  and  C_15
REMARK    5  A    between atoms: C_16  and  C_20
REMARK    6  A    between atoms: C_21  and  C_22
REMARK                            x       y       z     vdW  Elec       q    Type
REMARK                         _______ _______ _______ _____ _____    ______ ____
ROOT
ATOM      1  S   UNL     1     -17.333   4.229 -30.057  0.00  0.00    +0.000 S 
ATOM      2  N   UNL     1     -16.591   5.592 -32.104  0.00  0.00    +0.000 N 
ATOM      3  N   UNL     1     -18.755   5.989 -31.719  0.00  0.00    +0.000 NA
ATOM      4  C   UNL     1     -18.321   6.691 -32.835  0.00  0.00    +0.000 A 
ATOM      5  C   UNL     1     -16.956   6.497 -33.069  0.00  0.00    +0.000 A 
ATOM      6  C   UNL     1     -17.691   5.348 -31.336  0.00  0.00    +0.000 A 
ATOM      7  C   UNL     1     -15.448   4.924 -31.717  0.00  0.00    +0.000 A 
ATOM      8  C   UNL     1     -15.664   4.147 -30.643  0.00  0.00    +0.000 A 
ENDROOT
BRANCH   4   9
ATOM      9  C   UNL     1     -19.240   7.486 -33.644  0.00  0.00    +0.000 A 
ATOM     10  C   UNL     1     -18.732   8.441 -34.533  0.00  0.00    +0.000 A 
ATOM     11  C   UNL     1     -20.631   7.364 -33.519  0.00  0.00    +0.000 A 
ATOM     12  C   UNL     1     -20.980   9.073 -35.204  0.00  0.00    +0.000 A 
ATOM     13  C   UNL     1     -19.593   9.231 -35.303  0.00  0.00    +0.000 A 
ATOM     14  C   UNL     1     -21.491   8.139 -34.300  0.00  0.00    +0.000 A 
ATOM     15  C   UNL     1     -21.915   9.945 -35.986  0.00  0.00    +0.000 C 
ENDBRANCH   4   9
BRANCH   5  17
ATOM     16  N   UNL     1     -15.206   7.943 -33.731  0.00  0.00    +0.000 NA
ATOM     17  C   UNL     1     -16.098   7.066 -34.059  0.00  0.00    +0.000 C 
BRANCH  16  18
ATOM     18  O   UNL     1     -14.444   8.271 -34.866  0.00  0.00    +0.000 OA
BRANCH  18  19
ATOM     19  C   UNL     1     -14.072   7.052 -35.517  0.00  0.00    +0.000 C 
BRANCH  19  22
ATOM     20 CL   UNL     1      -9.953   4.317 -37.183  0.00  0.00    +0.000 Cl
ATOM     21 CL   UNL     1      -8.068   6.763 -36.157  0.00  0.00    +0.000 Cl
ATOM     22  C   UNL     1     -12.573   6.892 -35.593  0.00  0.00    +0.000 A 
ATOM     23  C   UNL     1     -11.983   5.785 -36.224  0.00  0.00    +0.000 A 
ATOM     24  C   UNL     1     -11.743   7.920 -35.122  0.00  0.00    +0.000 A 
ATOM     25  C   UNL     1     -10.595   5.711 -36.390  0.00  0.00    +0.000 A 
ATOM     26  C   UNL     1     -10.358   7.851 -35.291  0.00  0.00    +0.000 A 
ATOM     27  C   UNL     1      -9.782   6.754 -35.934  0.00  0.00    +0.000 A 
ENDBRANCH  19  22
ENDBRANCH  18  19
ENDBRANCH  16  18
ENDBRANCH   5  17
TORSDOF 5
ENDMDL
MODEL 7
REMARK VINA RESULT:      -5.5      3.881      7.229
REMARK  Name = 142505366
REMARK  6 active torsions:
REMARK  status: ('A' for Active; 'I' for Inactive)
REMARK    1  A    between atoms: O_4  and  N_7
REMARK    2  A    between atoms: O_4  and  C_22
REMARK    3  A    between atoms: C_8  and  C_10
REMARK    4  A    between atoms: C_9  and  C_15
REMARK    5  A    between atoms: C_16  and  C_20
REMARK    6  A    between atoms: C_21  and  C_22
REMARK                            x       y       z     vdW  Elec       q    Type
REMARK                         _______ _______ _______ _____ _____    ______ ____
ROOT
ATOM      1  S   UNL     1      -3.660   2.585 -61.352  0.00  0.00    +0.000 S 
ATOM      2  N   UNL     1      -4.247   3.252 -58.941  0.00  0.00    +0.000 N 
ATOM      3  N   UNL     1      -2.506   4.474 -59.624  0.00  0.00    +0.000 NA
ATOM      4  C   UNL     1      -2.839   4.789 -58.314  0.00  0.00    +0.000 A 
ATOM      5  C   UNL     1      -3.957   4.070 -57.879  0.00  0.00    +0.000 A 
ATOM      6  C   UNL     1      -3.366   3.550 -59.938  0.00  0.00    +0.000 A 
ATOM      7  C   UNL     1      -5.170   2.275 -59.250  0.00  0.00    +0.000 A 
ATOM      8  C   UNL     1      -5.000   1.804 -60.497  0.00  0.00    +0.000 A 
ENDROOT
BRANCH   4   9
ATOM      9  C   UNL     1      -2.051   5.735 -57.531  0.00  0.00    +0.000 A 
ATOM     10  C   UNL     1      -2.245   7.110 -57.707  0.00  0.00    +0.000 A 
ATOM     11  C   UNL     1      -1.057   5.310 -56.638  0.00  0.00    +0.000 A 
ATOM     12  C   UNL     1      -0.526   7.606 -56.062  0.00  0.00    +0.000 A 
ATOM     13  C   UNL     1      -1.487   8.038 -56.983  0.00  0.00    +0.000 A 
ATOM     14  C   UNL     1      -0.312   6.234 -55.902  0.00  0.00    +0.000 A 
ATOM     15  C   UNL     1       0.327   8.587 -55.316  0.00  0.00    +0.000 C 
ENDBRANCH   4   9
BRANCH   5  17
ATOM     16  N   UNL     1      -4.393   3.291 -55.689  0.00  0.00    +0.000 NA
ATOM     17  C   UNL     1      -4.666   4.125 -56.639  0.00  0.00    +0.000 C 
BRANCH  16  18
ATOM     18  O   UNL     1      -5.163   3.617 -54.558  0.00  0.00    +0.000 OA
BRANCH  18  19
ATOM     19  C   UNL     1      -4.557   3.001 -53.417  0.00  0.00    +0.000 C 
BRANCH  19  22
ATOM     20 CL   UNL     1      -7.975  -0.830 -54.348  0.00  0.00    +0.000 Cl
ATOM     21 CL   UNL     1      -7.465  -1.859 -51.303  0.00  0.00    +0.000 Cl
ATOM     22  C   UNL     1      -5.386   1.853 -52.893  0.00  0.00    +0.000 A 
ATOM     23  C   UNL     1      -6.257   1.134 -53.726  0.00  0.00    +0.000 A 
ATOM     24  C   UNL     1      -5.206   1.419 -51.571  0.00  0.00    +0.000 A 
ATOM     25  C   UNL     1      -6.927  -0.001 -53.253  0.00  0.00    +0.000 A 
ATOM     26  C   UNL     1      -5.869   0.284 -51.098  0.00  0.00    +0.000 A 
ATOM     27  C   UNL     1      -6.721  -0.434 -51.939  0.00  0.00    +0.000 A 
ENDBRANCH  19  22
ENDBRANCH  18  19
ENDBRANCH  16  18
ENDBRANCH   5  17
TORSDOF 5
ENDMDL
MODEL 8
REMARK VINA RESULT:      -5.4     24.325     26.935
REMARK  Name = 142505366
REMARK  6 active torsions:
REMARK  status: ('A' for Active; 'I' for Inactive)
REMARK    1  A    between atoms: O_4  and  N_7
REMARK    2  A    between atoms: O_4  and  C_22
REMARK    3  A    between atoms: C_8  and  C_10
REMARK    4  A    between atoms: C_9  and  C_15
REMARK    5  A    between atoms: C_16  and  C_20
REMARK    6  A    between atoms: C_21  and  C_22
REMARK                            x       y       z     vdW  Elec       q    Type
REMARK                         _______ _______ _______ _____ _____    ______ ____
ROOT
ATOM      1  S   UNL     1     -17.520   3.597 -30.985  0.00  0.00    +0.000 S 
ATOM      2  N   UNL     1     -15.380   3.082 -32.309  0.00  0.00    +0.000 N 
ATOM      3  N   UNL     1     -15.621   5.298 -32.164  0.00  0.00    +0.000 NA
ATOM      4  C   UNL     1     -14.485   4.977 -32.896  0.00  0.00    +0.000 A 
ATOM      5  C   UNL     1     -14.286   3.595 -32.960  0.00  0.00    +0.000 A 
ATOM      6  C   UNL     1     -16.115   4.135 -31.854  0.00  0.00    +0.000 A 
ATOM      7  C   UNL     1     -15.883   1.837 -31.993  0.00  0.00    +0.000 A 
ATOM      8  C   UNL     1     -17.025   1.925 -31.291  0.00  0.00    +0.000 A 
ENDROOT
BRANCH   4   9
ATOM      9  C   UNL     1     -13.666   6.007 -33.525  0.00  0.00    +0.000 A 
ATOM     10  C   UNL     1     -14.106   6.619 -34.705  0.00  0.00    +0.000 A 
ATOM     11  C   UNL     1     -12.411   6.369 -33.014  0.00  0.00    +0.000 A 
ATOM     12  C   UNL     1     -12.097   7.981 -34.799  0.00  0.00    +0.000 A 
ATOM     13  C   UNL     1     -13.328   7.595 -35.339  0.00  0.00    +0.000 A 
ATOM     14  C   UNL     1     -11.641   7.354 -33.636  0.00  0.00    +0.000 A 
ATOM     15  C   UNL     1     -11.230   8.988 -35.493  0.00  0.00    +0.000 C 
ENDBRANCH   4   9
BRANCH   5  17
ATOM     16  N   UNL     1     -12.046   2.837 -33.022  0.00  0.00    +0.000 NA
ATOM     17  C   UNL     1     -13.226   2.841 -33.552  0.00  0.00    +0.000 C 
BRANCH  16  18
ATOM     18  O   UNL     1     -11.222   1.954 -33.741  0.00  0.00    +0.000 OA
BRANCH  18  19
ATOM     19  C   UNL     1     -11.252   2.341 -35.118  0.00  0.00    +0.000 C 
BRANCH  19  22
ATOM     20 CL   UNL     1      -6.667   4.769 -34.563  0.00  0.00    +0.000 Cl
ATOM     21 CL   UNL     1      -7.761   7.042 -36.619  0.00  0.00    +0.000 Cl
ATOM     22  C   UNL     1     -10.393   3.555 -35.379  0.00  0.00    +0.000 A 
ATOM     23  C   UNL     1      -9.086   3.653 -34.874  0.00  0.00    +0.000 A 
ATOM     24  C   UNL     1     -10.863   4.564 -36.233  0.00  0.00    +0.000 A 
ATOM     25  C   UNL     1      -8.263   4.730 -35.224  0.00  0.00    +0.000 A 
ATOM     26  C   UNL     1     -10.041   5.637 -36.587  0.00  0.00    +0.000 A 
ATOM     27  C   UNL     1      -8.738   5.717 -36.094  0.00  0.00    +0.000 A 
ENDBRANCH  19  22
ENDBRANCH  18  19
ENDBRANCH  16  18
ENDBRANCH   5  17
TORSDOF 5
ENDMDL
MODEL 9
REMARK VINA RESULT:      -5.4     18.410     20.416
REMARK  Name = 142505366
REMARK  6 active torsions:
REMARK  status: ('A' for Active; 'I' for Inactive)
REMARK    1  A    between atoms: O_4  and  N_7
REMARK    2  A    between atoms: O_4  and  C_22
REMARK    3  A    between atoms: C_8  and  C_10
REMARK    4  A    between atoms: C_9  and  C_15
REMARK    5  A    between atoms: C_16  and  C_20
REMARK    6  A    between atoms: C_21  and  C_22
REMARK                            x       y       z     vdW  Elec       q    Type
REMARK                         _______ _______ _______ _____ _____    ______ ____
ROOT
ATOM      1  S   UNL     1     -25.126   1.515 -57.854  0.00  0.00    +0.000 S 
ATOM      2  N   UNL     1     -24.784   3.657 -56.477  0.00  0.00    +0.000 N 
ATOM      3  N   UNL     1     -23.063   3.421 -57.883  0.00  0.00    +0.000 NA
ATOM      4  C   UNL     1     -22.903   4.557 -57.102  0.00  0.00    +0.000 A 
ATOM      5  C   UNL     1     -23.992   4.754 -56.247  0.00  0.00    +0.000 A 
ATOM      6  C   UNL     1     -24.188   2.923 -57.460  0.00  0.00    +0.000 A 
ATOM      7  C   UNL     1     -25.979   3.150 -56.012  0.00  0.00    +0.000 A 
ATOM      8  C   UNL     1     -26.312   2.006 -56.634  0.00  0.00    +0.000 A 
ENDROOT
BRANCH   4   9
ATOM      9  C   UNL     1     -21.702   5.381 -57.188  0.00  0.00    +0.000 A 
ATOM     10  C   UNL     1     -20.733   5.301 -56.181  0.00  0.00    +0.000 A 
ATOM     11  C   UNL     1     -21.508   6.301 -58.229  0.00  0.00    +0.000 A 
ATOM     12  C   UNL     1     -19.376   6.982 -57.294  0.00  0.00    +0.000 A 
ATOM     13  C   UNL     1     -19.582   6.097 -56.230  0.00  0.00    +0.000 A 
ATOM     14  C   UNL     1     -20.353   7.083 -58.288  0.00  0.00    +0.000 A 
ATOM     15  C   UNL     1     -18.173   7.875 -57.335  0.00  0.00    +0.000 C 
ENDBRANCH   4   9
BRANCH   5  17
ATOM     16  N   UNL     1     -23.769   5.791 -54.133  0.00  0.00    +0.000 NA
ATOM     17  C   UNL     1     -24.265   5.813 -55.327  0.00  0.00    +0.000 C 
BRANCH  16  18
ATOM     18  O   UNL     1     -24.114   6.983 -53.471  0.00  0.00    +0.000 OA
BRANCH  18  19
ATOM     19  C   UNL     1     -22.913   7.720 -53.230  0.00  0.00    +0.000 C 
BRANCH  19  22
ATOM     20 CL   UNL     1     -23.592  12.817 -54.118  0.00  0.00    +0.000 Cl
ATOM     21 CL   UNL     1     -21.907  12.437 -56.875  0.00  0.00    +0.000 Cl
ATOM     22  C   UNL     1     -22.780   8.898 -54.166  0.00  0.00    +0.000 A 
ATOM     23  C   UNL     1     -23.238  10.176 -53.808  0.00  0.00    +0.000 A 
ATOM     24  C   UNL     1     -22.089   8.744 -55.377  0.00  0.00    +0.000 A 
ATOM     25  C   UNL     1     -23.000  11.279 -54.637  0.00  0.00    +0.000 A 
ATOM     26  C   UNL     1     -21.847   9.844 -56.203  0.00  0.00    +0.000 A 
ATOM     27  C   UNL     1     -22.291  11.114 -55.831  0.00  0.00    +0.000 A 
ENDBRANCH  19  22
ENDBRANCH  18  19
ENDBRANCH  16  18
ENDBRANCH   5  17
TORSDOF 5
ENDMDL
MODEL 10
REMARK VINA RESULT:      -5.4     18.181     20.252
REMARK  Name = 142505366
REMARK  6 active torsions:
REMARK  status: ('A' for Active; 'I' for Inactive)
REMARK    1  A    between atoms: O_4  and  N_7
REMARK    2  A    between atoms: O_4  and  C_22
REMARK    3  A    between atoms: C_8  and  C_10
REMARK    4  A    between atoms: C_9  and  C_15
REMARK    5  A    between atoms: C_16  and  C_20
REMARK    6  A    between atoms: C_21  and  C_22
REMARK                            x       y       z     vdW  Elec       q    Type
REMARK                         _______ _______ _______ _____ _____    ______ ____
ROOT
ATOM      1  S   UNL     1     -17.470  16.748 -53.797  0.00  0.00    +0.000 S 
ATOM      2  N   UNL     1     -17.474  16.480 -51.242  0.00  0.00    +0.000 N 
ATOM      3  N   UNL     1     -15.458  17.193 -51.889  0.00  0.00    +0.000 NA
ATOM      4  C   UNL     1     -15.493  17.011 -50.513  0.00  0.00    +0.000 A 
ATOM      5  C   UNL     1     -16.760  16.611 -50.078  0.00  0.00    +0.000 A 
ATOM      6  C   UNL     1     -16.654  16.851 -52.267  0.00  0.00    +0.000 A 
ATOM      7  C   UNL     1     -18.749  16.113 -51.618  0.00  0.00    +0.000 A 
ATOM      8  C   UNL     1     -18.921  16.193 -52.948  0.00  0.00    +0.000 A 
ENDROOT
BRANCH   4   9
ATOM      9  C   UNL     1     -14.305  17.197 -49.687  0.00  0.00    +0.000 A 
ATOM     10  C   UNL     1     -14.120  18.403 -49.000  0.00  0.00    +0.000 A 
ATOM     11  C   UNL     1     -13.303  16.219 -49.600  0.00  0.00    +0.000 A 
ATOM     12  C   UNL     1     -12.004  17.615 -48.102  0.00  0.00    +0.000 A 
ATOM     13  C   UNL     1     -12.978  18.613 -48.218  0.00  0.00    +0.000 A 
ATOM     14  C   UNL     1     -12.172  16.420 -48.807  0.00  0.00    +0.000 A 
ATOM     15  C   UNL     1     -10.753  17.844 -47.308  0.00  0.00    +0.000 C 
ENDBRANCH   4   9
BRANCH   5  17
ATOM     16  N   UNL     1     -16.773  15.406 -48.043  0.00  0.00    +0.000 NA
ATOM     17  C   UNL     1     -17.250  16.373 -48.757  0.00  0.00    +0.000 C 
BRANCH  16  18
ATOM     18  O   UNL     1     -17.357  15.447 -46.765  0.00  0.00    +0.000 OA
BRANCH  18  19
ATOM     19  C   UNL     1     -16.577  14.622 -45.894  0.00  0.00    +0.000 C 
BRANCH  19  22
ATOM     20 CL   UNL     1     -14.363  18.045 -42.636  0.00  0.00    +0.000 Cl
ATOM     21 CL   UNL     1     -11.472  17.050 -43.751  0.00  0.00    +0.000 Cl
ATOM     22  C   UNL     1     -15.333  15.332 -45.414  0.00  0.00    +0.000 A 
ATOM     23  C   UNL     1     -15.384  16.302 -44.401  0.00  0.00    +0.000 A 
ATOM     24  C   UNL     1     -14.081  14.942 -45.912  0.00  0.00    +0.000 A 
ATOM     25  C   UNL     1     -14.209  16.862 -43.887  0.00  0.00    +0.000 A 
ATOM     26  C   UNL     1     -12.906  15.497 -45.397  0.00  0.00    +0.000 A 
ATOM     27  C   UNL     1     -12.967  16.448 -44.377  0.00  0.00    +0.000 A 
ENDBRANCH  19  22
ENDBRANCH  18  19
ENDBRANCH  16  18
ENDBRANCH   5  17
TORSDOF 5
ENDMDL
