MODEL 1
REMARK VINA RESULT:      -6.4      0.000      0.000
REMARK  Name = 142505355
REMARK  5 active torsions:
REMARK  status: ('A' for Active; 'I' for Inactive)
REMARK    1  A    between atoms: O_5  and  N_8
REMARK    2  A    between atoms: O_5  and  C_21
REMARK    3  A    between atoms: C_9  and  C_14
REMARK    4  A    between atoms: C_10  and  C_12
REMARK    5  A    between atoms: C_20  and  C_21
REMARK                            x       y       z     vdW  Elec       q    Type
REMARK                         _______ _______ _______ _____ _____    ______ ____
ROOT
ATOM      1  S   UNL     1     -12.204 -11.483  20.438  0.00  0.00    +0.000 S 
ATOM      2  N   UNL     1     -10.498 -10.744  18.663  0.00  0.00    +0.000 N 
ATOM      3  N   UNL     1     -12.358  -9.526  18.434  0.00  0.00    +0.000 NA
ATOM      4  C   UNL     1     -10.216  -9.865  17.647  0.00  0.00    +0.000 A 
ATOM      5  C   UNL     1     -11.410  -9.152  17.495  0.00  0.00    +0.000 A 
ATOM      6  C   UNL     1     -11.762 -10.477  19.095  0.00  0.00    +0.000 A 
ATOM      7  C   UNL     1      -9.847 -11.741  19.358  0.00  0.00    +0.000 A 
ATOM      8  C   UNL     1     -10.611 -12.248  20.342  0.00  0.00    +0.000 A 
ENDROOT
BRANCH   5  10
ATOM      9 BR   UNL     1     -12.469  -4.747  13.333  0.00  0.00    +0.000 Br
ATOM     10  C   UNL     1     -11.688  -8.116  16.507  0.00  0.00    +0.000 A 
ATOM     11  C   UNL     1     -11.071  -6.863  16.631  0.00  0.00    +0.000 A 
ATOM     12  C   UNL     1     -12.583  -8.326  15.448  0.00  0.00    +0.000 A 
ATOM     13  C   UNL     1     -11.307  -5.856  15.690  0.00  0.00    +0.000 A 
ATOM     14  C   UNL     1     -12.811  -7.324  14.499  0.00  0.00    +0.000 A 
ATOM     15  C   UNL     1     -12.166  -6.096  14.622  0.00  0.00    +0.000 A 
ENDBRANCH   5  10
BRANCH   4  17
ATOM     16  N   UNL     1      -7.931  -9.183  17.550  0.00  0.00    +0.000 NA
ATOM     17  C   UNL     1      -8.962  -9.714  16.972  0.00  0.00    +0.000 C 
BRANCH  16  18
ATOM     18  O   UNL     1      -6.860  -9.198  16.635  0.00  0.00    +0.000 OA
BRANCH  18  19
ATOM     19  C   UNL     1      -5.975 -10.273  16.961  0.00  0.00    +0.000 C 
BRANCH  19  22
ATOM     20 CL   UNL     1      -0.983 -10.913  15.642  0.00  0.00    +0.000 Cl
ATOM     21 CL   UNL     1      -1.905 -10.886  12.522  0.00  0.00    +0.000 Cl
ATOM     22  C   UNL     1      -4.952 -10.422  15.861  0.00  0.00    +0.000 A 
ATOM     23  C   UNL     1      -3.592 -10.579  16.176  0.00  0.00    +0.000 A 
ATOM     24  C   UNL     1      -5.336 -10.417  14.514  0.00  0.00    +0.000 A 
ATOM     25  C   UNL     1      -2.633 -10.724  15.165  0.00  0.00    +0.000 A 
ATOM     26  C   UNL     1      -4.380 -10.563  13.502  0.00  0.00    +0.000 A 
ATOM     27  C   UNL     1      -3.029 -10.717  13.824  0.00  0.00    +0.000 A 
ENDBRANCH  19  22
ENDBRANCH  18  19
ENDBRANCH  16  18
ENDBRANCH   4  17
TORSDOF 5
ENDMDL
MODEL 2
REMARK VINA RESULT:      -6.4     28.366     30.529
REMARK  Name = 142505355
REMARK  5 active torsions:
REMARK  status: ('A' for Active; 'I' for Inactive)
REMARK    1  A    between atoms: O_5  and  N_8
REMARK    2  A    between atoms: O_5  and  C_21
REMARK    3  A    between atoms: C_9  and  C_14
REMARK    4  A    between atoms: C_10  and  C_12
REMARK    5  A    between atoms: C_20  and  C_21
REMARK                            x       y       z     vdW  Elec       q    Type
REMARK                         _______ _______ _______ _____ _____    ______ ____
ROOT
ATOM      1  S   UNL     1      10.745   6.790  21.713  0.00  0.00    +0.000 S 
ATOM      2  N   UNL     1      12.451   8.704  21.887  0.00  0.00    +0.000 N 
ATOM      3  N   UNL     1      10.433   9.477  22.456  0.00  0.00    +0.000 NA
ATOM      4  C   UNL     1      12.666  10.014  22.239  0.00  0.00    +0.000 A 
ATOM      5  C   UNL     1      11.383  10.482  22.543  0.00  0.00    +0.000 A 
ATOM      6  C   UNL     1      11.124   8.448  22.058  0.00  0.00    +0.000 A 
ATOM      7  C   UNL     1      13.202   7.624  21.476  0.00  0.00    +0.000 A 
ATOM      8  C   UNL     1      12.452   6.517  21.332  0.00  0.00    +0.000 A 
ENDROOT
BRANCH   5  10
ATOM      9 BR   UNL     1       9.786  16.224  24.067  0.00  0.00    +0.000 Br
ATOM     10  C   UNL     1      11.018  11.840  22.929  0.00  0.00    +0.000 A 
ATOM     11  C   UNL     1      10.968  12.843  21.950  0.00  0.00    +0.000 A 
ATOM     12  C   UNL     1      10.746  12.183  24.261  0.00  0.00    +0.000 A 
ATOM     13  C   UNL     1      10.607  14.151  22.287  0.00  0.00    +0.000 A 
ATOM     14  C   UNL     1      10.373  13.487  24.599  0.00  0.00    +0.000 A 
ATOM     15  C   UNL     1      10.299  14.464  23.608  0.00  0.00    +0.000 A 
ENDBRANCH   5  10
BRANCH   4  17
ATOM     16  N   UNL     1      14.331  11.501  21.397  0.00  0.00    +0.000 NA
ATOM     17  C   UNL     1      13.931  10.681  22.316  0.00  0.00    +0.000 C 
BRANCH  16  18
ATOM     18  O   UNL     1      15.594  12.000  21.773  0.00  0.00    +0.000 OA
BRANCH  18  19
ATOM     19  C   UNL     1      16.545  11.700  20.748  0.00  0.00    +0.000 C 
BRANCH  19  22
ATOM     20 CL   UNL     1      16.978   6.526  20.445  0.00  0.00    +0.000 Cl
ATOM     21 CL   UNL     1      19.651   6.739  22.287  0.00  0.00    +0.000 Cl
ATOM     22  C   UNL     1      17.309  10.457  21.131  0.00  0.00    +0.000 A 
ATOM     23  C   UNL     1      16.876   9.195  20.690  0.00  0.00    +0.000 A 
ATOM     24  C   UNL     1      18.465  10.535  21.919  0.00  0.00    +0.000 A 
ATOM     25  C   UNL     1      17.581   8.034  21.032  0.00  0.00    +0.000 A 
ATOM     26  C   UNL     1      19.171   9.377  22.262  0.00  0.00    +0.000 A 
ATOM     27  C   UNL     1      18.732   8.126  21.820  0.00  0.00    +0.000 A 
ENDBRANCH  19  22
ENDBRANCH  18  19
ENDBRANCH  16  18
ENDBRANCH   4  17
TORSDOF 5
ENDMDL
MODEL 3
REMARK VINA RESULT:      -6.0      2.225      3.309
REMARK  Name = 142505355
REMARK  5 active torsions:
REMARK  status: ('A' for Active; 'I' for Inactive)
REMARK    1  A    between atoms: O_5  and  N_8
REMARK    2  A    between atoms: O_5  and  C_21
REMARK    3  A    between atoms: C_9  and  C_14
REMARK    4  A    between atoms: C_10  and  C_12
REMARK    5  A    between atoms: C_20  and  C_21
REMARK                            x       y       z     vdW  Elec       q    Type
REMARK                         _______ _______ _______ _____ _____    ______ ____
ROOT
ATOM      1  S   UNL     1     -13.562 -12.887  22.416  0.00  0.00    +0.000 S 
ATOM      2  N   UNL     1     -11.483 -12.726  20.914  0.00  0.00    +0.000 N 
ATOM      3  N   UNL     1     -12.851 -11.022  20.445  0.00  0.00    +0.000 NA
ATOM      4  C   UNL     1     -10.815 -11.994  19.964  0.00  0.00    +0.000 A 
ATOM      5  C   UNL     1     -11.713 -10.966  19.656  0.00  0.00    +0.000 A 
ATOM      6  C   UNL     1     -12.660 -12.089  21.167  0.00  0.00    +0.000 A 
ATOM      7  C   UNL     1     -11.257 -13.852  21.677  0.00  0.00    +0.000 A 
ATOM      8  C   UNL     1     -12.267 -14.088  22.534  0.00  0.00    +0.000 A 
ENDROOT
BRANCH   5  10
ATOM      9 BR   UNL     1     -11.062  -6.512  15.463  0.00  0.00    +0.000 Br
ATOM     10  C   UNL     1     -11.532  -9.920  18.656  0.00  0.00    +0.000 A 
ATOM     11  C   UNL     1     -12.626  -9.521  17.874  0.00  0.00    +0.000 A 
ATOM     12  C   UNL     1     -10.285  -9.321  18.429  0.00  0.00    +0.000 A 
ATOM     13  C   UNL     1     -12.487  -8.510  16.918  0.00  0.00    +0.000 A 
ATOM     14  C   UNL     1     -10.147  -8.301  17.482  0.00  0.00    +0.000 A 
ATOM     15  C   UNL     1     -11.251  -7.896  16.735  0.00  0.00    +0.000 A 
ENDBRANCH   5  10
BRANCH   4  17
ATOM     16  N   UNL     1      -8.443 -11.751  20.065  0.00  0.00    +0.000 NA
ATOM     17  C   UNL     1      -9.489 -12.235  19.476  0.00  0.00    +0.000 C 
BRANCH  16  18
ATOM     18  O   UNL     1      -7.303 -12.181  19.358  0.00  0.00    +0.000 OA
BRANCH  18  19
ATOM     19  C   UNL     1      -6.258 -11.217  19.514  0.00  0.00    +0.000 C 
BRANCH  19  22
ATOM     20 CL   UNL     1      -6.489  -9.858  14.498  0.00  0.00    +0.000 Cl
ATOM     21 CL   UNL     1      -3.320 -10.556  14.264  0.00  0.00    +0.000 Cl
ATOM     22  C   UNL     1      -5.536 -11.054  18.200  0.00  0.00    +0.000 A 
ATOM     23  C   UNL     1      -6.224 -10.593  17.065  0.00  0.00    +0.000 A 
ATOM     24  C   UNL     1      -4.170 -11.345  18.086  0.00  0.00    +0.000 A 
ATOM     25  C   UNL     1      -5.564 -10.431  15.840  0.00  0.00    +0.000 A 
ATOM     26  C   UNL     1      -3.508 -11.183  16.864  0.00  0.00    +0.000 A 
ATOM     27  C   UNL     1      -4.202 -10.726  15.741  0.00  0.00    +0.000 A 
ENDBRANCH  19  22
ENDBRANCH  18  19
ENDBRANCH  16  18
ENDBRANCH   4  17
TORSDOF 5
ENDMDL
MODEL 4
REMARK VINA RESULT:      -5.7     17.171     18.473
REMARK  Name = 142505355
REMARK  5 active torsions:
REMARK  status: ('A' for Active; 'I' for Inactive)
REMARK    1  A    between atoms: O_5  and  N_8
REMARK    2  A    between atoms: O_5  and  C_21
REMARK    3  A    between atoms: C_9  and  C_14
REMARK    4  A    between atoms: C_10  and  C_12
REMARK    5  A    between atoms: C_20  and  C_21
REMARK                            x       y       z     vdW  Elec       q    Type
REMARK                         _______ _______ _______ _____ _____    ______ ____
ROOT
ATOM      1  S   UNL     1     -20.272   1.802  22.871  0.00  0.00    +0.000 S 
ATOM      2  N   UNL     1     -18.121   3.094  23.428  0.00  0.00    +0.000 N 
ATOM      3  N   UNL     1     -18.682   1.830  25.182  0.00  0.00    +0.000 NA
ATOM      4  C   UNL     1     -17.118   3.303  24.342  0.00  0.00    +0.000 A 
ATOM      5  C   UNL     1     -17.520   2.539  25.443  0.00  0.00    +0.000 A 
ATOM      6  C   UNL     1     -18.993   2.203  23.975  0.00  0.00    +0.000 A 
ATOM      7  C   UNL     1     -18.427   3.494  22.144  0.00  0.00    +0.000 A 
ATOM      8  C   UNL     1     -19.547   2.902  21.689  0.00  0.00    +0.000 A 
ENDROOT
BRANCH   5  10
ATOM      9 BR   UNL     1     -14.608   2.015  30.837  0.00  0.00    +0.000 Br
ATOM     10  C   UNL     1     -16.843   2.439  26.730  0.00  0.00    +0.000 A 
ATOM     11  C   UNL     1     -16.657   1.177  27.314  0.00  0.00    +0.000 A 
ATOM     12  C   UNL     1     -16.396   3.575  27.422  0.00  0.00    +0.000 A 
ATOM     13  C   UNL     1     -15.997   1.049  28.540  0.00  0.00    +0.000 A 
ATOM     14  C   UNL     1     -15.725   3.447  28.642  0.00  0.00    +0.000 A 
ATOM     15  C   UNL     1     -15.523   2.184  29.192  0.00  0.00    +0.000 A 
ENDBRANCH   5  10
BRANCH   4  17
ATOM     16  N   UNL     1     -15.293   4.089  23.021  0.00  0.00    +0.000 NA
ATOM     17  C   UNL     1     -15.933   4.083  24.147  0.00  0.00    +0.000 C 
BRANCH  16  18
ATOM     18  O   UNL     1     -14.194   4.961  23.146  0.00  0.00    +0.000 OA
BRANCH  18  19
ATOM     19  C   UNL     1     -13.572   5.124  21.868  0.00  0.00    +0.000 C 
BRANCH  19  22
ATOM     20 CL   UNL     1     -10.591   8.755  19.634  0.00  0.00    +0.000 Cl
ATOM     21 CL   UNL     1     -12.543  11.014  20.927  0.00  0.00    +0.000 Cl
ATOM     22  C   UNL     1     -13.304   6.590  21.632  0.00  0.00    +0.000 A 
ATOM     23  C   UNL     1     -12.212   6.993  20.846  0.00  0.00    +0.000 A 
ATOM     24  C   UNL     1     -14.140   7.573  22.178  0.00  0.00    +0.000 A 
ATOM     25  C   UNL     1     -11.955   8.350  20.613  0.00  0.00    +0.000 A 
ATOM     26  C   UNL     1     -13.887   8.930  21.947  0.00  0.00    +0.000 A 
ATOM     27  C   UNL     1     -12.797   9.321  21.165  0.00  0.00    +0.000 A 
ENDBRANCH  19  22
ENDBRANCH  18  19
ENDBRANCH  16  18
ENDBRANCH   4  17
TORSDOF 5
ENDMDL
MODEL 5
REMARK VINA RESULT:      -5.7     28.570     30.878
REMARK  Name = 142505355
REMARK  5 active torsions:
REMARK  status: ('A' for Active; 'I' for Inactive)
REMARK    1  A    between atoms: O_5  and  N_8
REMARK    2  A    between atoms: O_5  and  C_21
REMARK    3  A    between atoms: C_9  and  C_14
REMARK    4  A    between atoms: C_10  and  C_12
REMARK    5  A    between atoms: C_20  and  C_21
REMARK                            x       y       z     vdW  Elec       q    Type
REMARK                         _______ _______ _______ _____ _____    ______ ____
ROOT
ATOM      1  S   UNL     1      12.116   7.526  17.729  0.00  0.00    +0.000 S 
ATOM      2  N   UNL     1      13.661   8.976  19.183  0.00  0.00    +0.000 N 
ATOM      3  N   UNL     1      11.544   9.320  19.808  0.00  0.00    +0.000 NA
ATOM      4  C   UNL     1      13.748   9.850  20.237  0.00  0.00    +0.000 A 
ATOM      5  C   UNL     1      12.410  10.083  20.575  0.00  0.00    +0.000 A 
ATOM      6  C   UNL     1      12.343   8.688  18.997  0.00  0.00    +0.000 A 
ATOM      7  C   UNL     1      14.525   8.309  18.340  0.00  0.00    +0.000 A 
ATOM      8  C   UNL     1      13.871   7.491  17.496  0.00  0.00    +0.000 A 
ENDROOT
BRANCH   5  10
ATOM      9 BR   UNL     1      10.262  13.961  24.841  0.00  0.00    +0.000 Br
ATOM     10  C   UNL     1      11.915  10.987  21.606  0.00  0.00    +0.000 A 
ATOM     11  C   UNL     1      11.790  12.355  21.320  0.00  0.00    +0.000 A 
ATOM     12  C   UNL     1      11.587  10.534  22.893  0.00  0.00    +0.000 A 
ATOM     13  C   UNL     1      11.304  13.243  22.284  0.00  0.00    +0.000 A 
ATOM     14  C   UNL     1      11.089  11.419  23.854  0.00  0.00    +0.000 A 
ATOM     15  C   UNL     1      10.944  12.769  23.542  0.00  0.00    +0.000 A 
ENDBRANCH   5  10
BRANCH   4  17
ATOM     16  N   UNL     1      15.924  10.824  20.151  0.00  0.00    +0.000 NA
ATOM     17  C   UNL     1      14.949  10.337  20.848  0.00  0.00    +0.000 C 
BRANCH  16  18
ATOM     18  O   UNL     1      16.940  11.228  21.039  0.00  0.00    +0.000 OA
BRANCH  18  19
ATOM     19  C   UNL     1      17.109  10.230  22.050  0.00  0.00    +0.000 C 
BRANCH  19  22
ATOM     20 CL   UNL     1      18.668   5.650  20.140  0.00  0.00    +0.000 Cl
ATOM     21 CL   UNL     1      21.741   6.652  20.507  0.00  0.00    +0.000 Cl
ATOM     22  C   UNL     1      18.257   9.329  21.667  0.00  0.00    +0.000 A 
ATOM     23  C   UNL     1      18.009   8.049  21.143  0.00  0.00    +0.000 A 
ATOM     24  C   UNL     1      19.585   9.750  21.815  0.00  0.00    +0.000 A 
ATOM     25  C   UNL     1      19.065   7.205  20.777  0.00  0.00    +0.000 A 
ATOM     26  C   UNL     1      20.642   8.909  21.450  0.00  0.00    +0.000 A 
ATOM     27  C   UNL     1      20.386   7.638  20.931  0.00  0.00    +0.000 A 
ENDBRANCH  19  22
ENDBRANCH  18  19
ENDBRANCH  16  18
ENDBRANCH   4  17
TORSDOF 5
ENDMDL
MODEL 6
REMARK VINA RESULT:      -5.6     29.398     31.492
REMARK  Name = 142505355
REMARK  5 active torsions:
REMARK  status: ('A' for Active; 'I' for Inactive)
REMARK    1  A    between atoms: O_5  and  N_8
REMARK    2  A    between atoms: O_5  and  C_21
REMARK    3  A    between atoms: C_9  and  C_14
REMARK    4  A    between atoms: C_10  and  C_12
REMARK    5  A    between atoms: C_20  and  C_21
REMARK                            x       y       z     vdW  Elec       q    Type
REMARK                         _______ _______ _______ _____ _____    ______ ____
ROOT
ATOM      1  S   UNL     1      12.741  18.360  23.379  0.00  0.00    +0.000 S 
ATOM      2  N   UNL     1      10.579  16.983  23.186  0.00  0.00    +0.000 N 
ATOM      3  N   UNL     1      12.329  15.594  23.155  0.00  0.00    +0.000 NA
ATOM      4  C   UNL     1      10.026  15.729  23.125  0.00  0.00    +0.000 A 
ATOM      5  C   UNL     1      11.141  14.886  23.059  0.00  0.00    +0.000 A 
ATOM      6  C   UNL     1      11.932  16.832  23.223  0.00  0.00    +0.000 A 
ATOM      7  C   UNL     1      10.138  18.288  23.268  0.00  0.00    +0.000 A 
ATOM      8  C   UNL     1      11.160  19.156  23.375  0.00  0.00    +0.000 A 
ENDROOT
BRANCH   5  10
ATOM      9 BR   UNL     1      11.009   8.756  22.566  0.00  0.00    +0.000 Br
ATOM     10  C   UNL     1      11.132  13.434  22.924  0.00  0.00    +0.000 A 
ATOM     11  C   UNL     1      10.845  12.641  24.044  0.00  0.00    +0.000 A 
ATOM     12  C   UNL     1      11.433  12.802  21.709  0.00  0.00    +0.000 A 
ATOM     13  C   UNL     1      10.814  11.247  23.942  0.00  0.00    +0.000 A 
ATOM     14  C   UNL     1      11.390  11.409  21.601  0.00  0.00    +0.000 A 
ATOM     15  C   UNL     1      11.075  10.638  22.717  0.00  0.00    +0.000 A 
ENDBRANCH   5  10
BRANCH   4  17
ATOM     16  N   UNL     1       7.964  15.075  22.118  0.00  0.00    +0.000 NA
ATOM     17  C   UNL     1       8.631  15.406  23.177  0.00  0.00    +0.000 C 
BRANCH  16  18
ATOM     18  O   UNL     1       6.636  14.802  22.503  0.00  0.00    +0.000 OA
BRANCH  18  19
ATOM     19  C   UNL     1       5.977  16.029  22.830  0.00  0.00    +0.000 C 
BRANCH  19  22
ATOM     20 CL   UNL     1       1.854  16.611  19.713  0.00  0.00    +0.000 Cl
ATOM     21 CL   UNL     1       0.016  15.316  22.064  0.00  0.00    +0.000 Cl
ATOM     22  C   UNL     1       4.491  15.860  22.632  0.00  0.00    +0.000 A 
ATOM     23  C   UNL     1       3.888  16.256  21.426  0.00  0.00    +0.000 A 
ATOM     24  C   UNL     1       3.689  15.299  23.634  0.00  0.00    +0.000 A 
ATOM     25  C   UNL     1       2.511  16.098  21.226  0.00  0.00    +0.000 A 
ATOM     26  C   UNL     1       2.313  15.140  23.436  0.00  0.00    +0.000 A 
ATOM     27  C   UNL     1       1.722  15.538  22.234  0.00  0.00    +0.000 A 
ENDBRANCH  19  22
ENDBRANCH  18  19
ENDBRANCH  16  18
ENDBRANCH   4  17
TORSDOF 5
ENDMDL
MODEL 7
REMARK VINA RESULT:      -5.4     28.852     30.951
REMARK  Name = 142505355
REMARK  5 active torsions:
REMARK  status: ('A' for Active; 'I' for Inactive)
REMARK    1  A    between atoms: O_5  and  N_8
REMARK    2  A    between atoms: O_5  and  C_21
REMARK    3  A    between atoms: C_9  and  C_14
REMARK    4  A    between atoms: C_10  and  C_12
REMARK    5  A    between atoms: C_20  and  C_21
REMARK                            x       y       z     vdW  Elec       q    Type
REMARK                         _______ _______ _______ _____ _____    ______ ____
ROOT
ATOM      1  S   UNL     1      10.215  17.886  17.710  0.00  0.00    +0.000 S 
ATOM      2  N   UNL     1       8.501  16.619  19.147  0.00  0.00    +0.000 N 
ATOM      3  N   UNL     1      10.559  16.119  19.861  0.00  0.00    +0.000 NA
ATOM      4  C   UNL     1       8.304  15.790  20.224  0.00  0.00    +0.000 A 
ATOM      5  C   UNL     1       9.605  15.457  20.618  0.00  0.00    +0.000 A 
ATOM      6  C   UNL     1       9.845  16.788  19.003  0.00  0.00    +0.000 A 
ATOM      7  C   UNL     1       7.728  17.329  18.254  0.00  0.00    +0.000 A 
ATOM      8  C   UNL     1       8.478  18.060  17.411  0.00  0.00    +0.000 A 
ENDROOT
BRANCH   5  10
ATOM      9 BR   UNL     1      11.315  11.609  25.102  0.00  0.00    +0.000 Br
ATOM     10  C   UNL     1       9.985  14.549  21.694  0.00  0.00    +0.000 A 
ATOM     11  C   UNL     1      10.759  13.417  21.397  0.00  0.00    +0.000 A 
ATOM     12  C   UNL     1       9.572  14.756  23.018  0.00  0.00    +0.000 A 
ATOM     13  C   UNL     1      11.152  12.537  22.410  0.00  0.00    +0.000 A 
ATOM     14  C   UNL     1       9.973  13.883  24.034  0.00  0.00    +0.000 A 
ATOM     15  C   UNL     1      10.767  12.781  23.726  0.00  0.00    +0.000 A 
ENDBRANCH   5  10
BRANCH   4  17
ATOM     16  N   UNL     1       6.424  16.202  21.635  0.00  0.00    +0.000 NA
ATOM     17  C   UNL     1       7.046  15.428  20.804  0.00  0.00    +0.000 C 
BRANCH  16  18
ATOM     18  O   UNL     1       5.219  15.573  22.003  0.00  0.00    +0.000 OA
BRANCH  18  19
ATOM     19  C   UNL     1       4.281  16.564  22.433  0.00  0.00    +0.000 C 
BRANCH  19  22
ATOM     20 CL   UNL     1      -0.735  15.711  23.514  0.00  0.00    +0.000 Cl
ATOM     21 CL   UNL     1      -1.215  15.112  20.353  0.00  0.00    +0.000 Cl
ATOM     22  C   UNL     1       2.908  16.198  21.925  0.00  0.00    +0.000 A 
ATOM     23  C   UNL     1       1.822  16.117  22.813  0.00  0.00    +0.000 A 
ATOM     24  C   UNL     1       2.687  15.943  20.565  0.00  0.00    +0.000 A 
ATOM     25  C   UNL     1       0.541  15.785  22.353  0.00  0.00    +0.000 A 
ATOM     26  C   UNL     1       1.408  15.611  20.103  0.00  0.00    +0.000 A 
ATOM     27  C   UNL     1       0.334  15.532  20.994  0.00  0.00    +0.000 A 
ENDBRANCH  19  22
ENDBRANCH  18  19
ENDBRANCH  16  18
ENDBRANCH   4  17
TORSDOF 5
ENDMDL
MODEL 8
REMARK VINA RESULT:      -5.2     28.700     29.953
REMARK  Name = 142505355
REMARK  5 active torsions:
REMARK  status: ('A' for Active; 'I' for Inactive)
REMARK    1  A    between atoms: O_5  and  N_8
REMARK    2  A    between atoms: O_5  and  C_21
REMARK    3  A    between atoms: C_9  and  C_14
REMARK    4  A    between atoms: C_10  and  C_12
REMARK    5  A    between atoms: C_20  and  C_21
REMARK                            x       y       z     vdW  Elec       q    Type
REMARK                         _______ _______ _______ _____ _____    ______ ____
ROOT
ATOM      1  S   UNL     1      -1.620  15.653  35.045  0.00  0.00    +0.000 S 
ATOM      2  N   UNL     1      -1.320  13.221  35.819  0.00  0.00    +0.000 N 
ATOM      3  N   UNL     1      -3.503  13.655  35.621  0.00  0.00    +0.000 NA
ATOM      4  C   UNL     1      -1.940  12.033  36.118  0.00  0.00    +0.000 A 
ATOM      5  C   UNL     1      -3.301  12.348  36.033  0.00  0.00    +0.000 A 
ATOM      6  C   UNL     1      -2.293  14.124  35.515  0.00  0.00    +0.000 A 
ATOM      7  C   UNL     1      -0.030  13.695  35.702  0.00  0.00    +0.000 A 
ATOM      8  C   UNL     1      -0.003  14.978  35.299  0.00  0.00    +0.000 A 
ENDROOT
BRANCH   5  10
ATOM      9 BR   UNL     1      -8.050   8.650  37.303  0.00  0.00    +0.000 Br
ATOM     10  C   UNL     1      -4.421  11.457  36.310  0.00  0.00    +0.000 A 
ATOM     11  C   UNL     1      -4.685  11.075  37.633  0.00  0.00    +0.000 A 
ATOM     12  C   UNL     1      -5.228  10.942  35.285  0.00  0.00    +0.000 A 
ATOM     13  C   UNL     1      -5.762  10.234  37.931  0.00  0.00    +0.000 A 
ATOM     14  C   UNL     1      -6.312  10.111  35.582  0.00  0.00    +0.000 A 
ATOM     15  C   UNL     1      -6.578   9.766  36.905  0.00  0.00    +0.000 A 
ENDBRANCH   5  10
BRANCH   4  17
ATOM     16  N   UNL     1      -0.542  10.608  37.426  0.00  0.00    +0.000 NA
ATOM     17  C   UNL     1      -1.300  10.780  36.390  0.00  0.00    +0.000 C 
BRANCH  16  18
ATOM     18  O   UNL     1      -0.086   9.275  37.418  0.00  0.00    +0.000 OA
BRANCH  18  19
ATOM     19  C   UNL     1      -1.156   8.411  37.024  0.00  0.00    +0.000 C 
BRANCH  19  22
ATOM     20 CL   UNL     1      -4.659   7.874  40.831  0.00  0.00    +0.000 Cl
ATOM     21 CL   UNL     1      -3.031   5.238  41.825  0.00  0.00    +0.000 Cl
ATOM     22  C   UNL     1      -1.628   7.630  38.225  0.00  0.00    +0.000 A 
ATOM     23  C   UNL     1      -2.780   8.030  38.923  0.00  0.00    +0.000 A 
ATOM     24  C   UNL     1      -0.940   6.490  38.660  0.00  0.00    +0.000 A 
ATOM     25  C   UNL     1      -3.234   7.310  40.035  0.00  0.00    +0.000 A 
ATOM     26  C   UNL     1      -1.391   5.768  39.771  0.00  0.00    +0.000 A 
ATOM     27  C   UNL     1      -2.537   6.175  40.459  0.00  0.00    +0.000 A 
ENDBRANCH  19  22
ENDBRANCH  18  19
ENDBRANCH  16  18
ENDBRANCH   4  17
TORSDOF 5
ENDMDL
MODEL 9
REMARK VINA RESULT:      -5.2     28.843     31.231
REMARK  Name = 142505355
REMARK  5 active torsions:
REMARK  status: ('A' for Active; 'I' for Inactive)
REMARK    1  A    between atoms: O_5  and  N_8
REMARK    2  A    between atoms: O_5  and  C_21
REMARK    3  A    between atoms: C_9  and  C_14
REMARK    4  A    between atoms: C_10  and  C_12
REMARK    5  A    between atoms: C_20  and  C_21
REMARK                            x       y       z     vdW  Elec       q    Type
REMARK                         _______ _______ _______ _____ _____    ______ ____
ROOT
ATOM      1  S   UNL     1      16.281 -19.404  -3.413  0.00  0.00    +0.000 S 
ATOM      2  N   UNL     1      16.101 -17.178  -2.141  0.00  0.00    +0.000 N 
ATOM      3  N   UNL     1      17.135 -18.674  -0.843  0.00  0.00    +0.000 NA
ATOM      4  C   UNL     1      16.424 -16.486  -1.001  0.00  0.00    +0.000 A 
ATOM      5  C   UNL     1      17.024 -17.456  -0.191  0.00  0.00    +0.000 A 
ATOM      6  C   UNL     1      16.567 -18.449  -1.992  0.00  0.00    +0.000 A 
ATOM      7  C   UNL     1      15.505 -16.917  -3.357  0.00  0.00    +0.000 A 
ATOM      8  C   UNL     1      15.513 -17.996  -4.161  0.00  0.00    +0.000 A 
ENDROOT
BRANCH   5  10
ATOM      9 BR   UNL     1      19.077 -16.814   5.573  0.00  0.00    +0.000 Br
ATOM     10  C   UNL     1      17.513 -17.276   1.171  0.00  0.00    +0.000 A 
ATOM     11  C   UNL     1      16.973 -18.055   2.204  0.00  0.00    +0.000 A 
ATOM     12  C   UNL     1      18.489 -16.320   1.486  0.00  0.00    +0.000 A 
ATOM     13  C   UNL     1      17.433 -17.916   3.517  0.00  0.00    +0.000 A 
ATOM     14  C   UNL     1      18.959 -16.187   2.796  0.00  0.00    +0.000 A 
ATOM     15  C   UNL     1      18.433 -16.990   3.805  0.00  0.00    +0.000 A 
ENDBRANCH   5  10
BRANCH   4  17
ATOM     16  N   UNL     1      17.161 -14.216  -0.960  0.00  0.00    +0.000 NA
ATOM     17  C   UNL     1      16.223 -15.087  -0.765  0.00  0.00    +0.000 C 
BRANCH  16  18
ATOM     18  O   UNL     1      16.646 -12.940  -0.659  0.00  0.00    +0.000 OA
BRANCH  18  19
ATOM     19  C   UNL     1      17.580 -12.235   0.163  0.00  0.00    +0.000 C 
BRANCH  19  22
ATOM     20 CL   UNL     1      19.008 -13.195   5.072  0.00  0.00    +0.000 Cl
ATOM     21 CL   UNL     1      15.905 -12.777   5.954  0.00  0.00    +0.000 Cl
ATOM     22  C   UNL     1      17.171 -12.377   1.608  0.00  0.00    +0.000 A 
ATOM     23  C   UNL     1      18.130 -12.687   2.588  0.00  0.00    +0.000 A 
ATOM     24  C   UNL     1      15.839 -12.195   2.002  0.00  0.00    +0.000 A 
ATOM     25  C   UNL     1      17.765 -12.815   3.934  0.00  0.00    +0.000 A 
ATOM     26  C   UNL     1      15.472 -12.322   3.347  0.00  0.00    +0.000 A 
ATOM     27  C   UNL     1      16.432 -12.631   4.314  0.00  0.00    +0.000 A 
ENDBRANCH  19  22
ENDBRANCH  18  19
ENDBRANCH  16  18
ENDBRANCH   4  17
TORSDOF 5
ENDMDL
MODEL 10
REMARK VINA RESULT:      -5.1      4.874      6.988
REMARK  Name = 142505355
REMARK  5 active torsions:
REMARK  status: ('A' for Active; 'I' for Inactive)
REMARK    1  A    between atoms: O_5  and  N_8
REMARK    2  A    between atoms: O_5  and  C_21
REMARK    3  A    between atoms: C_9  and  C_14
REMARK    4  A    between atoms: C_10  and  C_12
REMARK    5  A    between atoms: C_20  and  C_21
REMARK                            x       y       z     vdW  Elec       q    Type
REMARK                         _______ _______ _______ _____ _____    ______ ____
ROOT
ATOM      1  S   UNL     1      -2.800 -10.873  16.037  0.00  0.00    +0.000 S 
ATOM      2  N   UNL     1      -4.797 -10.398  14.489  0.00  0.00    +0.000 N 
ATOM      3  N   UNL     1      -5.508 -10.410  16.607  0.00  0.00    +0.000 NA
ATOM      4  C   UNL     1      -6.132 -10.089  14.410  0.00  0.00    +0.000 A 
ATOM      5  C   UNL     1      -6.558 -10.151  15.741  0.00  0.00    +0.000 A 
ATOM      6  C   UNL     1      -4.491 -10.552  15.807  0.00  0.00    +0.000 A 
ATOM      7  C   UNL     1      -3.730 -10.534  13.626  0.00  0.00    +0.000 A 
ATOM      8  C   UNL     1      -2.584 -10.791  14.282  0.00  0.00    +0.000 A 
ENDROOT
BRANCH   5  10
ATOM      9 BR   UNL     1     -12.303  -9.461  17.829  0.00  0.00    +0.000 Br
ATOM     10  C   UNL     1      -7.917  -9.959  16.232  0.00  0.00    +0.000 A 
ATOM     11  C   UNL     1      -8.900 -10.912  15.925  0.00  0.00    +0.000 A 
ATOM     12  C   UNL     1      -8.282  -8.829  16.979  0.00  0.00    +0.000 A 
ATOM     13  C   UNL     1     -10.209 -10.762  16.394  0.00  0.00    +0.000 A 
ATOM     14  C   UNL     1      -9.587  -8.684  17.459  0.00  0.00    +0.000 A 
ATOM     15  C   UNL     1     -10.543  -9.655  17.170  0.00  0.00    +0.000 A 
ENDBRANCH   5  10
BRANCH   4  17
ATOM     16  N   UNL     1      -7.378 -10.634  12.449  0.00  0.00    +0.000 NA
ATOM     17  C   UNL     1      -6.859  -9.738  13.226  0.00  0.00    +0.000 C 
BRANCH  16  18
ATOM     18  O   UNL     1      -8.037  -9.972  11.394  0.00  0.00    +0.000 OA
BRANCH  18  19
ATOM     19  C   UNL     1      -7.149  -9.013  10.811  0.00  0.00    +0.000 C 
BRANCH  19  22
ATOM     20 CL   UNL     1      -4.687 -11.353   6.872  0.00  0.00    +0.000 Cl
ATOM     21 CL   UNL     1      -6.844  -9.999   4.847  0.00  0.00    +0.000 Cl
ATOM     22  C   UNL     1      -7.062  -9.261   9.325  0.00  0.00    +0.000 A 
ATOM     23  C   UNL     1      -6.050 -10.084   8.803  0.00  0.00    +0.000 A 
ATOM     24  C   UNL     1      -7.987  -8.688   8.443  0.00  0.00    +0.000 A 
ATOM     25  C   UNL     1      -5.961 -10.328   7.426  0.00  0.00    +0.000 A 
ATOM     26  C   UNL     1      -7.901  -8.931   7.067  0.00  0.00    +0.000 A 
ATOM     27  C   UNL     1      -6.891  -9.749   6.557  0.00  0.00    +0.000 A 
ENDBRANCH  19  22
ENDBRANCH  18  19
ENDBRANCH  16  18
ENDBRANCH   4  17
TORSDOF 5
ENDMDL
