MODEL 1
REMARK VINA RESULT:      -6.1      0.000      0.000
REMARK  Name = 142505365
REMARK  9 active torsions:
REMARK  status: ('A' for Active; 'I' for Inactive)
REMARK    1  A    between atoms: O_4  and  N_7
REMARK    2  A    between atoms: O_4  and  C_24
REMARK    3  A    between atoms: C_8  and  C_9
REMARK    4  A    between atoms: C_8  and  C_10
REMARK    5  A    between atoms: C_8  and  C_11
REMARK    6  A    between atoms: C_8  and  C_12
REMARK    7  A    between atoms: C_15  and  C_18
REMARK    8  A    between atoms: C_19  and  C_22
REMARK    9  A    between atoms: C_24  and  C_25
REMARK                            x       y       z     vdW  Elec       q    Type
REMARK                         _______ _______ _______ _____ _____    ______ ____
ROOT
ATOM      1  S   UNL     1      -4.607   5.217 -61.106  0.00  0.00    +0.000 S 
ATOM      2  N   UNL     1      -4.509   5.024 -58.550  0.00  0.00    +0.000 N 
ATOM      3  N   UNL     1      -2.667   6.066 -59.256  0.00  0.00    +0.000 NA
ATOM      4  C   UNL     1      -2.651   5.937 -57.872  0.00  0.00    +0.000 A 
ATOM      5  C   UNL     1      -3.793   5.265 -57.410  0.00  0.00    +0.000 A 
ATOM      6  C   UNL     1      -3.797   5.516 -59.599  0.00  0.00    +0.000 A 
ATOM      7  C   UNL     1      -5.690   4.392 -58.882  0.00  0.00    +0.000 A 
ATOM      8  C   UNL     1      -5.900   4.400 -60.209  0.00  0.00    +0.000 A 
ENDROOT
BRANCH   4  12
ATOM      9  C   UNL     1       0.543   7.481 -55.417  0.00  0.00    +0.000 A 
ATOM     10  C   UNL     1      -0.374   8.331 -56.039  0.00  0.00    +0.000 A 
ATOM     11  C   UNL     1       0.401   6.102 -55.658  0.00  0.00    +0.000 A 
ATOM     12  C   UNL     1      -1.552   6.463 -57.064  0.00  0.00    +0.000 A 
ATOM     13  C   UNL     1      -1.379   7.834 -56.873  0.00  0.00    +0.000 A 
ATOM     14  C   UNL     1      -0.632   5.599 -56.466  0.00  0.00    +0.000 A 
BRANCH   9  15
ATOM     15  C   UNL     1       1.679   8.022 -54.528  0.00  0.00    +0.000 C 
ATOM     16  C   UNL     1       1.346   9.385 -53.876  0.00  0.00    +0.000 C 
ATOM     17  C   UNL     1       1.990   7.037 -53.383  0.00  0.00    +0.000 C 
ATOM     18  C   UNL     1       2.943   8.225 -55.387  0.00  0.00    +0.000 C 
ENDBRANCH   9  15
ENDBRANCH   4  12
BRANCH   5  20
ATOM     19  N   UNL     1      -3.956   3.619 -55.738  0.00  0.00    +0.000 NA
ATOM     20  C   UNL     1      -4.193   4.832 -56.106  0.00  0.00    +0.000 C 
BRANCH  19  21
ATOM     21  O   UNL     1      -4.394   3.401 -54.428  0.00  0.00    +0.000 OA
BRANCH  21  22
ATOM     22  C   UNL     1      -3.986   2.077 -54.074  0.00  0.00    +0.000 C 
BRANCH  22  25
ATOM     23 CL   UNL     1      -8.377  -0.720 -54.412  0.00  0.00    +0.000 Cl
ATOM     24 CL   UNL     1      -7.866  -1.625 -51.328  0.00  0.00    +0.000 Cl
ATOM     25  C   UNL     1      -5.081   1.299 -53.388  0.00  0.00    +0.000 A 
ATOM     26  C   UNL     1      -6.178   0.779 -54.090  0.00  0.00    +0.000 A 
ATOM     27  C   UNL     1      -4.925   0.971 -52.033  0.00  0.00    +0.000 A 
ATOM     28  C   UNL     1      -7.072  -0.098 -53.466  0.00  0.00    +0.000 A 
ATOM     29  C   UNL     1      -5.811   0.092 -51.410  0.00  0.00    +0.000 A 
ATOM     30  C   UNL     1      -6.871  -0.462 -52.131  0.00  0.00    +0.000 A 
ENDBRANCH  22  25
ENDBRANCH  21  22
ENDBRANCH  19  21
ENDBRANCH   5  20
TORSDOF 6
ENDMDL
MODEL 2
REMARK VINA RESULT:      -6.1      3.305      6.879
REMARK  Name = 142505365
REMARK  9 active torsions:
REMARK  status: ('A' for Active; 'I' for Inactive)
REMARK    1  A    between atoms: O_4  and  N_7
REMARK    2  A    between atoms: O_4  and  C_24
REMARK    3  A    between atoms: C_8  and  C_9
REMARK    4  A    between atoms: C_8  and  C_10
REMARK    5  A    between atoms: C_8  and  C_11
REMARK    6  A    between atoms: C_8  and  C_12
REMARK    7  A    between atoms: C_15  and  C_18
REMARK    8  A    between atoms: C_19  and  C_22
REMARK    9  A    between atoms: C_24  and  C_25
REMARK                            x       y       z     vdW  Elec       q    Type
REMARK                         _______ _______ _______ _____ _____    ______ ____
ROOT
ATOM      1  S   UNL     1      -1.854   7.645 -56.936  0.00  0.00    +0.000 S 
ATOM      2  N   UNL     1      -3.596   6.008 -57.868  0.00  0.00    +0.000 N 
ATOM      3  N   UNL     1      -3.069   5.382 -55.792  0.00  0.00    +0.000 NA
ATOM      4  C   UNL     1      -4.010   4.515 -56.337  0.00  0.00    +0.000 A 
ATOM      5  C   UNL     1      -4.339   4.881 -57.650  0.00  0.00    +0.000 A 
ATOM      6  C   UNL     1      -2.872   6.251 -56.742  0.00  0.00    +0.000 A 
ATOM      7  C   UNL     1      -3.375   6.882 -58.913  0.00  0.00    +0.000 A 
ATOM      8  C   UNL     1      -2.470   7.821 -58.589  0.00  0.00    +0.000 A 
ENDROOT
BRANCH   4  12
ATOM      9  C   UNL     1      -5.522   1.185 -54.047  0.00  0.00    +0.000 A 
ATOM     10  C   UNL     1      -4.924   0.999 -55.295  0.00  0.00    +0.000 A 
ATOM     11  C   UNL     1      -5.644   2.510 -53.588  0.00  0.00    +0.000 A 
ATOM     12  C   UNL     1      -4.548   3.389 -55.576  0.00  0.00    +0.000 A 
ATOM     13  C   UNL     1      -4.478   2.081 -56.059  0.00  0.00    +0.000 A 
ATOM     14  C   UNL     1      -5.161   3.595 -54.338  0.00  0.00    +0.000 A 
BRANCH   9  15
ATOM     15  C   UNL     1      -6.053   0.002 -53.217  0.00  0.00    +0.000 C 
ATOM     16  C   UNL     1      -5.245  -1.302 -53.427  0.00  0.00    +0.000 C 
ATOM     17  C   UNL     1      -6.002   0.328 -51.710  0.00  0.00    +0.000 C 
ATOM     18  C   UNL     1      -7.509  -0.294 -53.628  0.00  0.00    +0.000 C 
ENDBRANCH   9  15
ENDBRANCH   4  12
BRANCH   5  20
ATOM     19  N   UNL     1      -4.666   3.490 -59.518  0.00  0.00    +0.000 NA
ATOM     20  C   UNL     1      -5.182   4.275 -58.636  0.00  0.00    +0.000 C 
BRANCH  19  21
ATOM     21  O   UNL     1      -5.652   2.978 -60.367  0.00  0.00    +0.000 OA
BRANCH  21  22
ATOM     22  C   UNL     1      -5.132   1.763 -60.914  0.00  0.00    +0.000 C 
BRANCH  22  25
ATOM     23 CL   UNL     1      -3.226  -1.572 -57.385  0.00  0.00    +0.000 Cl
ATOM     24 CL   UNL     1      -6.299  -2.457 -56.775  0.00  0.00    +0.000 Cl
ATOM     25  C   UNL     1      -5.347   0.581 -60.002  0.00  0.00    +0.000 A 
ATOM     26  C   UNL     1      -4.302   0.015 -59.258  0.00  0.00    +0.000 A 
ATOM     27  C   UNL     1      -6.656   0.124 -59.791  0.00  0.00    +0.000 A 
ATOM     28  C   UNL     1      -4.567  -0.951 -58.280  0.00  0.00    +0.000 A 
ATOM     29  C   UNL     1      -6.923  -0.834 -58.812  0.00  0.00    +0.000 A 
ATOM     30  C   UNL     1      -5.884  -1.355 -58.040  0.00  0.00    +0.000 A 
ENDBRANCH  22  25
ENDBRANCH  21  22
ENDBRANCH  19  21
ENDBRANCH   5  20
TORSDOF 6
ENDMDL
MODEL 3
REMARK VINA RESULT:      -6.0      4.852      7.641
REMARK  Name = 142505365
REMARK  9 active torsions:
REMARK  status: ('A' for Active; 'I' for Inactive)
REMARK    1  A    between atoms: O_4  and  N_7
REMARK    2  A    between atoms: O_4  and  C_24
REMARK    3  A    between atoms: C_8  and  C_9
REMARK    4  A    between atoms: C_8  and  C_10
REMARK    5  A    between atoms: C_8  and  C_11
REMARK    6  A    between atoms: C_8  and  C_12
REMARK    7  A    between atoms: C_15  and  C_18
REMARK    8  A    between atoms: C_19  and  C_22
REMARK    9  A    between atoms: C_24  and  C_25
REMARK                            x       y       z     vdW  Elec       q    Type
REMARK                         _______ _______ _______ _____ _____    ______ ____
ROOT
ATOM      1  S   UNL     1      -7.209  -1.392 -51.243  0.00  0.00    +0.000 S 
ATOM      2  N   UNL     1      -6.627  -1.149 -53.729  0.00  0.00    +0.000 N 
ATOM      3  N   UNL     1      -5.987   0.704 -52.664  0.00  0.00    +0.000 NA
ATOM      4  C   UNL     1      -5.693   0.797 -54.021  0.00  0.00    +0.000 A 
ATOM      5  C   UNL     1      -6.107  -0.352 -54.711  0.00  0.00    +0.000 A 
ATOM      6  C   UNL     1      -6.529  -0.475 -52.552  0.00  0.00    +0.000 A 
ATOM      7  C   UNL     1      -7.241  -2.383 -53.654  0.00  0.00    +0.000 A 
ATOM      8  C   UNL     1      -7.618  -2.673 -52.397  0.00  0.00    +0.000 A 
ENDROOT
BRANCH   4  12
ATOM      9  C   UNL     1      -3.795   4.265 -55.748  0.00  0.00    +0.000 A 
ATOM     10  C   UNL     1      -3.347   2.973 -56.030  0.00  0.00    +0.000 A 
ATOM     11  C   UNL     1      -4.867   4.386 -54.846  0.00  0.00    +0.000 A 
ATOM     12  C   UNL     1      -5.031   1.972 -54.584  0.00  0.00    +0.000 A 
ATOM     13  C   UNL     1      -3.930   1.852 -55.433  0.00  0.00    +0.000 A 
ATOM     14  C   UNL     1      -5.479   3.258 -54.275  0.00  0.00    +0.000 A 
BRANCH   9  15
ATOM     15  C   UNL     1      -3.131   5.507 -56.370  0.00  0.00    +0.000 C 
ATOM     16  C   UNL     1      -3.354   6.797 -55.543  0.00  0.00    +0.000 C 
ATOM     17  C   UNL     1      -1.607   5.307 -56.491  0.00  0.00    +0.000 C 
ATOM     18  C   UNL     1      -3.729   5.755 -57.769  0.00  0.00    +0.000 C 
ENDBRANCH   9  15
ENDBRANCH   4  12
BRANCH   5  20
ATOM     19  N   UNL     1      -4.990  -1.063 -56.654  0.00  0.00    +0.000 NA
ATOM     20  C   UNL     1      -6.095  -0.697 -56.100  0.00  0.00    +0.000 C 
BRANCH  19  21
ATOM     21  O   UNL     1      -5.191  -1.385 -58.000  0.00  0.00    +0.000 OA
BRANCH  21  22
ATOM     22  C   UNL     1      -6.356  -0.671 -58.424  0.00  0.00    +0.000 C 
BRANCH  22  25
ATOM     23 CL   UNL     1      -7.286   1.785 -62.931  0.00  0.00    +0.000 Cl
ATOM     24 CL   UNL     1      -5.505   4.257 -61.784  0.00  0.00    +0.000 Cl
ATOM     25  C   UNL     1      -6.030   0.452 -59.377  0.00  0.00    +0.000 A 
ATOM     26  C   UNL     1      -6.644   0.564 -60.633  0.00  0.00    +0.000 A 
ATOM     27  C   UNL     1      -5.193   1.487 -58.935  0.00  0.00    +0.000 A 
ATOM     28  C   UNL     1      -6.468   1.714 -61.411  0.00  0.00    +0.000 A 
ATOM     29  C   UNL     1      -5.021   2.637 -59.706  0.00  0.00    +0.000 A 
ATOM     30  C   UNL     1      -5.677   2.763 -60.933  0.00  0.00    +0.000 A 
ENDBRANCH  22  25
ENDBRANCH  21  22
ENDBRANCH  19  21
ENDBRANCH   5  20
TORSDOF 6
ENDMDL
MODEL 4
REMARK VINA RESULT:      -5.8      2.261      3.318
REMARK  Name = 142505365
REMARK  9 active torsions:
REMARK  status: ('A' for Active; 'I' for Inactive)
REMARK    1  A    between atoms: O_4  and  N_7
REMARK    2  A    between atoms: O_4  and  C_24
REMARK    3  A    between atoms: C_8  and  C_9
REMARK    4  A    between atoms: C_8  and  C_10
REMARK    5  A    between atoms: C_8  and  C_11
REMARK    6  A    between atoms: C_8  and  C_12
REMARK    7  A    between atoms: C_15  and  C_18
REMARK    8  A    between atoms: C_19  and  C_22
REMARK    9  A    between atoms: C_24  and  C_25
REMARK                            x       y       z     vdW  Elec       q    Type
REMARK                         _______ _______ _______ _____ _____    ______ ____
ROOT
ATOM      1  S   UNL     1      -0.963   7.496 -60.660  0.00  0.00    +0.000 S 
ATOM      2  N   UNL     1      -1.991   7.299 -58.317  0.00  0.00    +0.000 N 
ATOM      3  N   UNL     1       0.208   7.617 -58.106  0.00  0.00    +0.000 NA
ATOM      4  C   UNL     1      -0.388   7.500 -56.855  0.00  0.00    +0.000 A 
ATOM      5  C   UNL     1      -1.769   7.279 -56.968  0.00  0.00    +0.000 A 
ATOM      6  C   UNL     1      -0.793   7.500 -58.931  0.00  0.00    +0.000 A 
ATOM      7  C   UNL     1      -3.066   7.123 -59.163  0.00  0.00    +0.000 A 
ATOM      8  C   UNL     1      -2.698   7.196 -60.454  0.00  0.00    +0.000 A 
ENDROOT
BRANCH   4  12
ATOM      9  C   UNL     1       1.972   7.845 -53.260  0.00  0.00    +0.000 A 
ATOM     10  C   UNL     1       1.805   6.619 -53.907  0.00  0.00    +0.000 A 
ATOM     11  C   UNL     1       1.305   8.954 -53.812  0.00  0.00    +0.000 A 
ATOM     12  C   UNL     1       0.388   7.609 -55.621  0.00  0.00    +0.000 A 
ATOM     13  C   UNL     1       1.001   6.497 -55.044  0.00  0.00    +0.000 A 
ATOM     14  C   UNL     1       0.528   8.840 -54.977  0.00  0.00    +0.000 A 
BRANCH   9  15
ATOM     15  C   UNL     1       2.823   7.980 -51.984  0.00  0.00    +0.000 C 
ATOM     16  C   UNL     1       2.446   9.211 -51.126  0.00  0.00    +0.000 C 
ATOM     17  C   UNL     1       2.660   6.736 -51.087  0.00  0.00    +0.000 C 
ATOM     18  C   UNL     1       4.306   8.136 -52.377  0.00  0.00    +0.000 C 
ENDBRANCH   9  15
ENDBRANCH   4  12
BRANCH   5  20
ATOM     19  N   UNL     1      -3.082   5.808 -55.686  0.00  0.00    +0.000 NA
ATOM     20  C   UNL     1      -2.786   7.025 -55.993  0.00  0.00    +0.000 C 
BRANCH  19  21
ATOM     21  O   UNL     1      -4.072   5.770 -54.700  0.00  0.00    +0.000 OA
BRANCH  21  22
ATOM     22  C   UNL     1      -5.037   4.803 -55.123  0.00  0.00    +0.000 C 
BRANCH  22  25
ATOM     23 CL   UNL     1      -4.950   1.962 -50.749  0.00  0.00    +0.000 Cl
ATOM     24 CL   UNL     1      -5.013  -0.686 -52.641  0.00  0.00    +0.000 Cl
ATOM     25  C   UNL     1      -4.848   3.466 -54.452  0.00  0.00    +0.000 A 
ATOM     26  C   UNL     1      -4.872   3.322 -53.058  0.00  0.00    +0.000 A 
ATOM     27  C   UNL     1      -4.784   2.316 -55.252  0.00  0.00    +0.000 A 
ATOM     28  C   UNL     1      -4.887   2.051 -52.473  0.00  0.00    +0.000 A 
ATOM     29  C   UNL     1      -4.806   1.047 -54.672  0.00  0.00    +0.000 A 
ATOM     30  C   UNL     1      -4.881   0.912 -53.285  0.00  0.00    +0.000 A 
ENDBRANCH  22  25
ENDBRANCH  21  22
ENDBRANCH  19  21
ENDBRANCH   5  20
TORSDOF 6
ENDMDL
MODEL 5
REMARK VINA RESULT:      -5.7     14.345     16.806
REMARK  Name = 142505365
REMARK  9 active torsions:
REMARK  status: ('A' for Active; 'I' for Inactive)
REMARK    1  A    between atoms: O_4  and  N_7
REMARK    2  A    between atoms: O_4  and  C_24
REMARK    3  A    between atoms: C_8  and  C_9
REMARK    4  A    between atoms: C_8  and  C_10
REMARK    5  A    between atoms: C_8  and  C_11
REMARK    6  A    between atoms: C_8  and  C_12
REMARK    7  A    between atoms: C_15  and  C_18
REMARK    8  A    between atoms: C_19  and  C_22
REMARK    9  A    between atoms: C_24  and  C_25
REMARK                            x       y       z     vdW  Elec       q    Type
REMARK                         _______ _______ _______ _____ _____    ______ ____
ROOT
ATOM      1  S   UNL     1      -0.979   6.084 -41.294  0.00  0.00    +0.000 S 
ATOM      2  N   UNL     1       0.033   8.378 -41.837  0.00  0.00    +0.000 N 
ATOM      3  N   UNL     1      -2.136   8.645 -41.386  0.00  0.00    +0.000 NA
ATOM      4  C   UNL     1      -1.550   9.868 -41.691  0.00  0.00    +0.000 A 
ATOM      5  C   UNL     1      -0.189   9.718 -41.997  0.00  0.00    +0.000 A 
ATOM      6  C   UNL     1      -1.147   7.803 -41.479  0.00  0.00    +0.000 A 
ATOM      7  C   UNL     1       1.092   7.508 -41.991  0.00  0.00    +0.000 A 
ATOM      8  C   UNL     1       0.729   6.237 -41.742  0.00  0.00    +0.000 A 
ENDROOT
BRANCH   4  12
ATOM      9  C   UNL     1      -3.748  13.581 -41.677  0.00  0.00    +0.000 A 
ATOM     10  C   UNL     1      -2.854  13.259 -40.653  0.00  0.00    +0.000 A 
ATOM     11  C   UNL     1      -3.927  12.623 -42.691  0.00  0.00    +0.000 A 
ATOM     12  C   UNL     1      -2.315  11.113 -41.669  0.00  0.00    +0.000 A 
ATOM     13  C   UNL     1      -2.178  12.036 -40.632  0.00  0.00    +0.000 A 
ATOM     14  C   UNL     1      -3.219  11.410 -42.691  0.00  0.00    +0.000 A 
BRANCH   9  15
ATOM     15  C   UNL     1      -4.527  14.909 -41.686  0.00  0.00    +0.000 C 
ATOM     16  C   UNL     1      -5.513  15.047 -40.502  0.00  0.00    +0.000 C 
ATOM     17  C   UNL     1      -3.559  16.108 -41.610  0.00  0.00    +0.000 C 
ATOM     18  C   UNL     1      -5.356  15.002 -42.983  0.00  0.00    +0.000 C 
ENDBRANCH   9  15
ENDBRANCH   4  12
BRANCH   5  20
ATOM     19  N   UNL     1       0.918  10.913 -43.693  0.00  0.00    +0.000 NA
ATOM     20  C   UNL     1       0.807  10.647 -42.436  0.00  0.00    +0.000 C 
BRANCH  19  21
ATOM     21  O   UNL     1       1.923  11.861 -43.914  0.00  0.00    +0.000 OA
BRANCH  21  22
ATOM     22  C   UNL     1       1.434  13.104 -43.404  0.00  0.00    +0.000 C 
BRANCH  22  25
ATOM     23 CL   UNL     1      -0.364  13.902 -48.235  0.00  0.00    +0.000 Cl
ATOM     24 CL   UNL     1      -3.078  15.078 -46.875  0.00  0.00    +0.000 Cl
ATOM     25  C   UNL     1       0.420  13.746 -44.318  0.00  0.00    +0.000 A 
ATOM     26  C   UNL     1       0.510  13.650 -45.714  0.00  0.00    +0.000 A 
ATOM     27  C   UNL     1      -0.718  14.337 -43.750  0.00  0.00    +0.000 A 
ATOM     28  C   UNL     1      -0.542  14.087 -46.526  0.00  0.00    +0.000 A 
ATOM     29  C   UNL     1      -1.771  14.768 -44.558  0.00  0.00    +0.000 A 
ATOM     30  C   UNL     1      -1.695  14.622 -45.944  0.00  0.00    +0.000 A 
ENDBRANCH  22  25
ENDBRANCH  21  22
ENDBRANCH  19  21
ENDBRANCH   5  20
TORSDOF 6
ENDMDL
MODEL 6
REMARK VINA RESULT:      -5.7     17.370     18.659
REMARK  Name = 142505365
REMARK  9 active torsions:
REMARK  status: ('A' for Active; 'I' for Inactive)
REMARK    1  A    between atoms: O_4  and  N_7
REMARK    2  A    between atoms: O_4  and  C_24
REMARK    3  A    between atoms: C_8  and  C_9
REMARK    4  A    between atoms: C_8  and  C_10
REMARK    5  A    between atoms: C_8  and  C_11
REMARK    6  A    between atoms: C_8  and  C_12
REMARK    7  A    between atoms: C_15  and  C_18
REMARK    8  A    between atoms: C_19  and  C_22
REMARK    9  A    between atoms: C_24  and  C_25
REMARK                            x       y       z     vdW  Elec       q    Type
REMARK                         _______ _______ _______ _____ _____    ______ ____
ROOT
ATOM      1  S   UNL     1      -8.103  21.691 -46.264  0.00  0.00    +0.000 S 
ATOM      2  N   UNL     1      -9.189  19.519 -45.438  0.00  0.00    +0.000 N 
ATOM      3  N   UNL     1      -6.973  19.268 -45.393  0.00  0.00    +0.000 NA
ATOM      4  C   UNL     1      -7.602  18.107 -44.955  0.00  0.00    +0.000 A 
ATOM      5  C   UNL     1      -8.998  18.239 -44.996  0.00  0.00    +0.000 A 
ATOM      6  C   UNL     1      -7.965  20.071 -45.654  0.00  0.00    +0.000 A 
ATOM      7  C   UNL     1     -10.265  20.326 -45.750  0.00  0.00    +0.000 A 
ATOM      8  C   UNL     1      -9.867  21.525 -46.209  0.00  0.00    +0.000 A 
ENDROOT
BRANCH   4  12
ATOM      9  C   UNL     1      -5.282  14.708 -43.660  0.00  0.00    +0.000 A 
ATOM     10  C   UNL     1      -5.481  14.981 -45.015  0.00  0.00    +0.000 A 
ATOM     11  C   UNL     1      -5.903  15.569 -42.738  0.00  0.00    +0.000 A 
ATOM     12  C   UNL     1      -6.840  16.939 -44.519  0.00  0.00    +0.000 A 
ATOM     13  C   UNL     1      -6.273  16.053 -45.435  0.00  0.00    +0.000 A 
ATOM     14  C   UNL     1      -6.667  16.671 -43.159  0.00  0.00    +0.000 A 
BRANCH   9  15
ATOM     15  C   UNL     1      -4.445  13.505 -43.189  0.00  0.00    +0.000 C 
ATOM     16  C   UNL     1      -4.579  13.224 -41.673  0.00  0.00    +0.000 C 
ATOM     17  C   UNL     1      -4.876  12.220 -43.926  0.00  0.00    +0.000 C 
ATOM     18  C   UNL     1      -2.954  13.781 -43.471  0.00  0.00    +0.000 C 
ENDBRANCH   9  15
ENDBRANCH   4  12
BRANCH   5  20
ATOM     19  N   UNL     1     -10.500  17.195 -43.518  0.00  0.00    +0.000 NA
ATOM     20  C   UNL     1     -10.060  17.319 -44.724  0.00  0.00    +0.000 C 
BRANCH  19  21
ATOM     21  O   UNL     1     -11.551  16.275 -43.464  0.00  0.00    +0.000 OA
BRANCH  21  22
ATOM     22  C   UNL     1     -12.242  16.367 -44.713  0.00  0.00    +0.000 C 
BRANCH  22  25
ATOM     23 CL   UNL     1     -16.977  14.342 -45.545  0.00  0.00    +0.000 Cl
ATOM     24 CL   UNL     1     -18.104  16.437 -43.323  0.00  0.00    +0.000 Cl
ATOM     25  C   UNL     1     -13.738  16.459 -44.541  0.00  0.00    +0.000 A 
ATOM     26  C   UNL     1     -14.614  15.537 -45.131  0.00  0.00    +0.000 A 
ATOM     27  C   UNL     1     -14.254  17.414 -43.653  0.00  0.00    +0.000 A 
ATOM     28  C   UNL     1     -15.973  15.533 -44.798  0.00  0.00    +0.000 A 
ATOM     29  C   UNL     1     -15.608  17.408 -43.314  0.00  0.00    +0.000 A 
ATOM     30  C   UNL     1     -16.464  16.454 -43.867  0.00  0.00    +0.000 A 
ENDBRANCH  22  25
ENDBRANCH  21  22
ENDBRANCH  19  21
ENDBRANCH   5  20
TORSDOF 6
ENDMDL
MODEL 7
REMARK VINA RESULT:      -5.6     13.832     15.504
REMARK  Name = 142505365
REMARK  9 active torsions:
REMARK  status: ('A' for Active; 'I' for Inactive)
REMARK    1  A    between atoms: O_4  and  N_7
REMARK    2  A    between atoms: O_4  and  C_24
REMARK    3  A    between atoms: C_8  and  C_9
REMARK    4  A    between atoms: C_8  and  C_10
REMARK    5  A    between atoms: C_8  and  C_11
REMARK    6  A    between atoms: C_8  and  C_12
REMARK    7  A    between atoms: C_15  and  C_18
REMARK    8  A    between atoms: C_19  and  C_22
REMARK    9  A    between atoms: C_24  and  C_25
REMARK                            x       y       z     vdW  Elec       q    Type
REMARK                         _______ _______ _______ _____ _____    ______ ____
ROOT
ATOM      1  S   UNL     1     -17.400  13.161 -63.234  0.00  0.00    +0.000 S 
ATOM      2  N   UNL     1     -17.681  12.266 -60.846  0.00  0.00    +0.000 N 
ATOM      3  N   UNL     1     -15.537  12.802 -61.158  0.00  0.00    +0.000 NA
ATOM      4  C   UNL     1     -15.732  12.306 -59.873  0.00  0.00    +0.000 A 
ATOM      5  C   UNL     1     -17.071  11.945 -59.665  0.00  0.00    +0.000 A 
ATOM      6  C   UNL     1     -16.729  12.763 -61.682  0.00  0.00    +0.000 A 
ATOM      7  C   UNL     1     -18.947  12.166 -61.385  0.00  0.00    +0.000 A 
ATOM      8  C   UNL     1     -18.979  12.600 -62.657  0.00  0.00    +0.000 A 
ENDROOT
BRANCH   4  12
ATOM      9  C   UNL     1     -12.435  12.021 -57.105  0.00  0.00    +0.000 A 
ATOM     10  C   UNL     1     -13.084  10.882 -57.585  0.00  0.00    +0.000 A 
ATOM     11  C   UNL     1     -12.929  13.266 -57.535  0.00  0.00    +0.000 A 
ATOM     12  C   UNL     1     -14.634  12.209 -58.913  0.00  0.00    +0.000 A 
ATOM     13  C   UNL     1     -14.183  10.975 -58.443  0.00  0.00    +0.000 A 
ATOM     14  C   UNL     1     -14.009  13.360 -58.428  0.00  0.00    +0.000 A 
BRANCH   9  15
ATOM     15  C   UNL     1     -11.249  11.928 -56.127  0.00  0.00    +0.000 C 
ATOM     16  C   UNL     1     -10.851  10.472 -55.787  0.00  0.00    +0.000 C 
ATOM     17  C   UNL     1     -10.000  12.612 -56.720  0.00  0.00    +0.000 C 
ATOM     18  C   UNL     1     -11.629  12.618 -54.801  0.00  0.00    +0.000 C 
ENDBRANCH   9  15
ENDBRANCH   4  12
BRANCH   5  20
ATOM     19  N   UNL     1     -18.852  11.830 -58.134  0.00  0.00    +0.000 NA
ATOM     20  C   UNL     1     -17.742  11.332 -58.559  0.00  0.00    +0.000 C 
BRANCH  19  21
ATOM     21  O   UNL     1     -19.363  11.075 -57.073  0.00  0.00    +0.000 OA
BRANCH  21  22
ATOM     22  C   UNL     1     -18.927   9.729 -57.280  0.00  0.00    +0.000 C 
BRANCH  22  25
ATOM     23 CL   UNL     1     -23.733   8.346 -55.793  0.00  0.00    +0.000 Cl
ATOM     24 CL   UNL     1     -22.576   5.333 -55.366  0.00  0.00    +0.000 Cl
ATOM     25  C   UNL     1     -19.841   8.719 -56.631  0.00  0.00    +0.000 A 
ATOM     26  C   UNL     1     -21.204   8.975 -56.420  0.00  0.00    +0.000 A 
ATOM     27  C   UNL     1     -19.340   7.438 -56.356  0.00  0.00    +0.000 A 
ATOM     28  C   UNL     1     -22.062   7.954 -55.996  0.00  0.00    +0.000 A 
ATOM     29  C   UNL     1     -20.195   6.417 -55.939  0.00  0.00    +0.000 A 
ATOM     30  C   UNL     1     -21.560   6.667 -55.781  0.00  0.00    +0.000 A 
ENDBRANCH  22  25
ENDBRANCH  21  22
ENDBRANCH  19  21
ENDBRANCH   5  20
TORSDOF 6
ENDMDL
MODEL 8
REMARK VINA RESULT:      -5.6     24.238     26.978
REMARK  Name = 142505365
REMARK  9 active torsions:
REMARK  status: ('A' for Active; 'I' for Inactive)
REMARK    1  A    between atoms: O_4  and  N_7
REMARK    2  A    between atoms: O_4  and  C_24
REMARK    3  A    between atoms: C_8  and  C_9
REMARK    4  A    between atoms: C_8  and  C_10
REMARK    5  A    between atoms: C_8  and  C_11
REMARK    6  A    between atoms: C_8  and  C_12
REMARK    7  A    between atoms: C_15  and  C_18
REMARK    8  A    between atoms: C_19  and  C_22
REMARK    9  A    between atoms: C_24  and  C_25
REMARK                            x       y       z     vdW  Elec       q    Type
REMARK                         _______ _______ _______ _____ _____    ______ ____
ROOT
ATOM      1  S   UNL     1     -30.083   0.612 -38.928  0.00  0.00    +0.000 S 
ATOM      2  N   UNL     1     -28.315   0.681 -40.786  0.00  0.00    +0.000 N 
ATOM      3  N   UNL     1     -28.407   2.688 -39.816  0.00  0.00    +0.000 NA
ATOM      4  C   UNL     1     -27.461   2.684 -40.835  0.00  0.00    +0.000 A 
ATOM      5  C   UNL     1     -27.403   1.435 -41.471  0.00  0.00    +0.000 A 
ATOM      6  C   UNL     1     -28.871   1.471 -39.828  0.00  0.00    +0.000 A 
ATOM      7  C   UNL     1     -28.819  -0.602 -40.859  0.00  0.00    +0.000 A 
ATOM      8  C   UNL     1     -29.775  -0.811 -39.939  0.00  0.00    +0.000 A 
ENDROOT
BRANCH   4  12
ATOM      9  C   UNL     1     -25.052   6.130 -41.804  0.00  0.00    +0.000 A 
ATOM     10  C   UNL     1     -24.752   5.316 -40.709  0.00  0.00    +0.000 A 
ATOM     11  C   UNL     1     -26.196   5.798 -42.553  0.00  0.00    +0.000 A 
ATOM     12  C   UNL     1     -26.661   3.868 -41.144  0.00  0.00    +0.000 A 
ATOM     13  C   UNL     1     -25.560   4.228 -40.366  0.00  0.00    +0.000 A 
ATOM     14  C   UNL     1     -26.986   4.682 -42.231  0.00  0.00    +0.000 A 
BRANCH   9  15
ATOM     15  C   UNL     1     -24.190   7.354 -42.165  0.00  0.00    +0.000 C 
ATOM     16  C   UNL     1     -22.711   7.208 -41.733  0.00  0.00    +0.000 C 
ATOM     17  C   UNL     1     -24.195   7.593 -43.689  0.00  0.00    +0.000 C 
ATOM     18  C   UNL     1     -24.752   8.599 -41.449  0.00  0.00    +0.000 C 
ENDBRANCH   9  15
ENDBRANCH   4  12
BRANCH   5  20
ATOM     19  N   UNL     1     -27.257   0.800 -43.730  0.00  0.00    +0.000 NA
ATOM     20  C   UNL     1     -26.660   0.963 -42.599  0.00  0.00    +0.000 C 
BRANCH  19  21
ATOM     21  O   UNL     1     -26.358   0.364 -44.709  0.00  0.00    +0.000 OA
BRANCH  21  22
ATOM     22  C   UNL     1     -25.852   1.536 -45.353  0.00  0.00    +0.000 C 
BRANCH  22  25
ATOM     23 CL   UNL     1     -25.116   3.631 -50.074  0.00  0.00    +0.000 Cl
ATOM     24 CL   UNL     1     -24.397   0.638 -51.130  0.00  0.00    +0.000 Cl
ATOM     25  C   UNL     1     -25.673   1.348 -46.839  0.00  0.00    +0.000 A 
ATOM     26  C   UNL     1     -25.588   2.434 -47.722  0.00  0.00    +0.000 A 
ATOM     27  C   UNL     1     -25.448   0.054 -47.330  0.00  0.00    +0.000 A 
ATOM     28  C   UNL     1     -25.231   2.236 -49.061  0.00  0.00    +0.000 A 
ATOM     29  C   UNL     1     -25.086  -0.145 -48.663  0.00  0.00    +0.000 A 
ATOM     30  C   UNL     1     -24.953   0.947 -49.523  0.00  0.00    +0.000 A 
ENDBRANCH  22  25
ENDBRANCH  21  22
ENDBRANCH  19  21
ENDBRANCH   5  20
TORSDOF 6
ENDMDL
MODEL 9
REMARK VINA RESULT:      -5.6     20.623     23.895
REMARK  Name = 142505365
REMARK  9 active torsions:
REMARK  status: ('A' for Active; 'I' for Inactive)
REMARK    1  A    between atoms: O_4  and  N_7
REMARK    2  A    between atoms: O_4  and  C_24
REMARK    3  A    between atoms: C_8  and  C_9
REMARK    4  A    between atoms: C_8  and  C_10
REMARK    5  A    between atoms: C_8  and  C_11
REMARK    6  A    between atoms: C_8  and  C_12
REMARK    7  A    between atoms: C_15  and  C_18
REMARK    8  A    between atoms: C_19  and  C_22
REMARK    9  A    between atoms: C_24  and  C_25
REMARK                            x       y       z     vdW  Elec       q    Type
REMARK                         _______ _______ _______ _____ _____    ______ ____
ROOT
ATOM      1  S   UNL     1     -16.239   6.783 -32.014  0.00  0.00    +0.000 S 
ATOM      2  N   UNL     1     -14.347   6.509 -33.725  0.00  0.00    +0.000 N 
ATOM      3  N   UNL     1     -14.298   4.772 -32.325  0.00  0.00    +0.000 NA
ATOM      4  C   UNL     1     -13.282   4.664 -33.269  0.00  0.00    +0.000 A 
ATOM      5  C   UNL     1     -13.285   5.758 -34.146  0.00  0.00    +0.000 A 
ATOM      6  C   UNL     1     -14.901   5.879 -32.654  0.00  0.00    +0.000 A 
ATOM      7  C   UNL     1     -14.931   7.710 -34.071  0.00  0.00    +0.000 A 
ATOM      8  C   UNL     1     -15.959   8.013 -33.259  0.00  0.00    +0.000 A 
ENDROOT
BRANCH   4  12
ATOM      9  C   UNL     1     -10.554   1.324 -33.397  0.00  0.00    +0.000 A 
ATOM     10  C   UNL     1     -11.862   1.215 -33.873  0.00  0.00    +0.000 A 
ATOM     11  C   UNL     1     -10.178   2.560 -32.840  0.00  0.00    +0.000 A 
ATOM     12  C   UNL     1     -12.369   3.523 -33.287  0.00  0.00    +0.000 A 
ATOM     13  C   UNL     1     -12.761   2.281 -33.787  0.00  0.00    +0.000 A 
ATOM     14  C   UNL     1     -11.070   3.645 -32.788  0.00  0.00    +0.000 A 
BRANCH   9  15
ATOM     15  C   UNL     1      -9.569   0.141 -33.451  0.00  0.00    +0.000 C 
ATOM     16  C   UNL     1     -10.225  -1.178 -33.925  0.00  0.00    +0.000 C 
ATOM     17  C   UNL     1      -8.409   0.443 -34.421  0.00  0.00    +0.000 C 
ATOM     18  C   UNL     1      -9.004  -0.114 -32.039  0.00  0.00    +0.000 C 
ENDBRANCH   9  15
ENDBRANCH   4  12
BRANCH   5  20
ATOM     19  N   UNL     1     -11.426   6.933 -34.981  0.00  0.00    +0.000 NA
ATOM     20  C   UNL     1     -12.412   6.136 -35.216  0.00  0.00    +0.000 C 
BRANCH  19  21
ATOM     21  O   UNL     1     -10.678   7.156 -36.141  0.00  0.00    +0.000 OA
BRANCH  21  22
ATOM     22  C   UNL     1      -9.343   7.447 -35.719  0.00  0.00    +0.000 C 
BRANCH  22  25
ATOM     23 CL   UNL     1      -4.670   5.787 -37.341  0.00  0.00    +0.000 Cl
ATOM     24 CL   UNL     1      -5.387   2.911 -35.996  0.00  0.00    +0.000 Cl
ATOM     25  C   UNL     1      -8.393   6.303 -35.977  0.00  0.00    +0.000 A 
ATOM     26  C   UNL     1      -7.138   6.497 -36.571  0.00  0.00    +0.000 A 
ATOM     27  C   UNL     1      -8.721   5.033 -35.483  0.00  0.00    +0.000 A 
ATOM     28  C   UNL     1      -6.206   5.455 -36.621  0.00  0.00    +0.000 A 
ATOM     29  C   UNL     1      -7.791   3.993 -35.525  0.00  0.00    +0.000 A 
ATOM     30  C   UNL     1      -6.525   4.209 -36.072  0.00  0.00    +0.000 A 
ENDBRANCH  22  25
ENDBRANCH  21  22
ENDBRANCH  19  21
ENDBRANCH   5  20
TORSDOF 6
ENDMDL
MODEL 10
REMARK VINA RESULT:      -5.5     21.144     22.010
REMARK  Name = 142505365
REMARK  9 active torsions:
REMARK  status: ('A' for Active; 'I' for Inactive)
REMARK    1  A    between atoms: O_4  and  N_7
REMARK    2  A    between atoms: O_4  and  C_24
REMARK    3  A    between atoms: C_8  and  C_9
REMARK    4  A    between atoms: C_8  and  C_10
REMARK    5  A    between atoms: C_8  and  C_11
REMARK    6  A    between atoms: C_8  and  C_12
REMARK    7  A    between atoms: C_15  and  C_18
REMARK    8  A    between atoms: C_19  and  C_22
REMARK    9  A    between atoms: C_24  and  C_25
REMARK                            x       y       z     vdW  Elec       q    Type
REMARK                         _______ _______ _______ _____ _____    ______ ____
ROOT
ATOM      1  S   UNL     1     -20.610  20.908 -42.556  0.00  0.00    +0.000 S 
ATOM      2  N   UNL     1     -19.518  18.700 -43.272  0.00  0.00    +0.000 N 
ATOM      3  N   UNL     1     -17.920  20.240 -43.031  0.00  0.00    +0.000 NA
ATOM      4  C   UNL     1     -17.369  19.025 -43.424  0.00  0.00    +0.000 A 
ATOM      5  C   UNL     1     -18.361  18.049 -43.601  0.00  0.00    +0.000 A 
ATOM      6  C   UNL     1     -19.194  19.981 -42.947  0.00  0.00    +0.000 A 
ATOM      7  C   UNL     1     -20.865  18.405 -43.241  0.00  0.00    +0.000 A 
ATOM      8  C   UNL     1     -21.597  19.472 -42.879  0.00  0.00    +0.000 A 
ENDROOT
BRANCH   4  12
ATOM      9  C   UNL     1     -13.103  18.608 -43.917  0.00  0.00    +0.000 A 
ATOM     10  C   UNL     1     -13.892  19.225 -44.890  0.00  0.00    +0.000 A 
ATOM     11  C   UNL     1     -13.767  18.095 -42.787  0.00  0.00    +0.000 A 
ATOM     12  C   UNL     1     -15.928  18.859 -43.606  0.00  0.00    +0.000 A 
ATOM     13  C   UNL     1     -15.280  19.317 -44.754  0.00  0.00    +0.000 A 
ATOM     14  C   UNL     1     -15.157  18.222 -42.631  0.00  0.00    +0.000 A 
BRANCH   9  15
ATOM     15  C   UNL     1     -11.578  18.466 -44.078  0.00  0.00    +0.000 C 
ATOM     16  C   UNL     1     -11.058  17.048 -43.741  0.00  0.00    +0.000 C 
ATOM     17  C   UNL     1     -11.154  18.770 -45.530  0.00  0.00    +0.000 C 
ATOM     18  C   UNL     1     -10.873  19.449 -43.122  0.00  0.00    +0.000 C 
ENDBRANCH   9  15
ENDBRANCH   4  12
BRANCH   5  20
ATOM     19  N   UNL     1     -18.117  16.456 -45.314  0.00  0.00    +0.000 NA
ATOM     20  C   UNL     1     -18.308  16.695 -44.061  0.00  0.00    +0.000 C 
BRANCH  19  21
ATOM     21  O   UNL     1     -18.067  15.080 -45.556  0.00  0.00    +0.000 OA
BRANCH  21  22
ATOM     22  C   UNL     1     -16.812  14.619 -45.050  0.00  0.00    +0.000 C 
BRANCH  22  25
ATOM     23 CL   UNL     1     -15.078  15.832 -49.818  0.00  0.00    +0.000 Cl
ATOM     24 CL   UNL     1     -12.284  16.736 -48.414  0.00  0.00    +0.000 Cl
ATOM     25  C   UNL     1     -15.659  14.968 -45.958  0.00  0.00    +0.000 A 
ATOM     26  C   UNL     1     -15.822  15.127 -47.342  0.00  0.00    +0.000 A 
ATOM     27  C   UNL     1     -14.419  15.278 -45.381  0.00  0.00    +0.000 A 
ATOM     28  C   UNL     1     -14.783  15.637 -48.127  0.00  0.00    +0.000 A 
ATOM     29  C   UNL     1     -13.383  15.793 -46.161  0.00  0.00    +0.000 A 
ATOM     30  C   UNL     1     -13.571  15.996 -47.529  0.00  0.00    +0.000 A 
ENDBRANCH  22  25
ENDBRANCH  21  22
ENDBRANCH  19  21
ENDBRANCH   5  20
TORSDOF 6
ENDMDL
