REMARK  Name = 142505469
REMARK  5 active torsions:
REMARK  status: ('A' for Active; 'I' for Inactive)
REMARK    1  A    between atoms: O_2  and  N_5
REMARK    2  A    between atoms: O_2  and  C_19
REMARK    3  A    between atoms: C_6  and  C_11
REMARK    4  A    between atoms: C_7  and  C_9
REMARK    5  A    between atoms: C_18  and  C_19
REMARK                            x       y       z     vdW  Elec       q    Type
REMARK                         _______ _______ _______ _____ _____    ______ ____
ROOT
ATOM      1  S   UNL     1       7.457   3.936   0.027  0.00  0.00    +0.000 S 
ATOM      2  N   UNL     1       4.974   3.282  -0.028  0.00  0.00    +0.000 N 
ATOM      3  N   UNL     1       6.208   1.420   0.021  0.00  0.00    +0.000 NA
ATOM      4  C   UNL     1       4.062   2.260  -0.002  0.00  0.00    +0.000 A 
ATOM      5  C   UNL     1       4.855   1.109  -0.000  0.00  0.00    +0.000 A 
ATOM      6  C   UNL     1       6.216   2.722  -0.007  0.00  0.00    +0.000 A 
ATOM      7  C   UNL     1       4.954   4.662  -0.007  0.00  0.00    +0.000 A 
ATOM      8  C   UNL     1       6.194   5.178   0.023  0.00  0.00    +0.000 A 
ENDROOT
BRANCH   5   9
ATOM      9  C   UNL     1       4.377  -0.269   0.018  0.00  0.00    +0.000 A 
ATOM     10  C   UNL     1       5.113  -1.243   0.703  0.00  0.00    +0.000 A 
ATOM     11  C   UNL     1       3.185  -0.651  -0.618  0.00  0.00    +0.000 A 
ATOM     12  C   UNL     1       4.636  -2.553   0.806  0.00  0.00    +0.000 A 
ATOM     13  C   UNL     1       2.698  -1.953  -0.497  0.00  0.00    +0.000 A 
ATOM     14  C   UNL     1       3.418  -2.901   0.224  0.00  0.00    +0.000 A 
ENDBRANCH   5   9
BRANCH   4  16
ATOM     15  N   UNL     1       2.044   3.397  -0.516  0.00  0.00    +0.000 NA
ATOM     16  C   UNL     1       2.639   2.398   0.050  0.00  0.00    +0.000 C 
BRANCH  15  17
ATOM     17  O   UNL     1       0.655   3.229  -0.367  0.00  0.00    +0.000 OA
BRANCH  17  18
ATOM     18  C   UNL     1      -0.007   3.919  -1.431  0.00  0.00    +0.000 C 
BRANCH  18  19
ATOM     19  C   UNL     1      -1.507   3.893  -1.263  0.00  0.00    +0.000 A 
ATOM     20  C   UNL     1      -2.329   3.994  -2.397  0.00  0.00    +0.000 A 
ATOM     21  C   UNL     1      -2.109   3.859   0.002  0.00  0.00    +0.000 A 
ATOM     22  C   UNL     1      -3.718   4.054  -2.268  0.00  0.00    +0.000 A 
ATOM     23  C   UNL     1      -3.499   3.915   0.130  0.00  0.00    +0.000 A 
ATOM     24  C   UNL     1      -4.302   4.017  -1.004  0.00  0.00    +0.000 A 
ENDBRANCH  18  19
ENDBRANCH  17  18
ENDBRANCH  15  17
ENDBRANCH   4  16
TORSDOF 5
