MODEL 1
REMARK VINA RESULT:      -5.0      0.000      0.000
REMARK  Name = 142505466
REMARK  8 active torsions:
REMARK  status: ('A' for Active; 'I' for Inactive)
REMARK    1  A    between atoms: N_5  and  C_8
REMARK    2  A    between atoms: N_5  and  C_10
REMARK    3  A    between atoms: N_5  and  C_11
REMARK    4  A    between atoms: C_8  and  C_9
REMARK    5  A    between atoms: C_10  and  C_12
REMARK    6  A    between atoms: C_11  and  C_17
REMARK    7  A    between atoms: C_12  and  C_15
REMARK    8  A    between atoms: C_13  and  C_16
REMARK                            x       y       z     vdW  Elec       q    Type
REMARK                         _______ _______ _______ _____ _____    ______ ____
ROOT
ATOM      1  S   UNL     1      18.235   7.396  20.912  0.00  0.00    +0.000 S 
ATOM      2  N   UNL     1      15.732   7.381  20.323  0.00  0.00    +0.000 N 
ATOM      3  N   UNL     1      16.098   8.945  21.863  0.00  0.00    +0.000 NA
ATOM      4  C   UNL     1      14.507   7.998  20.477  0.00  0.00    +0.000 A 
ATOM      5  C   UNL     1      14.747   8.903  21.528  0.00  0.00    +0.000 A 
ATOM      6  C   UNL     1      16.632   8.037  21.104  0.00  0.00    +0.000 A 
ATOM      7  C   UNL     1      16.260   6.323  19.607  0.00  0.00    +0.000 A 
ATOM      8  C   UNL     1      17.585   6.207  19.778  0.00  0.00    +0.000 A 
ENDROOT
BRANCH   5  10
ATOM      9 CL   UNL     1      10.988  12.257  24.788  0.00  0.00    +0.000 Cl
ATOM     10  C   UNL     1      13.800   9.748  22.258  0.00  0.00    +0.000 A 
ATOM     11  C   UNL     1      14.290  10.774  23.089  0.00  0.00    +0.000 A 
ATOM     12  C   UNL     1      12.418   9.526  22.240  0.00  0.00    +0.000 A 
ATOM     13  C   UNL     1      13.429  11.555  23.864  0.00  0.00    +0.000 A 
ATOM     14  C   UNL     1      11.549  10.323  22.995  0.00  0.00    +0.000 A 
ATOM     15  C   UNL     1      12.054  11.325  23.815  0.00  0.00    +0.000 A 
ENDBRANCH   5  10
BRANCH   4  16
ATOM     16  C   UNL     1      13.321   7.603  19.655  0.00  0.00    +0.000 C 
BRANCH  16  17
ATOM     17  N   UNL     1      13.010   8.455  18.487  0.00  0.00    +0.000 NA
BRANCH  17  18
ATOM     18  C   UNL     1      12.150   7.763  17.511  0.00  0.00    +0.000 C 
ATOM     19  C   UNL     1      11.114   8.634  16.802  0.00  0.00    +0.000 C 
ENDBRANCH  17  18
BRANCH  17  20
ATOM     20  C   UNL     1      12.581   9.830  18.779  0.00  0.00    +0.000 C 
BRANCH  20  21
ATOM     21  C   UNL     1      13.562  10.994  18.513  0.00  0.00    +0.000 C 
BRANCH  21  24
ATOM     22 CL   UNL     1      16.472  14.271  21.386  0.00  0.00    +0.000 Cl
ATOM     23 CL   UNL     1      13.704  15.272  22.773  0.00  0.00    +0.000 Cl
ATOM     24  C   UNL     1      13.670  12.200  19.422  0.00  0.00    +0.000 A 
ATOM     25  C   UNL     1      14.886  12.732  19.862  0.00  0.00    +0.000 A 
ATOM     26  C   UNL     1      12.481  12.703  19.983  0.00  0.00    +0.000 A 
ATOM     27  C   UNL     1      14.920  13.705  20.873  0.00  0.00    +0.000 A 
ATOM     28  C   UNL     1      12.510  13.671  20.989  0.00  0.00    +0.000 A 
ATOM     29  C   UNL     1      13.731  14.156  21.453  0.00  0.00    +0.000 A 
ENDBRANCH  21  24
ENDBRANCH  20  21
ENDBRANCH  17  20
ENDBRANCH  16  17
ENDBRANCH   4  16
TORSDOF 7
ENDMDL
MODEL 2
REMARK VINA RESULT:      -4.9     27.249     30.147
REMARK  Name = 142505466
REMARK  8 active torsions:
REMARK  status: ('A' for Active; 'I' for Inactive)
REMARK    1  A    between atoms: N_5  and  C_8
REMARK    2  A    between atoms: N_5  and  C_10
REMARK    3  A    between atoms: N_5  and  C_11
REMARK    4  A    between atoms: C_8  and  C_9
REMARK    5  A    between atoms: C_10  and  C_12
REMARK    6  A    between atoms: C_11  and  C_17
REMARK    7  A    between atoms: C_12  and  C_15
REMARK    8  A    between atoms: C_13  and  C_16
REMARK                            x       y       z     vdW  Elec       q    Type
REMARK                         _______ _______ _______ _____ _____    ______ ____
ROOT
ATOM      1  S   UNL     1      -7.356 -13.387  10.958  0.00  0.00    +0.000 S 
ATOM      2  N   UNL     1      -5.244 -13.094  12.397  0.00  0.00    +0.000 N 
ATOM      3  N   UNL     1      -7.034 -12.705  13.661  0.00  0.00    +0.000 NA
ATOM      4  C   UNL     1      -4.729 -12.892  13.661  0.00  0.00    +0.000 A 
ATOM      5  C   UNL     1      -5.870 -12.544  14.408  0.00  0.00    +0.000 A 
ATOM      6  C   UNL     1      -6.602 -13.049  12.487  0.00  0.00    +0.000 A 
ATOM      7  C   UNL     1      -4.763 -13.329  11.123  0.00  0.00    +0.000 A 
ATOM      8  C   UNL     1      -5.749 -13.539  10.239  0.00  0.00    +0.000 A 
ENDROOT
BRANCH   5  10
ATOM      9 CL   UNL     1      -5.955 -10.670  20.108  0.00  0.00    +0.000 Cl
ATOM     10  C   UNL     1      -5.964 -12.066  15.789  0.00  0.00    +0.000 A 
ATOM     11  C   UNL     1      -5.156 -10.989  16.203  0.00  0.00    +0.000 A 
ATOM     12  C   UNL     1      -6.761 -12.694  16.754  0.00  0.00    +0.000 A 
ATOM     13  C   UNL     1      -5.155 -10.549  17.528  0.00  0.00    +0.000 A 
ATOM     14  C   UNL     1      -6.782 -12.240  18.079  0.00  0.00    +0.000 A 
ATOM     15  C   UNL     1      -5.971 -11.180  18.467  0.00  0.00    +0.000 A 
ENDBRANCH   5  10
BRANCH   4  16
ATOM     16  C   UNL     1      -3.263 -13.010  13.938  0.00  0.00    +0.000 C 
BRANCH  16  17
ATOM     17  N   UNL     1      -2.461 -11.777  13.799  0.00  0.00    +0.000 NA
BRANCH  17  18
ATOM     18  C   UNL     1      -1.500 -11.613  14.904  0.00  0.00    +0.000 C 
ATOM     19  C   UNL     1      -1.417 -10.213  15.511  0.00  0.00    +0.000 C 
ENDBRANCH  17  18
BRANCH  17  20
ATOM     20  C   UNL     1      -1.881 -11.521  12.472  0.00  0.00    +0.000 C 
BRANCH  20  21
ATOM     21  C   UNL     1      -2.198 -10.188  11.759  0.00  0.00    +0.000 C 
BRANCH  21  24
ATOM     22 CL   UNL     1      -7.352  -9.413  12.305  0.00  0.00    +0.000 Cl
ATOM     23 CL   UNL     1      -7.599  -9.808   9.085  0.00  0.00    +0.000 Cl
ATOM     24  C   UNL     1      -3.550  -9.882  11.153  0.00  0.00    +0.000 A 
ATOM     25  C   UNL     1      -4.710  -9.678  11.907  0.00  0.00    +0.000 A 
ATOM     26  C   UNL     1      -3.674  -9.974   9.753  0.00  0.00    +0.000 A 
ATOM     27  C   UNL     1      -5.968  -9.621  11.288  0.00  0.00    +0.000 A 
ATOM     28  C   UNL     1      -4.923  -9.916   9.133  0.00  0.00    +0.000 A 
ATOM     29  C   UNL     1      -6.076  -9.763   9.901  0.00  0.00    +0.000 A 
ENDBRANCH  21  24
ENDBRANCH  20  21
ENDBRANCH  17  20
ENDBRANCH  16  17
ENDBRANCH   4  16
TORSDOF 7
ENDMDL
MODEL 3
REMARK VINA RESULT:      -4.9     33.650     35.119
REMARK  Name = 142505466
REMARK  8 active torsions:
REMARK  status: ('A' for Active; 'I' for Inactive)
REMARK    1  A    between atoms: N_5  and  C_8
REMARK    2  A    between atoms: N_5  and  C_10
REMARK    3  A    between atoms: N_5  and  C_11
REMARK    4  A    between atoms: C_8  and  C_9
REMARK    5  A    between atoms: C_10  and  C_12
REMARK    6  A    between atoms: C_11  and  C_17
REMARK    7  A    between atoms: C_12  and  C_15
REMARK    8  A    between atoms: C_13  and  C_16
REMARK                            x       y       z     vdW  Elec       q    Type
REMARK                         _______ _______ _______ _____ _____    ______ ____
ROOT
ATOM      1  S   UNL     1      -0.756 -16.954   7.143  0.00  0.00    +0.000 S 
ATOM      2  N   UNL     1       0.844 -17.781   5.306  0.00  0.00    +0.000 N 
ATOM      3  N   UNL     1      -0.198 -15.953   4.581  0.00  0.00    +0.000 NA
ATOM      4  C   UNL     1       1.422 -17.524   4.079  0.00  0.00    +0.000 A 
ATOM      5  C   UNL     1       0.670 -16.434   3.605  0.00  0.00    +0.000 A 
ATOM      6  C   UNL     1      -0.038 -16.778   5.571  0.00  0.00    +0.000 A 
ATOM      7  C   UNL     1       0.930 -18.742   6.295  0.00  0.00    +0.000 A 
ATOM      8  C   UNL     1       0.169 -18.444   7.359  0.00  0.00    +0.000 A 
ENDROOT
BRANCH   5  10
ATOM      9 CL   UNL     1       0.634 -13.552  -1.658  0.00  0.00    +0.000 Cl
ATOM     10  C   UNL     1       0.697 -15.791   2.289  0.00  0.00    +0.000 A 
ATOM     11  C   UNL     1       1.419 -14.593   2.122  0.00  0.00    +0.000 A 
ATOM     12  C   UNL     1      -0.043 -16.266   1.200  0.00  0.00    +0.000 A 
ATOM     13  C   UNL     1       1.410 -13.904   0.907  0.00  0.00    +0.000 A 
ATOM     14  C   UNL     1      -0.034 -15.592  -0.028  0.00  0.00    +0.000 A 
ATOM     15  C   UNL     1       0.679 -14.408  -0.169  0.00  0.00    +0.000 A 
ENDBRANCH   5  10
BRANCH   4  16
ATOM     16  C   UNL     1       2.536 -18.369   3.546  0.00  0.00    +0.000 C 
BRANCH  16  17
ATOM     17  N   UNL     1       3.910 -17.952   3.897  0.00  0.00    +0.000 NA
BRANCH  17  18
ATOM     18  C   UNL     1       4.436 -18.695   5.056  0.00  0.00    +0.000 C 
ATOM     19  C   UNL     1       5.197 -17.865   6.088  0.00  0.00    +0.000 C 
ENDBRANCH  17  18
BRANCH  17  20
ATOM     20  C   UNL     1       4.864 -17.846   2.784  0.00  0.00    +0.000 C 
BRANCH  20  21
ATOM     21  C   UNL     1       5.137 -16.459   2.159  0.00  0.00    +0.000 C 
BRANCH  21  24
ATOM     22 CL   UNL     1       2.339 -17.534  -2.140  0.00  0.00    +0.000 Cl
ATOM     23 CL   UNL     1       3.579 -14.823  -3.442  0.00  0.00    +0.000 Cl
ATOM     24  C   UNL     1       4.544 -16.024   0.836  0.00  0.00    +0.000 A 
ATOM     25  C   UNL     1       3.695 -16.825   0.066  0.00  0.00    +0.000 A 
ATOM     26  C   UNL     1       5.008 -14.817   0.278  0.00  0.00    +0.000 A 
ATOM     27  C   UNL     1       3.357 -16.459  -1.246  0.00  0.00    +0.000 A 
ATOM     28  C   UNL     1       4.674 -14.448  -1.026  0.00  0.00    +0.000 A 
ATOM     29  C   UNL     1       3.867 -15.281  -1.800  0.00  0.00    +0.000 A 
ENDBRANCH  21  24
ENDBRANCH  20  21
ENDBRANCH  17  20
ENDBRANCH  16  17
ENDBRANCH   4  16
TORSDOF 7
ENDMDL
MODEL 4
REMARK VINA RESULT:      -4.6      2.124      3.532
REMARK  Name = 142505466
REMARK  8 active torsions:
REMARK  status: ('A' for Active; 'I' for Inactive)
REMARK    1  A    between atoms: N_5  and  C_8
REMARK    2  A    between atoms: N_5  and  C_10
REMARK    3  A    between atoms: N_5  and  C_11
REMARK    4  A    between atoms: C_8  and  C_9
REMARK    5  A    between atoms: C_10  and  C_12
REMARK    6  A    between atoms: C_11  and  C_17
REMARK    7  A    between atoms: C_12  and  C_15
REMARK    8  A    between atoms: C_13  and  C_16
REMARK                            x       y       z     vdW  Elec       q    Type
REMARK                         _______ _______ _______ _____ _____    ______ ____
ROOT
ATOM      1  S   UNL     1      20.153   9.577  21.651  0.00  0.00    +0.000 S 
ATOM      2  N   UNL     1      17.621   9.131  21.704  0.00  0.00    +0.000 N 
ATOM      3  N   UNL     1      18.001  11.201  22.427  0.00  0.00    +0.000 NA
ATOM      4  C   UNL     1      16.361   9.661  21.897  0.00  0.00    +0.000 A 
ATOM      5  C   UNL     1      16.638  10.923  22.454  0.00  0.00    +0.000 A 
ATOM      6  C   UNL     1      18.529  10.113  21.957  0.00  0.00    +0.000 A 
ATOM      7  C   UNL     1      18.175   7.923  21.329  0.00  0.00    +0.000 A 
ATOM      8  C   UNL     1      19.510   7.989  21.219  0.00  0.00    +0.000 A 
ENDROOT
BRANCH   5  10
ATOM      9 CL   UNL     1      13.083  15.184  24.737  0.00  0.00    +0.000 Cl
ATOM     10  C   UNL     1      15.715  11.911  23.017  0.00  0.00    +0.000 A 
ATOM     11  C   UNL     1      15.327  13.017  22.236  0.00  0.00    +0.000 A 
ATOM     12  C   UNL     1      15.265  11.856  24.342  0.00  0.00    +0.000 A 
ATOM     13  C   UNL     1      14.510  14.024  22.757  0.00  0.00    +0.000 A 
ATOM     14  C   UNL     1      14.425  12.850  24.861  0.00  0.00    +0.000 A 
ATOM     15  C   UNL     1      14.061  13.936  24.075  0.00  0.00    +0.000 A 
ENDBRANCH   5  10
BRANCH   4  16
ATOM     16  C   UNL     1      15.126   8.879  21.577  0.00  0.00    +0.000 C 
BRANCH  16  17
ATOM     17  N   UNL     1      14.535   9.091  20.239  0.00  0.00    +0.000 NA
BRANCH  17  18
ATOM     18  C   UNL     1      13.622   7.999  19.857  0.00  0.00    +0.000 C 
ATOM     19  C   UNL     1      13.208   7.054  20.983  0.00  0.00    +0.000 C 
ENDBRANCH  17  18
BRANCH  17  20
ATOM     20  C   UNL     1      13.996  10.432  19.968  0.00  0.00    +0.000 C 
BRANCH  20  21
ATOM     21  C   UNL     1      12.471  10.662  20.071  0.00  0.00    +0.000 C 
BRANCH  21  24
ATOM     22 CL   UNL     1      10.351  14.585  22.824  0.00  0.00    +0.000 Cl
ATOM     23 CL   UNL     1      10.598  12.676  25.447  0.00  0.00    +0.000 Cl
ATOM     24  C   UNL     1      11.801  11.170  21.329  0.00  0.00    +0.000 A 
ATOM     25  C   UNL     1      11.308  12.471  21.475  0.00  0.00    +0.000 A 
ATOM     26  C   UNL     1      11.827  10.337  22.464  0.00  0.00    +0.000 A 
ATOM     27  C   UNL     1      10.901  12.948  22.730  0.00  0.00    +0.000 A 
ATOM     28  C   UNL     1      11.422  10.807  23.715  0.00  0.00    +0.000 A 
ATOM     29  C   UNL     1      10.981  12.121  23.855  0.00  0.00    +0.000 A 
ENDBRANCH  21  24
ENDBRANCH  20  21
ENDBRANCH  17  20
ENDBRANCH  16  17
ENDBRANCH   4  16
TORSDOF 7
ENDMDL
MODEL 5
REMARK VINA RESULT:      -4.5     26.275     28.661
REMARK  Name = 142505466
REMARK  8 active torsions:
REMARK  status: ('A' for Active; 'I' for Inactive)
REMARK    1  A    between atoms: N_5  and  C_8
REMARK    2  A    between atoms: N_5  and  C_10
REMARK    3  A    between atoms: N_5  and  C_11
REMARK    4  A    between atoms: C_8  and  C_9
REMARK    5  A    between atoms: C_10  and  C_12
REMARK    6  A    between atoms: C_11  and  C_17
REMARK    7  A    between atoms: C_12  and  C_15
REMARK    8  A    between atoms: C_13  and  C_16
REMARK                            x       y       z     vdW  Elec       q    Type
REMARK                         _______ _______ _______ _____ _____    ______ ____
ROOT
ATOM      1  S   UNL     1     -17.047   3.727  22.891  0.00  0.00    +0.000 S 
ATOM      2  N   UNL     1     -16.148   6.121  23.165  0.00  0.00    +0.000 N 
ATOM      3  N   UNL     1     -15.235   5.215  21.349  0.00  0.00    +0.000 NA
ATOM      4  C   UNL     1     -15.406   7.145  22.611  0.00  0.00    +0.000 A 
ATOM      5  C   UNL     1     -14.761   6.511  21.533  0.00  0.00    +0.000 A 
ATOM      6  C   UNL     1     -16.066   5.048  22.332  0.00  0.00    +0.000 A 
ATOM      7  C   UNL     1     -16.926   5.916  24.288  0.00  0.00    +0.000 A 
ATOM      8  C   UNL     1     -17.506   4.706  24.289  0.00  0.00    +0.000 A 
ENDROOT
BRANCH   5  10
ATOM      9 CL   UNL     1     -10.575   8.407  17.675  0.00  0.00    +0.000 Cl
ATOM     10  C   UNL     1     -13.719   7.026  20.643  0.00  0.00    +0.000 A 
ATOM     11  C   UNL     1     -14.086   7.591  19.406  0.00  0.00    +0.000 A 
ATOM     12  C   UNL     1     -12.353   6.902  20.925  0.00  0.00    +0.000 A 
ATOM     13  C   UNL     1     -13.123   8.026  18.492  0.00  0.00    +0.000 A 
ATOM     14  C   UNL     1     -11.385   7.359  20.023  0.00  0.00    +0.000 A 
ATOM     15  C   UNL     1     -11.769   7.906  18.805  0.00  0.00    +0.000 A 
ENDBRANCH   5  10
BRANCH   4  16
ATOM     16  C   UNL     1     -15.391   8.515  23.212  0.00  0.00    +0.000 C 
BRANCH  16  17
ATOM     17  N   UNL     1     -14.339   9.437  22.734  0.00  0.00    +0.000 NA
BRANCH  17  18
ATOM     18  C   UNL     1     -14.864  10.430  21.780  0.00  0.00    +0.000 C 
ATOM     19  C   UNL     1     -13.852  10.998  20.786  0.00  0.00    +0.000 C 
ENDBRANCH  17  18
BRANCH  17  20
ATOM     20  C   UNL     1     -13.460  10.015  23.761  0.00  0.00    +0.000 C 
BRANCH  20  21
ATOM     21  C   UNL     1     -14.069  10.445  25.114  0.00  0.00    +0.000 C 
BRANCH  21  24
ATOM     22 CL   UNL     1     -13.846  10.739  30.342  0.00  0.00    +0.000 Cl
ATOM     23 CL   UNL     1     -10.726  11.600  30.009  0.00  0.00    +0.000 Cl
ATOM     24  C   UNL     1     -13.260  10.522  26.391  0.00  0.00    +0.000 A 
ATOM     25  C   UNL     1     -13.823  10.476  27.670  0.00  0.00    +0.000 A 
ATOM     26  C   UNL     1     -11.889  10.823  26.278  0.00  0.00    +0.000 A 
ATOM     27  C   UNL     1     -13.053  10.775  28.805  0.00  0.00    +0.000 A 
ATOM     28  C   UNL     1     -11.119  11.119  27.404  0.00  0.00    +0.000 A 
ATOM     29  C   UNL     1     -11.705  11.119  28.667  0.00  0.00    +0.000 A 
ENDBRANCH  21  24
ENDBRANCH  20  21
ENDBRANCH  17  20
ENDBRANCH  16  17
ENDBRANCH   4  16
TORSDOF 7
ENDMDL
MODEL 6
REMARK VINA RESULT:      -4.5     30.189     32.837
REMARK  Name = 142505466
REMARK  8 active torsions:
REMARK  status: ('A' for Active; 'I' for Inactive)
REMARK    1  A    between atoms: N_5  and  C_8
REMARK    2  A    between atoms: N_5  and  C_10
REMARK    3  A    between atoms: N_5  and  C_11
REMARK    4  A    between atoms: C_8  and  C_9
REMARK    5  A    between atoms: C_10  and  C_12
REMARK    6  A    between atoms: C_11  and  C_17
REMARK    7  A    between atoms: C_12  and  C_15
REMARK    8  A    between atoms: C_13  and  C_16
REMARK                            x       y       z     vdW  Elec       q    Type
REMARK                         _______ _______ _______ _____ _____    ______ ____
ROOT
ATOM      1  S   UNL     1     -20.320   5.356  36.341  0.00  0.00    +0.000 S 
ATOM      2  N   UNL     1     -18.755   4.734  34.397  0.00  0.00    +0.000 N 
ATOM      3  N   UNL     1     -18.606   6.924  34.767  0.00  0.00    +0.000 NA
ATOM      4  C   UNL     1     -17.770   5.159  33.529  0.00  0.00    +0.000 A 
ATOM      5  C   UNL     1     -17.778   6.555  33.711  0.00  0.00    +0.000 A 
ATOM      6  C   UNL     1     -19.143   5.804  35.145  0.00  0.00    +0.000 A 
ATOM      7  C   UNL     1     -19.414   3.558  34.698  0.00  0.00    +0.000 A 
ATOM      8  C   UNL     1     -20.260   3.699  35.729  0.00  0.00    +0.000 A 
ENDROOT
BRANCH   5  10
ATOM      9 CL   UNL     1     -15.074  10.998  30.720  0.00  0.00    +0.000 Cl
ATOM     10  C   UNL     1     -17.060   7.591  32.966  0.00  0.00    +0.000 A 
ATOM     11  C   UNL     1     -16.637   8.755  33.637  0.00  0.00    +0.000 A 
ATOM     12  C   UNL     1     -16.851   7.522  31.583  0.00  0.00    +0.000 A 
ATOM     13  C   UNL     1     -16.017   9.803  32.953  0.00  0.00    +0.000 A 
ATOM     14  C   UNL     1     -16.207   8.559  30.897  0.00  0.00    +0.000 A 
ATOM     15  C   UNL     1     -15.805   9.702  31.578  0.00  0.00    +0.000 A 
ENDBRANCH   5  10
BRANCH   4  16
ATOM     16  C   UNL     1     -17.032   4.199  32.650  0.00  0.00    +0.000 C 
BRANCH  16  17
ATOM     17  N   UNL     1     -15.658   3.844  33.063  0.00  0.00    +0.000 NA
BRANCH  17  18
ATOM     18  C   UNL     1     -15.286   2.483  32.638  0.00  0.00    +0.000 C 
ATOM     19  C   UNL     1     -14.572   1.630  33.685  0.00  0.00    +0.000 C 
ENDBRANCH  17  18
BRANCH  17  20
ATOM     20  C   UNL     1     -14.617   4.848  32.799  0.00  0.00    +0.000 C 
BRANCH  20  21
ATOM     21  C   UNL     1     -14.046   5.665  33.980  0.00  0.00    +0.000 C 
BRANCH  21  24
ATOM     22 CL   UNL     1     -11.731   9.272  30.965  0.00  0.00    +0.000 Cl
ATOM     23 CL   UNL     1     -10.944  10.839  33.706  0.00  0.00    +0.000 Cl
ATOM     24  C   UNL     1     -13.446   7.043  33.810  0.00  0.00    +0.000 A 
ATOM     25  C   UNL     1     -13.012   7.554  32.582  0.00  0.00    +0.000 A 
ATOM     26  C   UNL     1     -13.158   7.779  34.976  0.00  0.00    +0.000 A 
ATOM     27  C   UNL     1     -12.265   8.741  32.522  0.00  0.00    +0.000 A 
ATOM     28  C   UNL     1     -12.417   8.960  34.921  0.00  0.00    +0.000 A 
ATOM     29  C   UNL     1     -11.948   9.431  33.696  0.00  0.00    +0.000 A 
ENDBRANCH  21  24
ENDBRANCH  20  21
ENDBRANCH  17  20
ENDBRANCH  16  17
ENDBRANCH   4  16
TORSDOF 7
ENDMDL
MODEL 7
REMARK VINA RESULT:      -4.5     10.202     12.775
REMARK  Name = 142505466
REMARK  8 active torsions:
REMARK  status: ('A' for Active; 'I' for Inactive)
REMARK    1  A    between atoms: N_5  and  C_8
REMARK    2  A    between atoms: N_5  and  C_10
REMARK    3  A    between atoms: N_5  and  C_11
REMARK    4  A    between atoms: C_8  and  C_9
REMARK    5  A    between atoms: C_10  and  C_12
REMARK    6  A    between atoms: C_11  and  C_17
REMARK    7  A    between atoms: C_12  and  C_15
REMARK    8  A    between atoms: C_13  and  C_16
REMARK                            x       y       z     vdW  Elec       q    Type
REMARK                         _______ _______ _______ _____ _____    ______ ____
ROOT
ATOM      1  S   UNL     1       3.933  16.719  14.717  0.00  0.00    +0.000 S 
ATOM      2  N   UNL     1       4.800  17.090  17.110  0.00  0.00    +0.000 N 
ATOM      3  N   UNL     1       2.712  16.327  17.212  0.00  0.00    +0.000 NA
ATOM      4  C   UNL     1       4.565  16.926  18.460  0.00  0.00    +0.000 A 
ATOM      5  C   UNL     1       3.210  16.549  18.493  0.00  0.00    +0.000 A 
ATOM      6  C   UNL     1       3.703  16.645  16.437  0.00  0.00    +0.000 A 
ATOM      7  C   UNL     1       5.817  17.557  16.299  0.00  0.00    +0.000 A 
ATOM      8  C   UNL     1       5.537  17.407  14.996  0.00  0.00    +0.000 A 
ENDROOT
BRANCH   5  10
ATOM      9 CL   UNL     1      -0.652  15.769  23.020  0.00  0.00    +0.000 Cl
ATOM     10  C   UNL     1       2.324  16.374  19.647  0.00  0.00    +0.000 A 
ATOM     11  C   UNL     1       1.737  15.115  19.881  0.00  0.00    +0.000 A 
ATOM     12  C   UNL     1       1.957  17.432  20.486  0.00  0.00    +0.000 A 
ATOM     13  C   UNL     1       0.827  14.920  20.923  0.00  0.00    +0.000 A 
ATOM     14  C   UNL     1       1.065  17.236  21.548  0.00  0.00    +0.000 A 
ATOM     15  C   UNL     1       0.491  15.988  21.756  0.00  0.00    +0.000 A 
ENDBRANCH   5  10
BRANCH   4  16
ATOM     16  C   UNL     1       5.626  17.197  19.479  0.00  0.00    +0.000 C 
BRANCH  16  17
ATOM     17  N   UNL     1       6.702  16.191  19.600  0.00  0.00    +0.000 NA
BRANCH  17  18
ATOM     18  C   UNL     1       8.032  16.814  19.719  0.00  0.00    +0.000 C 
ATOM     19  C   UNL     1       8.042  18.297  20.085  0.00  0.00    +0.000 C 
ENDBRANCH  17  18
BRANCH  17  20
ATOM     20  C   UNL     1       6.473  15.102  20.560  0.00  0.00    +0.000 C 
BRANCH  20  21
ATOM     21  C   UNL     1       6.661  15.380  22.069  0.00  0.00    +0.000 C 
BRANCH  21  24
ATOM     22 CL   UNL     1       5.668  19.261  25.447  0.00  0.00    +0.000 Cl
ATOM     23 CL   UNL     1       2.727  17.936  25.872  0.00  0.00    +0.000 Cl
ATOM     24  C   UNL     1       5.676  16.191  22.883  0.00  0.00    +0.000 A 
ATOM     25  C   UNL     1       6.031  17.320  23.628  0.00  0.00    +0.000 A 
ATOM     26  C   UNL     1       4.372  15.681  23.028  0.00  0.00    +0.000 A 
ATOM     27  C   UNL     1       5.127  17.895  24.534  0.00  0.00    +0.000 A 
ATOM     28  C   UNL     1       3.469  16.250  23.927  0.00  0.00    +0.000 A 
ATOM     29  C   UNL     1       3.852  17.344  24.699  0.00  0.00    +0.000 A 
ENDBRANCH  21  24
ENDBRANCH  20  21
ENDBRANCH  17  20
ENDBRANCH  16  17
ENDBRANCH   4  16
TORSDOF 7
ENDMDL
MODEL 8
REMARK VINA RESULT:      -4.4      5.000      8.015
REMARK  Name = 142505466
REMARK  8 active torsions:
REMARK  status: ('A' for Active; 'I' for Inactive)
REMARK    1  A    between atoms: N_5  and  C_8
REMARK    2  A    between atoms: N_5  and  C_10
REMARK    3  A    between atoms: N_5  and  C_11
REMARK    4  A    between atoms: C_8  and  C_9
REMARK    5  A    between atoms: C_10  and  C_12
REMARK    6  A    between atoms: C_11  and  C_17
REMARK    7  A    between atoms: C_12  and  C_15
REMARK    8  A    between atoms: C_13  and  C_16
REMARK                            x       y       z     vdW  Elec       q    Type
REMARK                         _______ _______ _______ _____ _____    ______ ____
ROOT
ATOM      1  S   UNL     1      13.619  16.658  20.008  0.00  0.00    +0.000 S 
ATOM      2  N   UNL     1      12.479  15.592  22.051  0.00  0.00    +0.000 N 
ATOM      3  N   UNL     1      10.909  16.340  20.662  0.00  0.00    +0.000 NA
ATOM      4  C   UNL     1      11.293  15.185  22.629  0.00  0.00    +0.000 A 
ATOM      5  C   UNL     1      10.325  15.765  21.787  0.00  0.00    +0.000 A 
ATOM      6  C   UNL     1      12.183  16.190  20.865  0.00  0.00    +0.000 A 
ATOM      7  C   UNL     1      13.828  15.542  22.346  0.00  0.00    +0.000 A 
ATOM      8  C   UNL     1      14.582  16.038  21.353  0.00  0.00    +0.000 A 
ENDROOT
BRANCH   5  10
ATOM      9 CL   UNL     1       4.394  15.811  22.697  0.00  0.00    +0.000 Cl
ATOM     10  C   UNL     1       8.871  15.825  21.950  0.00  0.00    +0.000 A 
ATOM     11  C   UNL     1       8.332  16.343  23.144  0.00  0.00    +0.000 A 
ATOM     12  C   UNL     1       7.981  15.303  21.004  0.00  0.00    +0.000 A 
ATOM     13  C   UNL     1       6.954  16.349  23.376  0.00  0.00    +0.000 A 
ATOM     14  C   UNL     1       6.598  15.331  21.221  0.00  0.00    +0.000 A 
ATOM     15  C   UNL     1       6.088  15.839  22.409  0.00  0.00    +0.000 A 
ENDBRANCH   5  10
BRANCH   4  16
ATOM     16  C   UNL     1      11.271  14.374  23.885  0.00  0.00    +0.000 C 
BRANCH  16  17
ATOM     17  N   UNL     1      11.708  12.966  23.774  0.00  0.00    +0.000 NA
BRANCH  17  18
ATOM     18  C   UNL     1      12.755  12.632  24.755  0.00  0.00    +0.000 C 
ATOM     19  C   UNL     1      12.936  13.628  25.900  0.00  0.00    +0.000 C 
ENDBRANCH  17  18
BRANCH  17  20
ATOM     20  C   UNL     1      10.644  11.957  23.682  0.00  0.00    +0.000 C 
BRANCH  20  21
ATOM     21  C   UNL     1      11.020  10.460  23.759  0.00  0.00    +0.000 C 
BRANCH  21  24
ATOM     22 CL   UNL     1      11.052   5.718  21.528  0.00  0.00    +0.000 Cl
ATOM     23 CL   UNL     1      12.503   7.100  18.965  0.00  0.00    +0.000 Cl
ATOM     24  C   UNL     1      11.175   9.588  22.532  0.00  0.00    +0.000 A 
ATOM     25  C   UNL     1      10.951   8.208  22.528  0.00  0.00    +0.000 A 
ATOM     26  C   UNL     1      11.735  10.175  21.381  0.00  0.00    +0.000 A 
ATOM     27  C   UNL     1      11.324   7.423  21.425  0.00  0.00    +0.000 A 
ATOM     28  C   UNL     1      12.106   9.399  20.282  0.00  0.00    +0.000 A 
ATOM     29  C   UNL     1      11.924   8.018  20.311  0.00  0.00    +0.000 A 
ENDBRANCH  21  24
ENDBRANCH  20  21
ENDBRANCH  17  20
ENDBRANCH  16  17
ENDBRANCH   4  16
TORSDOF 7
ENDMDL
MODEL 9
REMARK VINA RESULT:      -4.4     25.959     28.305
REMARK  Name = 142505466
REMARK  8 active torsions:
REMARK  status: ('A' for Active; 'I' for Inactive)
REMARK    1  A    between atoms: N_5  and  C_8
REMARK    2  A    between atoms: N_5  and  C_10
REMARK    3  A    between atoms: N_5  and  C_11
REMARK    4  A    between atoms: C_8  and  C_9
REMARK    5  A    between atoms: C_10  and  C_12
REMARK    6  A    between atoms: C_11  and  C_17
REMARK    7  A    between atoms: C_12  and  C_15
REMARK    8  A    between atoms: C_13  and  C_16
REMARK                            x       y       z     vdW  Elec       q    Type
REMARK                         _______ _______ _______ _____ _____    ______ ____
ROOT
ATOM      1  S   UNL     1     -18.704   8.502  22.898  0.00  0.00    +0.000 S 
ATOM      2  N   UNL     1     -16.231   9.010  23.390  0.00  0.00    +0.000 N 
ATOM      3  N   UNL     1     -16.393   8.138  21.349  0.00  0.00    +0.000 NA
ATOM      4  C   UNL     1     -14.945   9.069  22.893  0.00  0.00    +0.000 A 
ATOM      5  C   UNL     1     -15.063   8.415  21.652  0.00  0.00    +0.000 A 
ATOM      6  C   UNL     1     -17.038   8.528  22.406  0.00  0.00    +0.000 A 
ATOM      7  C   UNL     1     -16.885   9.308  24.571  0.00  0.00    +0.000 A 
ATOM      8  C   UNL     1     -18.210   9.126  24.476  0.00  0.00    +0.000 A 
ENDROOT
BRANCH   5  10
ATOM      9 CL   UNL     1     -10.592   7.041  17.893  0.00  0.00    +0.000 Cl
ATOM     10  C   UNL     1     -14.015   8.022  20.708  0.00  0.00    +0.000 A 
ATOM     11  C   UNL     1     -12.770   7.585  21.202  0.00  0.00    +0.000 A 
ATOM     12  C   UNL     1     -14.160   8.148  19.321  0.00  0.00    +0.000 A 
ATOM     13  C   UNL     1     -11.715   7.273  20.341  0.00  0.00    +0.000 A 
ATOM     14  C   UNL     1     -13.114   7.812  18.453  0.00  0.00    +0.000 A 
ATOM     15  C   UNL     1     -11.892   7.390  18.962  0.00  0.00    +0.000 A 
ENDBRANCH   5  10
BRANCH   4  16
ATOM     16  C   UNL     1     -13.828   9.678  23.680  0.00  0.00    +0.000 C 
BRANCH  16  17
ATOM     17  N   UNL     1     -13.796  11.154  23.753  0.00  0.00    +0.000 NA
BRANCH  17  18
ATOM     18  C   UNL     1     -13.226  11.634  25.025  0.00  0.00    +0.000 C 
ATOM     19  C   UNL     1     -12.073  10.806  25.591  0.00  0.00    +0.000 C 
ENDBRANCH  17  18
BRANCH  17  20
ATOM     20  C   UNL     1     -13.273  11.855  22.572  0.00  0.00    +0.000 C 
BRANCH  20  21
ATOM     21  C   UNL     1     -12.147  11.195  21.744  0.00  0.00    +0.000 C 
BRANCH  21  24
ATOM     22 CL   UNL     1      -9.653  10.536  17.183  0.00  0.00    +0.000 Cl
ATOM     23 CL   UNL     1     -12.281  11.795  15.736  0.00  0.00    +0.000 Cl
ATOM     24  C   UNL     1     -12.173  11.126  20.233  0.00  0.00    +0.000 A 
ATOM     25  C   UNL     1     -11.064  10.779  19.453  0.00  0.00    +0.000 A 
ATOM     26  C   UNL     1     -13.326  11.598  19.577  0.00  0.00    +0.000 A 
ATOM     27  C   UNL     1     -11.085  10.947  18.060  0.00  0.00    +0.000 A 
ATOM     28  C   UNL     1     -13.352  11.765  18.191  0.00  0.00    +0.000 A 
ATOM     29  C   UNL     1     -12.223  11.463  17.432  0.00  0.00    +0.000 A 
ENDBRANCH  21  24
ENDBRANCH  20  21
ENDBRANCH  17  20
ENDBRANCH  16  17
ENDBRANCH   4  16
TORSDOF 7
ENDMDL
MODEL 10
REMARK VINA RESULT:      -4.4     29.682     32.325
REMARK  Name = 142505466
REMARK  8 active torsions:
REMARK  status: ('A' for Active; 'I' for Inactive)
REMARK    1  A    between atoms: N_5  and  C_8
REMARK    2  A    between atoms: N_5  and  C_10
REMARK    3  A    between atoms: N_5  and  C_11
REMARK    4  A    between atoms: C_8  and  C_9
REMARK    5  A    between atoms: C_10  and  C_12
REMARK    6  A    between atoms: C_11  and  C_17
REMARK    7  A    between atoms: C_12  and  C_15
REMARK    8  A    between atoms: C_13  and  C_16
REMARK                            x       y       z     vdW  Elec       q    Type
REMARK                         _______ _______ _______ _____ _____    ______ ____
ROOT
ATOM      1  S   UNL     1     -21.139   5.003  21.781  0.00  0.00    +0.000 S 
ATOM      2  N   UNL     1     -19.260   4.561  23.481  0.00  0.00    +0.000 N 
ATOM      3  N   UNL     1     -18.401   5.614  21.718  0.00  0.00    +0.000 NA
ATOM      4  C   UNL     1     -17.942   4.783  23.827  0.00  0.00    +0.000 A 
ATOM      5  C   UNL     1     -17.406   5.349  22.655  0.00  0.00    +0.000 A 
ATOM      6  C   UNL     1     -19.478   5.143  22.270  0.00  0.00    +0.000 A 
ATOM      7  C   UNL     1     -20.367   3.938  24.023  0.00  0.00    +0.000 A 
ATOM      8  C   UNL     1     -21.462   4.101  23.266  0.00  0.00    +0.000 A 
ENDROOT
BRANCH   5  10
ATOM      9 CL   UNL     1     -11.777   6.648  21.033  0.00  0.00    +0.000 Cl
ATOM     10  C   UNL     1     -16.014   5.671  22.334  0.00  0.00    +0.000 A 
ATOM     11  C   UNL     1     -15.724   6.859  21.634  0.00  0.00    +0.000 A 
ATOM     12  C   UNL     1     -14.953   4.800  22.611  0.00  0.00    +0.000 A 
ATOM     13  C   UNL     1     -14.421   7.169  21.239  0.00  0.00    +0.000 A 
ATOM     14  C   UNL     1     -13.641   5.120  22.240  0.00  0.00    +0.000 A 
ATOM     15  C   UNL     1     -13.379   6.293  21.543  0.00  0.00    +0.000 A 
ENDBRANCH   5  10
BRANCH   4  16
ATOM     16  C   UNL     1     -17.406   4.384  25.165  0.00  0.00    +0.000 C 
BRANCH  16  17
ATOM     17  N   UNL     1     -17.610   2.976  25.569  0.00  0.00    +0.000 NA
BRANCH  17  18
ATOM     18  C   UNL     1     -17.014   2.032  24.608  0.00  0.00    +0.000 C 
ATOM     19  C   UNL     1     -17.983   1.054  23.947  0.00  0.00    +0.000 C 
ENDBRANCH  17  18
BRANCH  17  20
ATOM     20  C   UNL     1     -17.319   2.651  26.972  0.00  0.00    +0.000 C 
BRANCH  20  21
ATOM     21  C   UNL     1     -16.066   3.260  27.640  0.00  0.00    +0.000 C 
BRANCH  21  24
ATOM     22 CL   UNL     1     -15.278  -0.615  31.079  0.00  0.00    +0.000 Cl
ATOM     23 CL   UNL     1     -14.620   1.682  33.287  0.00  0.00    +0.000 Cl
ATOM     24  C   UNL     1     -15.525   2.773  28.967  0.00  0.00    +0.000 A 
ATOM     25  C   UNL     1     -15.519   1.429  29.356  0.00  0.00    +0.000 A 
ATOM     26  C   UNL     1     -15.163   3.743  29.920  0.00  0.00    +0.000 A 
ATOM     27  C   UNL     1     -15.213   1.066  30.676  0.00  0.00    +0.000 A 
ATOM     28  C   UNL     1     -14.855   3.386  31.235  0.00  0.00    +0.000 A 
ATOM     29  C   UNL     1     -14.904   2.048  31.622  0.00  0.00    +0.000 A 
ENDBRANCH  21  24
ENDBRANCH  20  21
ENDBRANCH  17  20
ENDBRANCH  16  17
ENDBRANCH   4  16
TORSDOF 7
ENDMDL
