MODEL 1
REMARK VINA RESULT:      -6.2      0.000      0.000
REMARK  Name = 142505367
REMARK  5 active torsions:
REMARK  status: ('A' for Active; 'I' for Inactive)
REMARK    1  A    between atoms: O_4  and  N_7
REMARK    2  A    between atoms: O_4  and  C_24
REMARK    3  A    between atoms: C_8  and  C_9
REMARK    4  A    between atoms: C_10  and  C_20
REMARK    5  A    between atoms: C_24  and  C_25
REMARK                            x       y       z     vdW  Elec       q    Type
REMARK                         _______ _______ _______ _____ _____    ______ ____
ROOT
ATOM      1  S   UNL     1      10.585  14.757  22.264  0.00  0.00    +0.000 S 
ATOM      2  N   UNL     1      12.696  13.295  22.239  0.00  0.00    +0.000 N 
ATOM      3  N   UNL     1      10.974  12.083  21.514  0.00  0.00    +0.000 NA
ATOM      4  C   UNL     1      12.137  11.325  21.481  0.00  0.00    +0.000 A 
ATOM      5  C   UNL     1      13.240  12.079  21.916  0.00  0.00    +0.000 A 
ATOM      6  C   UNL     1      11.369  13.242  21.945  0.00  0.00    +0.000 A 
ATOM      7  C   UNL     1      13.135  14.506  22.741  0.00  0.00    +0.000 A 
ATOM      8  C   UNL     1      12.135  15.400  22.822  0.00  0.00    +0.000 A 
ENDROOT
BRANCH   4   9
ATOM      9  C   UNL     1      12.135   9.902  21.105  0.00  0.00    +0.000 A 
ATOM     10  C   UNL     1      12.548   9.443  19.812  0.00  0.00    +0.000 A 
ATOM     11  C   UNL     1      12.502   8.046  19.546  0.00  0.00    +0.000 A 
ATOM     12  C   UNL     1      11.658   8.964  22.043  0.00  0.00    +0.000 A 
ATOM     13  C   UNL     1      12.995  10.272  18.748  0.00  0.00    +0.000 A 
ATOM     14  C   UNL     1      12.084   7.149  20.535  0.00  0.00    +0.000 A 
ATOM     15  C   UNL     1      11.658   7.600  21.774  0.00  0.00    +0.000 A 
ATOM     16  C   UNL     1      12.857   7.548  18.281  0.00  0.00    +0.000 A 
ATOM     17  C   UNL     1      13.325   9.765  17.487  0.00  0.00    +0.000 A 
ATOM     18  C   UNL     1      13.254   8.402  17.253  0.00  0.00    +0.000 A 
ENDBRANCH   4   9
BRANCH   5  20
ATOM     19  N   UNL     1      15.178  11.626  23.196  0.00  0.00    +0.000 NA
ATOM     20  C   UNL     1      14.623  11.729  22.030  0.00  0.00    +0.000 C 
BRANCH  19  21
ATOM     21  O   UNL     1      16.507  11.190  23.035  0.00  0.00    +0.000 OA
BRANCH  21  22
ATOM     22  C   UNL     1      16.773  11.056  21.636  0.00  0.00    +0.000 C 
BRANCH  22  25
ATOM     23 CL   UNL     1      15.715   6.303  19.750  0.00  0.00    +0.000 Cl
ATOM     24 CL   UNL     1      18.848   5.552  20.206  0.00  0.00    +0.000 Cl
ATOM     25  C   UNL     1      17.248   9.659  21.302  0.00  0.00    +0.000 A 
ATOM     26  C   UNL     1      16.384   8.703  20.746  0.00  0.00    +0.000 A 
ATOM     27  C   UNL     1      18.596   9.322  21.486  0.00  0.00    +0.000 A 
ATOM     28  C   UNL     1      16.851   7.426  20.408  0.00  0.00    +0.000 A 
ATOM     29  C   UNL     1      19.067   8.052  21.144  0.00  0.00    +0.000 A 
ATOM     30  C   UNL     1      18.197   7.101  20.606  0.00  0.00    +0.000 A 
ENDBRANCH  22  25
ENDBRANCH  21  22
ENDBRANCH  19  21
ENDBRANCH   5  20
TORSDOF 5
ENDMDL
MODEL 2
REMARK VINA RESULT:      -6.0      4.015      6.910
REMARK  Name = 142505367
REMARK  5 active torsions:
REMARK  status: ('A' for Active; 'I' for Inactive)
REMARK    1  A    between atoms: O_4  and  N_7
REMARK    2  A    between atoms: O_4  and  C_24
REMARK    3  A    between atoms: C_8  and  C_9
REMARK    4  A    between atoms: C_10  and  C_20
REMARK    5  A    between atoms: C_24  and  C_25
REMARK                            x       y       z     vdW  Elec       q    Type
REMARK                         _______ _______ _______ _____ _____    ______ ____
ROOT
ATOM      1  S   UNL     1      20.258   6.957  21.679  0.00  0.00    +0.000 S 
ATOM      2  N   UNL     1      17.952   7.087  20.554  0.00  0.00    +0.000 N 
ATOM      3  N   UNL     1      18.195   8.845  21.898  0.00  0.00    +0.000 NA
ATOM      4  C   UNL     1      16.968   8.907  21.251  0.00  0.00    +0.000 A 
ATOM      5  C   UNL     1      16.804   7.816  20.382  0.00  0.00    +0.000 A 
ATOM      6  C   UNL     1      18.742   7.766  21.428  0.00  0.00    +0.000 A 
ATOM      7  C   UNL     1      18.494   5.910  20.072  0.00  0.00    +0.000 A 
ATOM      8  C   UNL     1      19.720   5.688  20.572  0.00  0.00    +0.000 A 
ENDROOT
BRANCH   4   9
ATOM      9  C   UNL     1      15.981   9.959  21.541  0.00  0.00    +0.000 A 
ATOM     10  C   UNL     1      16.042  11.261  20.946  0.00  0.00    +0.000 A 
ATOM     11  C   UNL     1      15.043  12.211  21.298  0.00  0.00    +0.000 A 
ATOM     12  C   UNL     1      14.968   9.685  22.481  0.00  0.00    +0.000 A 
ATOM     13  C   UNL     1      17.034  11.703  20.030  0.00  0.00    +0.000 A 
ATOM     14  C   UNL     1      14.018  11.866  22.186  0.00  0.00    +0.000 A 
ATOM     15  C   UNL     1      13.980  10.615  22.781  0.00  0.00    +0.000 A 
ATOM     16  C   UNL     1      15.079  13.515  20.774  0.00  0.00    +0.000 A 
ATOM     17  C   UNL     1      17.072  13.009  19.533  0.00  0.00    +0.000 A 
ATOM     18  C   UNL     1      16.095  13.916  19.908  0.00  0.00    +0.000 A 
ENDBRANCH   4   9
BRANCH   5  20
ATOM     19  N   UNL     1      14.613   7.014  19.985  0.00  0.00    +0.000 NA
ATOM     20  C   UNL     1      15.725   7.474  19.505  0.00  0.00    +0.000 C 
BRANCH  19  21
ATOM     21  O   UNL     1      13.696   6.842  18.931  0.00  0.00    +0.000 OA
BRANCH  21  22
ATOM     22  C   UNL     1      12.724   7.890  19.001  0.00  0.00    +0.000 C 
BRANCH  22  25
ATOM     23 CL   UNL     1      15.154  10.174  14.983  0.00  0.00    +0.000 Cl
ATOM     24 CL   UNL     1      14.575  13.039  16.411  0.00  0.00    +0.000 Cl
ATOM     25  C   UNL     1      13.234   9.152  18.343  0.00  0.00    +0.000 A 
ATOM     26  C   UNL     1      13.895   9.121  17.106  0.00  0.00    +0.000 A 
ATOM     27  C   UNL     1      12.986  10.396  18.943  0.00  0.00    +0.000 A 
ATOM     28  C   UNL     1      14.327  10.305  16.494  0.00  0.00    +0.000 A 
ATOM     29  C   UNL     1      13.409  11.579  18.332  0.00  0.00    +0.000 A 
ATOM     30  C   UNL     1      14.082  11.537  17.108  0.00  0.00    +0.000 A 
ENDBRANCH  22  25
ENDBRANCH  21  22
ENDBRANCH  19  21
ENDBRANCH   5  20
TORSDOF 5
ENDMDL
MODEL 3
REMARK VINA RESULT:      -5.8      4.333      7.253
REMARK  Name = 142505367
REMARK  5 active torsions:
REMARK  status: ('A' for Active; 'I' for Inactive)
REMARK    1  A    between atoms: O_4  and  N_7
REMARK    2  A    between atoms: O_4  and  C_24
REMARK    3  A    between atoms: C_8  and  C_9
REMARK    4  A    between atoms: C_10  and  C_20
REMARK    5  A    between atoms: C_24  and  C_25
REMARK                            x       y       z     vdW  Elec       q    Type
REMARK                         _______ _______ _______ _____ _____    ______ ____
ROOT
ATOM      1  S   UNL     1      19.362   7.637  21.329  0.00  0.00    +0.000 S 
ATOM      2  N   UNL     1      16.822   7.998  21.214  0.00  0.00    +0.000 N 
ATOM      3  N   UNL     1      17.783   9.877  21.925  0.00  0.00    +0.000 NA
ATOM      4  C   UNL     1      16.410  10.054  21.822  0.00  0.00    +0.000 A 
ATOM      5  C   UNL     1      15.786   8.885  21.355  0.00  0.00    +0.000 A 
ATOM      6  C   UNL     1      17.970   8.655  21.529  0.00  0.00    +0.000 A 
ATOM      7  C   UNL     1      16.990   6.681  20.830  0.00  0.00    +0.000 A 
ATOM      8  C   UNL     1      18.285   6.324  20.838  0.00  0.00    +0.000 A 
ENDROOT
BRANCH   4   9
ATOM      9  C   UNL     1      15.747  11.300  22.239  0.00  0.00    +0.000 A 
ATOM     10  C   UNL     1      15.373  12.325  21.310  0.00  0.00    +0.000 A 
ATOM     11  C   UNL     1      14.742  13.497  21.815  0.00  0.00    +0.000 A 
ATOM     12  C   UNL     1      15.520  11.510  23.614  0.00  0.00    +0.000 A 
ATOM     13  C   UNL     1      15.589  12.284  19.906  0.00  0.00    +0.000 A 
ATOM     14  C   UNL     1      14.479  13.626  23.183  0.00  0.00    +0.000 A 
ATOM     15  C   UNL     1      14.868  12.645  24.081  0.00  0.00    +0.000 A 
ATOM     16  C   UNL     1      14.392  14.549  20.952  0.00  0.00    +0.000 A 
ATOM     17  C   UNL     1      15.255  13.347  19.061  0.00  0.00    +0.000 A 
ATOM     18  C   UNL     1      14.659  14.481  19.585  0.00  0.00    +0.000 A 
ENDBRANCH   4   9
BRANCH   5  20
ATOM     19  N   UNL     1      13.561   8.473  22.048  0.00  0.00    +0.000 NA
ATOM     20  C   UNL     1      14.409   8.608  21.078  0.00  0.00    +0.000 C 
BRANCH  19  21
ATOM     21  O   UNL     1      12.273   8.294  21.510  0.00  0.00    +0.000 OA
BRANCH  21  22
ATOM     22  C   UNL     1      11.311   8.668  22.501  0.00  0.00    +0.000 C 
BRANCH  22  25
ATOM     23 CL   UNL     1      10.630  12.884  25.505  0.00  0.00    +0.000 Cl
ATOM     24 CL   UNL     1      11.059  14.706  22.844  0.00  0.00    +0.000 Cl
ATOM     25  C   UNL     1      11.204  10.172  22.618  0.00  0.00    +0.000 A 
ATOM     26  C   UNL     1      10.985  10.799  23.854  0.00  0.00    +0.000 A 
ATOM     27  C   UNL     1      11.394  10.971  21.482  0.00  0.00    +0.000 A 
ATOM     28  C   UNL     1      10.927  12.195  23.948  0.00  0.00    +0.000 A 
ATOM     29  C   UNL     1      11.343  12.365  21.574  0.00  0.00    +0.000 A 
ATOM     30  C   UNL     1      11.108  12.980  22.805  0.00  0.00    +0.000 A 
ENDBRANCH  22  25
ENDBRANCH  21  22
ENDBRANCH  19  21
ENDBRANCH   5  20
TORSDOF 5
ENDMDL
MODEL 4
REMARK VINA RESULT:      -5.8     29.048     31.685
REMARK  Name = 142505367
REMARK  5 active torsions:
REMARK  status: ('A' for Active; 'I' for Inactive)
REMARK    1  A    between atoms: O_4  and  N_7
REMARK    2  A    between atoms: O_4  and  C_24
REMARK    3  A    between atoms: C_8  and  C_9
REMARK    4  A    between atoms: C_10  and  C_20
REMARK    5  A    between atoms: C_24  and  C_25
REMARK                            x       y       z     vdW  Elec       q    Type
REMARK                         _______ _______ _______ _____ _____    ______ ____
ROOT
ATOM      1  S   UNL     1     -20.580   5.596  28.916  0.00  0.00    +0.000 S 
ATOM      2  N   UNL     1     -18.452   4.882  27.667  0.00  0.00    +0.000 N 
ATOM      3  N   UNL     1     -18.488   3.880  29.656  0.00  0.00    +0.000 NA
ATOM      4  C   UNL     1     -17.363   3.486  28.945  0.00  0.00    +0.000 A 
ATOM      5  C   UNL     1     -17.332   4.092  27.677  0.00  0.00    +0.000 A 
ATOM      6  C   UNL     1     -19.106   4.682  28.843  0.00  0.00    +0.000 A 
ATOM      7  C   UNL     1     -19.067   5.766  26.800  0.00  0.00    +0.000 A 
ATOM      8  C   UNL     1     -20.215   6.242  27.312  0.00  0.00    +0.000 A 
ENDROOT
BRANCH   4   9
ATOM      9  C   UNL     1     -16.334   2.609  29.527  0.00  0.00    +0.000 A 
ATOM     10  C   UNL     1     -15.421   3.054  30.538  0.00  0.00    +0.000 A 
ATOM     11  C   UNL     1     -14.458   2.130  31.032  0.00  0.00    +0.000 A 
ATOM     12  C   UNL     1     -16.215   1.296  29.030  0.00  0.00    +0.000 A 
ATOM     13  C   UNL     1     -15.381   4.361  31.094  0.00  0.00    +0.000 A 
ATOM     14  C   UNL     1     -14.426   0.816  30.552  0.00  0.00    +0.000 A 
ATOM     15  C   UNL     1     -15.292   0.399  29.554  0.00  0.00    +0.000 A 
ATOM     16  C   UNL     1     -13.514   2.527  31.994  0.00  0.00    +0.000 A 
ATOM     17  C   UNL     1     -14.422   4.750  32.035  0.00  0.00    +0.000 A 
ATOM     18  C   UNL     1     -13.487   3.832  32.483  0.00  0.00    +0.000 A 
ENDBRANCH   4   9
BRANCH   5  20
ATOM     19  N   UNL     1     -16.649   3.217  25.587  0.00  0.00    +0.000 NA
ATOM     20  C   UNL     1     -16.389   3.971  26.608  0.00  0.00    +0.000 C 
BRANCH  19  21
ATOM     21  O   UNL     1     -15.609   3.340  24.648  0.00  0.00    +0.000 OA
BRANCH  21  22
ATOM     22  C   UNL     1     -16.140   3.932  23.458  0.00  0.00    +0.000 C 
BRANCH  22  25
ATOM     23 CL   UNL     1     -14.920   7.561  19.907  0.00  0.00    +0.000 Cl
ATOM     24 CL   UNL     1     -11.794   7.098  20.679  0.00  0.00    +0.000 Cl
ATOM     25  C   UNL     1     -15.079   4.713  22.716  0.00  0.00    +0.000 A 
ATOM     26  C   UNL     1     -15.415   5.674  21.750  0.00  0.00    +0.000 A 
ATOM     27  C   UNL     1     -13.728   4.531  23.043  0.00  0.00    +0.000 A 
ATOM     28  C   UNL     1     -14.420   6.415  21.101  0.00  0.00    +0.000 A 
ATOM     29  C   UNL     1     -12.733   5.274  22.402  0.00  0.00    +0.000 A 
ATOM     30  C   UNL     1     -13.075   6.216  21.429  0.00  0.00    +0.000 A 
ENDBRANCH  22  25
ENDBRANCH  21  22
ENDBRANCH  19  21
ENDBRANCH   5  20
TORSDOF 5
ENDMDL
MODEL 5
REMARK VINA RESULT:      -5.7      8.014     11.750
REMARK  Name = 142505367
REMARK  5 active torsions:
REMARK  status: ('A' for Active; 'I' for Inactive)
REMARK    1  A    between atoms: O_4  and  N_7
REMARK    2  A    between atoms: O_4  and  C_24
REMARK    3  A    between atoms: C_8  and  C_9
REMARK    4  A    between atoms: C_10  and  C_20
REMARK    5  A    between atoms: C_24  and  C_25
REMARK                            x       y       z     vdW  Elec       q    Type
REMARK                         _______ _______ _______ _____ _____    ______ ____
ROOT
ATOM      1  S   UNL     1      10.432  17.062  18.849  0.00  0.00    +0.000 S 
ATOM      2  N   UNL     1       8.742  16.013  20.473  0.00  0.00    +0.000 N 
ATOM      3  N   UNL     1      10.786  15.814  21.335  0.00  0.00    +0.000 NA
ATOM      4  C   UNL     1       9.847  15.283  22.209  0.00  0.00    +0.000 A 
ATOM      5  C   UNL     1       8.548  15.417  21.693  0.00  0.00    +0.000 A 
ATOM      6  C   UNL     1      10.074  16.253  20.342  0.00  0.00    +0.000 A 
ATOM      7  C   UNL     1       7.966  16.432  19.409  0.00  0.00    +0.000 A 
ATOM      8  C   UNL     1       8.710  17.012  18.452  0.00  0.00    +0.000 A 
ENDROOT
BRANCH   4   9
ATOM      9  C   UNL     1      10.233  14.610  23.460  0.00  0.00    +0.000 A 
ATOM     10  C   UNL     1      10.454  15.321  24.684  0.00  0.00    +0.000 A 
ATOM     11  C   UNL     1      10.832  14.579  25.838  0.00  0.00    +0.000 A 
ATOM     12  C   UNL     1      10.441  13.216  23.433  0.00  0.00    +0.000 A 
ATOM     13  C   UNL     1      10.341  16.728  24.852  0.00  0.00    +0.000 A 
ATOM     14  C   UNL     1      10.959  13.186  25.774  0.00  0.00    +0.000 A 
ATOM     15  C   UNL     1      10.772  12.506  24.581  0.00  0.00    +0.000 A 
ATOM     16  C   UNL     1      11.099  15.232  27.053  0.00  0.00    +0.000 A 
ATOM     17  C   UNL     1      10.632  17.368  26.060  0.00  0.00    +0.000 A 
ATOM     18  C   UNL     1      11.014  16.619  27.161  0.00  0.00    +0.000 A 
ENDBRANCH   4   9
BRANCH   5  20
ATOM     19  N   UNL     1       6.549  15.912  22.859  0.00  0.00    +0.000 NA
ATOM     20  C   UNL     1       7.281  15.040  22.242  0.00  0.00    +0.000 C 
BRANCH  19  21
ATOM     21  O   UNL     1       5.329  15.313  23.222  0.00  0.00    +0.000 OA
BRANCH  21  22
ATOM     22  C   UNL     1       4.359  16.345  23.426  0.00  0.00    +0.000 C 
BRANCH  22  25
ATOM     23 CL   UNL     1       1.743  15.913  18.927  0.00  0.00    +0.000 Cl
ATOM     24 CL   UNL     1      -0.828  14.915  20.653  0.00  0.00    +0.000 Cl
ATOM     25  C   UNL     1       3.069  16.033  22.703  0.00  0.00    +0.000 A 
ATOM     26  C   UNL     1       2.973  16.105  21.304  0.00  0.00    +0.000 A 
ATOM     27  C   UNL     1       1.954  15.594  23.431  0.00  0.00    +0.000 A 
ATOM     28  C   UNL     1       1.780  15.774  20.650  0.00  0.00    +0.000 A 
ATOM     29  C   UNL     1       0.764  15.258  22.780  0.00  0.00    +0.000 A 
ATOM     30  C   UNL     1       0.673  15.348  21.390  0.00  0.00    +0.000 A 
ENDBRANCH  22  25
ENDBRANCH  21  22
ENDBRANCH  19  21
ENDBRANCH   5  20
TORSDOF 5
ENDMDL
MODEL 6
REMARK VINA RESULT:      -5.7      4.901      7.786
REMARK  Name = 142505367
REMARK  5 active torsions:
REMARK  status: ('A' for Active; 'I' for Inactive)
REMARK    1  A    between atoms: O_4  and  N_7
REMARK    2  A    between atoms: O_4  and  C_24
REMARK    3  A    between atoms: C_8  and  C_9
REMARK    4  A    between atoms: C_10  and  C_20
REMARK    5  A    between atoms: C_24  and  C_25
REMARK                            x       y       z     vdW  Elec       q    Type
REMARK                         _______ _______ _______ _____ _____    ______ ____
ROOT
ATOM      1  S   UNL     1      17.053  12.299  23.154  0.00  0.00    +0.000 S 
ATOM      2  N   UNL     1      14.515  12.682  23.050  0.00  0.00    +0.000 N 
ATOM      3  N   UNL     1      14.975  10.679  22.194  0.00  0.00    +0.000 NA
ATOM      4  C   UNL     1      13.604  10.899  22.180  0.00  0.00    +0.000 A 
ATOM      5  C   UNL     1      13.291  12.151  22.736  0.00  0.00    +0.000 A 
ATOM      6  C   UNL     1      15.458  11.752  22.742  0.00  0.00    +0.000 A 
ATOM      7  C   UNL     1      15.008  13.853  23.596  0.00  0.00    +0.000 A 
ATOM      8  C   UNL     1      16.346  13.817  23.719  0.00  0.00    +0.000 A 
ENDROOT
BRANCH   4   9
ATOM      9  C   UNL     1      12.662   9.944  21.576  0.00  0.00    +0.000 A 
ATOM     10  C   UNL     1      12.580   9.727  20.162  0.00  0.00    +0.000 A 
ATOM     11  C   UNL     1      11.629   8.786  19.678  0.00  0.00    +0.000 A 
ATOM     12  C   UNL     1      11.772   9.255  22.425  0.00  0.00    +0.000 A 
ATOM     13  C   UNL     1      13.366  10.388  19.181  0.00  0.00    +0.000 A 
ATOM     14  C   UNL     1      10.815   8.077  20.568  0.00  0.00    +0.000 A 
ATOM     15  C   UNL     1      10.879   8.311  21.933  0.00  0.00    +0.000 A 
ATOM     16  C   UNL     1      11.481   8.566  18.297  0.00  0.00    +0.000 A 
ATOM     17  C   UNL     1      13.193  10.176  17.809  0.00  0.00    +0.000 A 
ATOM     18  C   UNL     1      12.248   9.266  17.368  0.00  0.00    +0.000 A 
ENDBRANCH   4   9
BRANCH   5  20
ATOM     19  N   UNL     1      11.269  13.089  21.940  0.00  0.00    +0.000 NA
ATOM     20  C   UNL     1      12.028  12.790  22.947  0.00  0.00    +0.000 C 
BRANCH  19  21
ATOM     21  O   UNL     1      10.060  13.624  22.420  0.00  0.00    +0.000 OA
BRANCH  21  22
ATOM     22  C   UNL     1       9.835  14.884  21.780  0.00  0.00    +0.000 C 
BRANCH  22  25
ATOM     23 CL   UNL     1       5.375  15.151  19.078  0.00  0.00    +0.000 Cl
ATOM     24 CL   UNL     1       3.912  16.130  21.814  0.00  0.00    +0.000 Cl
ATOM     25  C   UNL     1       8.362  15.223  21.742  0.00  0.00    +0.000 A 
ATOM     26  C   UNL     1       7.602  15.066  20.573  0.00  0.00    +0.000 A 
ATOM     27  C   UNL     1       7.716  15.639  22.914  0.00  0.00    +0.000 A 
ATOM     28  C   UNL     1       6.230  15.348  20.567  0.00  0.00    +0.000 A 
ATOM     29  C   UNL     1       6.346  15.915  22.913  0.00  0.00    +0.000 A 
ATOM     30  C   UNL     1       5.600  15.773  21.741  0.00  0.00    +0.000 A 
ENDBRANCH  22  25
ENDBRANCH  21  22
ENDBRANCH  19  21
ENDBRANCH   5  20
TORSDOF 5
ENDMDL
MODEL 7
REMARK VINA RESULT:      -5.7     29.492     31.725
REMARK  Name = 142505367
REMARK  5 active torsions:
REMARK  status: ('A' for Active; 'I' for Inactive)
REMARK    1  A    between atoms: O_4  and  N_7
REMARK    2  A    between atoms: O_4  and  C_24
REMARK    3  A    between atoms: C_8  and  C_9
REMARK    4  A    between atoms: C_10  and  C_20
REMARK    5  A    between atoms: C_24  and  C_25
REMARK                            x       y       z     vdW  Elec       q    Type
REMARK                         _______ _______ _______ _____ _____    ______ ____
ROOT
ATOM      1  S   UNL     1      -1.364 -15.366  13.345  0.00  0.00    +0.000 S 
ATOM      2  N   UNL     1      -3.780 -15.267  14.210  0.00  0.00    +0.000 N 
ATOM      3  N   UNL     1      -2.877 -13.239  14.371  0.00  0.00    +0.000 NA
ATOM      4  C   UNL     1      -4.196 -13.208  14.802  0.00  0.00    +0.000 A 
ATOM      5  C   UNL     1      -4.791 -14.475  14.690  0.00  0.00    +0.000 A 
ATOM      6  C   UNL     1      -2.695 -14.472  14.009  0.00  0.00    +0.000 A 
ATOM      7  C   UNL     1      -3.600 -16.596  13.874  0.00  0.00    +0.000 A 
ATOM      8  C   UNL     1      -2.364 -16.823  13.397  0.00  0.00    +0.000 A 
ENDROOT
BRANCH   4   9
ATOM      9  C   UNL     1      -4.807 -11.994  15.367  0.00  0.00    +0.000 A 
ATOM     10  C   UNL     1      -4.952 -11.785  16.777  0.00  0.00    +0.000 A 
ATOM     11  C   UNL     1      -5.564 -10.580  17.222  0.00  0.00    +0.000 A 
ATOM     12  C   UNL     1      -5.316 -11.026  14.478  0.00  0.00    +0.000 A 
ATOM     13  C   UNL     1      -4.543 -12.693  17.791  0.00  0.00    +0.000 A 
ATOM     14  C   UNL     1      -5.992  -9.619  16.299  0.00  0.00    +0.000 A 
ATOM     15  C   UNL     1      -5.876  -9.839  14.935  0.00  0.00    +0.000 A 
ATOM     16  C   UNL     1      -5.766 -10.344  18.593  0.00  0.00    +0.000 A 
ATOM     17  C   UNL     1      -4.769 -12.456  19.150  0.00  0.00    +0.000 A 
ATOM     18  C   UNL     1      -5.383 -11.282  19.550  0.00  0.00    +0.000 A 
ENDBRANCH   4   9
BRANCH   5  20
ATOM     19  N   UNL     1      -6.455 -15.197  16.210  0.00  0.00    +0.000 NA
ATOM     20  C   UNL     1      -6.120 -14.913  14.991  0.00  0.00    +0.000 C 
BRANCH  19  21
ATOM     21  O   UNL     1      -7.825 -15.515  16.247  0.00  0.00    +0.000 OA
BRANCH  21  22
ATOM     22  C   UNL     1      -8.353 -15.097  17.510  0.00  0.00    +0.000 C 
BRANCH  22  25
ATOM     23 CL   UNL     1      -9.409 -10.724  14.859  0.00  0.00    +0.000 Cl
ATOM     24 CL   UNL     1      -9.604  -9.178  17.715  0.00  0.00    +0.000 Cl
ATOM     25  C   UNL     1      -8.630 -13.610  17.520  0.00  0.00    +0.000 A 
ATOM     26  C   UNL     1      -8.865 -12.898  16.334  0.00  0.00    +0.000 A 
ATOM     27  C   UNL     1      -8.724 -12.931  18.744  0.00  0.00    +0.000 A 
ATOM     28  C   UNL     1      -9.157 -11.529  16.367  0.00  0.00    +0.000 A 
ATOM     29  C   UNL     1      -9.023 -11.566  18.780  0.00  0.00    +0.000 A 
ATOM     30  C   UNL     1      -9.238 -10.861  17.594  0.00  0.00    +0.000 A 
ENDBRANCH  22  25
ENDBRANCH  21  22
ENDBRANCH  19  21
ENDBRANCH   5  20
TORSDOF 5
ENDMDL
MODEL 8
REMARK VINA RESULT:      -5.6     21.689     24.276
REMARK  Name = 142505367
REMARK  5 active torsions:
REMARK  status: ('A' for Active; 'I' for Inactive)
REMARK    1  A    between atoms: O_4  and  N_7
REMARK    2  A    between atoms: O_4  and  C_24
REMARK    3  A    between atoms: C_8  and  C_9
REMARK    4  A    between atoms: C_10  and  C_20
REMARK    5  A    between atoms: C_24  and  C_25
REMARK                            x       y       z     vdW  Elec       q    Type
REMARK                         _______ _______ _______ _____ _____    ______ ____
ROOT
ATOM      1  S   UNL     1       2.314  10.562   0.229  0.00  0.00    +0.000 S 
ATOM      2  N   UNL     1       0.918  11.541   2.150  0.00  0.00    +0.000 N 
ATOM      3  N   UNL     1      -0.328  10.072   1.032  0.00  0.00    +0.000 NA
ATOM      4  C   UNL     1      -1.049  10.594   2.098  0.00  0.00    +0.000 A 
ATOM      5  C   UNL     1      -0.272  11.509   2.829  0.00  0.00    +0.000 A 
ATOM      6  C   UNL     1       0.832  10.647   1.128  0.00  0.00    +0.000 A 
ATOM      7  C   UNL     1       2.130  12.200   2.248  0.00  0.00    +0.000 A 
ATOM      8  C   UNL     1       2.990  11.797   1.297  0.00  0.00    +0.000 A 
ENDROOT
BRANCH   4   9
ATOM      9  C   UNL     1      -2.461  10.254   2.331  0.00  0.00    +0.000 A 
ATOM     10  C   UNL     1      -2.894   9.471   3.450  0.00  0.00    +0.000 A 
ATOM     11  C   UNL     1      -4.283   9.191   3.581  0.00  0.00    +0.000 A 
ATOM     12  C   UNL     1      -3.415  10.675   1.382  0.00  0.00    +0.000 A 
ATOM     13  C   UNL     1      -2.046   8.929   4.453  0.00  0.00    +0.000 A 
ATOM     14  C   UNL     1      -5.198   9.690   2.648  0.00  0.00    +0.000 A 
ATOM     15  C   UNL     1      -4.772  10.422   1.551  0.00  0.00    +0.000 A 
ATOM     16  C   UNL     1      -4.755   8.395   4.639  0.00  0.00    +0.000 A 
ATOM     17  C   UNL     1      -2.526   8.120   5.488  0.00  0.00    +0.000 A 
ATOM     18  C   UNL     1      -3.881   7.851   5.579  0.00  0.00    +0.000 A 
ENDBRANCH   4   9
BRANCH   5  20
ATOM     19  N   UNL     1      -0.311  11.798   5.177  0.00  0.00    +0.000 NA
ATOM     20  C   UNL     1      -0.582  12.269   4.001  0.00  0.00    +0.000 C 
BRANCH  19  21
ATOM     21  O   UNL     1      -0.632  12.768   6.145  0.00  0.00    +0.000 OA
BRANCH  21  22
ATOM     22  C   UNL     1      -1.164  12.102   7.295  0.00  0.00    +0.000 C 
BRANCH  22  25
ATOM     23 CL   UNL     1      -5.570  12.726   4.563  0.00  0.00    +0.000 Cl
ATOM     24 CL   UNL     1      -6.989  10.614   6.591  0.00  0.00    +0.000 Cl
ATOM     25  C   UNL     1      -2.631  11.783   7.112  0.00  0.00    +0.000 A 
ATOM     26  C   UNL     1      -3.375  12.328   6.054  0.00  0.00    +0.000 A 
ATOM     27  C   UNL     1      -3.255  10.870   7.973  0.00  0.00    +0.000 A 
ATOM     28  C   UNL     1      -4.722  11.991   5.878  0.00  0.00    +0.000 A 
ATOM     29  C   UNL     1      -4.598  10.526   7.796  0.00  0.00    +0.000 A 
ATOM     30  C   UNL     1      -5.335  11.086   6.751  0.00  0.00    +0.000 A 
ENDBRANCH  22  25
ENDBRANCH  21  22
ENDBRANCH  19  21
ENDBRANCH   5  20
TORSDOF 5
ENDMDL
MODEL 9
REMARK VINA RESULT:      -5.5      4.737      7.202
REMARK  Name = 142505367
REMARK  5 active torsions:
REMARK  status: ('A' for Active; 'I' for Inactive)
REMARK    1  A    between atoms: O_4  and  N_7
REMARK    2  A    between atoms: O_4  and  C_24
REMARK    3  A    between atoms: C_8  and  C_9
REMARK    4  A    between atoms: C_10  and  C_20
REMARK    5  A    between atoms: C_24  and  C_25
REMARK                            x       y       z     vdW  Elec       q    Type
REMARK                         _______ _______ _______ _____ _____    ______ ____
ROOT
ATOM      1  S   UNL     1      15.922  14.937  12.583  0.00  0.00    +0.000 S 
ATOM      2  N   UNL     1      15.432  12.723  13.789  0.00  0.00    +0.000 N 
ATOM      3  N   UNL     1      16.344  14.145  15.240  0.00  0.00    +0.000 NA
ATOM      4  C   UNL     1      16.038  12.949  15.874  0.00  0.00    +0.000 A 
ATOM      5  C   UNL     1      15.443  12.044  14.980  0.00  0.00    +0.000 A 
ATOM      6  C   UNL     1      15.940  13.964  14.019  0.00  0.00    +0.000 A 
ATOM      7  C   UNL     1      15.035  12.489  12.486  0.00  0.00    +0.000 A 
ATOM      8  C   UNL     1      15.229  13.567  11.708  0.00  0.00    +0.000 A 
ENDROOT
BRANCH   4   9
ATOM      9  C   UNL     1      16.390  12.695  17.281  0.00  0.00    +0.000 A 
ATOM     10  C   UNL     1      15.405  12.459  18.294  0.00  0.00    +0.000 A 
ATOM     11  C   UNL     1      15.848  12.231  19.626  0.00  0.00    +0.000 A 
ATOM     12  C   UNL     1      17.750  12.738  17.648  0.00  0.00    +0.000 A 
ATOM     13  C   UNL     1      13.999  12.444  18.088  0.00  0.00    +0.000 A 
ATOM     14  C   UNL     1      17.215  12.217  19.927  0.00  0.00    +0.000 A 
ATOM     15  C   UNL     1      18.163  12.474  18.949  0.00  0.00    +0.000 A 
ATOM     16  C   UNL     1      14.921  12.034  20.664  0.00  0.00    +0.000 A 
ATOM     17  C   UNL     1      13.087  12.269  19.133  0.00  0.00    +0.000 A 
ATOM     18  C   UNL     1      13.549  12.066  20.422  0.00  0.00    +0.000 A 
ENDBRANCH   4   9
BRANCH   5  20
ATOM     19  N   UNL     1      13.678  10.478  15.154  0.00  0.00    +0.000 NA
ATOM     20  C   UNL     1      14.951  10.716  15.185  0.00  0.00    +0.000 C 
BRANCH  19  21
ATOM     21  O   UNL     1      13.466   9.094  15.296  0.00  0.00    +0.000 OA
BRANCH  21  22
ATOM     22  C   UNL     1      12.277   8.894  16.068  0.00  0.00    +0.000 C 
BRANCH  22  25
ATOM     23 CL   UNL     1      15.865   8.555  19.847  0.00  0.00    +0.000 Cl
ATOM     24 CL   UNL     1      13.423   8.363  21.988  0.00  0.00    +0.000 Cl
ATOM     25  C   UNL     1      12.601   8.724  17.535  0.00  0.00    +0.000 A 
ATOM     26  C   UNL     1      13.926   8.709  17.999  0.00  0.00    +0.000 A 
ATOM     27  C   UNL     1      11.560   8.647  18.471  0.00  0.00    +0.000 A 
ATOM     28  C   UNL     1      14.206   8.589  19.366  0.00  0.00    +0.000 A 
ATOM     29  C   UNL     1      11.836   8.534  19.837  0.00  0.00    +0.000 A 
ATOM     30  C   UNL     1      13.157   8.503  20.288  0.00  0.00    +0.000 A 
ENDBRANCH  22  25
ENDBRANCH  21  22
ENDBRANCH  19  21
ENDBRANCH   5  20
TORSDOF 5
ENDMDL
MODEL 10
REMARK VINA RESULT:      -5.4     30.881     33.827
REMARK  Name = 142505367
REMARK  5 active torsions:
REMARK  status: ('A' for Active; 'I' for Inactive)
REMARK    1  A    between atoms: O_4  and  N_7
REMARK    2  A    between atoms: O_4  and  C_24
REMARK    3  A    between atoms: C_8  and  C_9
REMARK    4  A    between atoms: C_10  and  C_20
REMARK    5  A    between atoms: C_24  and  C_25
REMARK                            x       y       z     vdW  Elec       q    Type
REMARK                         _______ _______ _______ _____ _____    ______ ____
ROOT
ATOM      1  S   UNL     1      -5.206 -10.072  44.416  0.00  0.00    +0.000 S 
ATOM      2  N   UNL     1      -5.895  -8.318  42.670  0.00  0.00    +0.000 N 
ATOM      3  N   UNL     1      -3.730  -8.067  43.124  0.00  0.00    +0.000 NA
ATOM      4  C   UNL     1      -4.122  -7.152  42.157  0.00  0.00    +0.000 A 
ATOM      5  C   UNL     1      -5.483  -7.307  41.842  0.00  0.00    +0.000 A 
ATOM      6  C   UNL     1      -4.810  -8.745  43.369  0.00  0.00    +0.000 A 
ATOM      7  C   UNL     1      -7.069  -8.995  42.945  0.00  0.00    +0.000 A 
ATOM      8  C   UNL     1      -6.880  -9.963  43.858  0.00  0.00    +0.000 A 
ENDROOT
BRANCH   4   9
ATOM      9  C   UNL     1      -3.207  -6.127  41.630  0.00  0.00    +0.000 A 
ATOM     10  C   UNL     1      -2.983  -4.876  42.292  0.00  0.00    +0.000 A 
ATOM     11  C   UNL     1      -2.083  -3.949  41.696  0.00  0.00    +0.000 A 
ATOM     12  C   UNL     1      -2.568  -6.371  40.398  0.00  0.00    +0.000 A 
ATOM     13  C   UNL     1      -3.597  -4.465  43.505  0.00  0.00    +0.000 A 
ATOM     14  C   UNL     1      -1.422  -4.268  40.505  0.00  0.00    +0.000 A 
ATOM     15  C   UNL     1      -1.664  -5.467  39.853  0.00  0.00    +0.000 A 
ATOM     16  C   UNL     1      -1.858  -2.692  42.284  0.00  0.00    +0.000 A 
ATOM     17  C   UNL     1      -3.382  -3.203  44.068  0.00  0.00    +0.000 A 
ATOM     18  C   UNL     1      -2.514  -2.316  43.455  0.00  0.00    +0.000 A 
ENDBRANCH   4   9
BRANCH   5  20
ATOM     19  N   UNL     1      -6.295  -6.939  39.650  0.00  0.00    +0.000 NA
ATOM     20  C   UNL     1      -6.308  -6.611  40.903  0.00  0.00    +0.000 C 
BRANCH  19  21
ATOM     21  O   UNL     1      -7.251  -6.167  38.963  0.00  0.00    +0.000 OA
BRANCH  21  22
ATOM     22  C   UNL     1      -8.553  -6.665  39.286  0.00  0.00    +0.000 C 
BRANCH  22  25
ATOM     23 CL   UNL     1     -13.300  -5.118  40.814  0.00  0.00    +0.000 Cl
ATOM     24 CL   UNL     1     -12.132  -2.086  40.978  0.00  0.00    +0.000 Cl
ATOM     25  C   UNL     1      -9.486  -5.541  39.676  0.00  0.00    +0.000 A 
ATOM     26  C   UNL     1     -10.823  -5.783  40.027  0.00  0.00    +0.000 A 
ATOM     27  C   UNL     1      -8.996  -4.230  39.758  0.00  0.00    +0.000 A 
ATOM     28  C   UNL     1     -11.662  -4.734  40.422  0.00  0.00    +0.000 A 
ATOM     29  C   UNL     1      -9.829  -3.181  40.159  0.00  0.00    +0.000 A 
ATOM     30  C   UNL     1     -11.162  -3.429  40.490  0.00  0.00    +0.000 A 
ENDBRANCH  22  25
ENDBRANCH  21  22
ENDBRANCH  19  21
ENDBRANCH   5  20
TORSDOF 5
ENDMDL
