MODEL 1
REMARK VINA RESULT:      -5.7      0.000      0.000
REMARK  Name = 142505504
REMARK  5 active torsions:
REMARK  status: ('A' for Active; 'I' for Inactive)
REMARK    1  A    between atoms: O_5  and  N_8
REMARK    2  A    between atoms: O_5  and  C_21
REMARK    3  A    between atoms: C_9  and  C_14
REMARK    4  A    between atoms: C_10  and  C_12
REMARK    5  A    between atoms: C_20  and  C_21
REMARK                            x       y       z     vdW  Elec       q    Type
REMARK                         _______ _______ _______ _____ _____    ______ ____
ROOT
ATOM      1  S   UNL     1     -15.779   3.673  24.757  0.00  0.00    +0.000 S 
ATOM      2  N   UNL     1     -16.081   4.756  22.447  0.00  0.00    +0.000 N 
ATOM      3  N   UNL     1     -14.158   5.468  23.335  0.00  0.00    +0.000 NA
ATOM      4  C   UNL     1     -15.529   5.559  21.481  0.00  0.00    +0.000 A 
ATOM      5  C   UNL     1     -14.354   6.025  22.081  0.00  0.00    +0.000 A 
ATOM      6  C   UNL     1     -15.216   4.727  23.498  0.00  0.00    +0.000 A 
ATOM      7  C   UNL     1     -17.203   3.967  22.594  0.00  0.00    +0.000 A 
ATOM      8  C   UNL     1     -17.205   3.317  23.771  0.00  0.00    +0.000 A 
ENDROOT
BRANCH   5  10
ATOM      9 CL   UNL     1     -12.946  10.943  21.357  0.00  0.00    +0.000 Cl
ATOM     10  C   UNL     1     -13.398   6.964  21.509  0.00  0.00    +0.000 A 
ATOM     11  C   UNL     1     -13.603   8.342  21.672  0.00  0.00    +0.000 A 
ATOM     12  C   UNL     1     -12.288   6.530  20.767  0.00  0.00    +0.000 A 
ATOM     13  C   UNL     1     -12.690   9.255  21.144  0.00  0.00    +0.000 A 
ATOM     14  C   UNL     1     -11.369   7.448  20.252  0.00  0.00    +0.000 A 
ATOM     15  C   UNL     1     -11.567   8.813  20.446  0.00  0.00    +0.000 A 
ENDBRANCH   5  10
BRANCH   4  17
ATOM     16  N   UNL     1     -16.453   6.953  19.778  0.00  0.00    +0.000 NA
ATOM     17  C   UNL     1     -16.044   5.787  20.164  0.00  0.00    +0.000 C 
BRANCH  16  18
ATOM     18  O   UNL     1     -16.881   6.847  18.439  0.00  0.00    +0.000 OA
BRANCH  18  19
ATOM     19  C   UNL     1     -16.753   8.120  17.800  0.00  0.00    +0.000 C 
BRANCH  19  22
ATOM     20 CL   UNL     1     -14.029   7.400  13.434  0.00  0.00    +0.000 Cl
ATOM     21 CL   UNL     1     -11.378   8.423  15.019  0.00  0.00    +0.000 Cl
ATOM     22  C   UNL     1     -15.419   8.242  17.094  0.00  0.00    +0.000 A 
ATOM     23  C   UNL     1     -15.304   7.851  15.750  0.00  0.00    +0.000 A 
ATOM     24  C   UNL     1     -14.266   8.668  17.768  0.00  0.00    +0.000 A 
ATOM     25  C   UNL     1     -14.072   7.903  15.087  0.00  0.00    +0.000 A 
ATOM     26  C   UNL     1     -13.034   8.723  17.108  0.00  0.00    +0.000 A 
ATOM     27  C   UNL     1     -12.933   8.340  15.768  0.00  0.00    +0.000 A 
ENDBRANCH  19  22
ENDBRANCH  18  19
ENDBRANCH  16  18
ENDBRANCH   4  17
TORSDOF 5
ENDMDL
MODEL 2
REMARK VINA RESULT:      -5.4     19.046     19.965
REMARK  Name = 142505504
REMARK  5 active torsions:
REMARK  status: ('A' for Active; 'I' for Inactive)
REMARK    1  A    between atoms: O_5  and  N_8
REMARK    2  A    between atoms: O_5  and  C_21
REMARK    3  A    between atoms: C_9  and  C_14
REMARK    4  A    between atoms: C_10  and  C_12
REMARK    5  A    between atoms: C_20  and  C_21
REMARK                            x       y       z     vdW  Elec       q    Type
REMARK                         _______ _______ _______ _____ _____    ______ ____
ROOT
ATOM      1  S   UNL     1     -11.699  -7.947  16.475  0.00  0.00    +0.000 S 
ATOM      2  N   UNL     1      -9.704  -8.999  15.245  0.00  0.00    +0.000 N 
ATOM      3  N   UNL     1      -9.321  -9.076  17.445  0.00  0.00    +0.000 NA
ATOM      4  C   UNL     1      -8.503  -9.651  15.366  0.00  0.00    +0.000 A 
ATOM      5  C   UNL     1      -8.268  -9.643  16.745  0.00  0.00    +0.000 A 
ATOM      6  C   UNL     1     -10.140  -8.710  16.503  0.00  0.00    +0.000 A 
ATOM      7  C   UNL     1     -10.564  -8.632  14.231  0.00  0.00    +0.000 A 
ATOM      8  C   UNL     1     -11.680  -8.054  14.709  0.00  0.00    +0.000 A 
ENDROOT
BRANCH   5  10
ATOM      9 CL   UNL     1      -3.203 -10.651  16.602  0.00  0.00    +0.000 Cl
ATOM     10  C   UNL     1      -7.093 -10.167  17.431  0.00  0.00    +0.000 A 
ATOM     11  C   UNL     1      -5.856 -10.173  16.770  0.00  0.00    +0.000 A 
ATOM     12  C   UNL     1      -7.169 -10.698  18.728  0.00  0.00    +0.000 A 
ATOM     13  C   UNL     1      -4.718 -10.656  17.417  0.00  0.00    +0.000 A 
ATOM     14  C   UNL     1      -6.024 -11.168  19.375  0.00  0.00    +0.000 A 
ATOM     15  C   UNL     1      -4.794 -11.141  18.721  0.00  0.00    +0.000 A 
ENDBRANCH   5  10
BRANCH   4  17
ATOM     16  N   UNL     1      -7.765 -11.506  14.057  0.00  0.00    +0.000 NA
ATOM     17  C   UNL     1      -7.738 -10.236  14.305  0.00  0.00    +0.000 C 
BRANCH  16  18
ATOM     18  O   UNL     1      -6.924 -11.757  12.955  0.00  0.00    +0.000 OA
BRANCH  18  19
ATOM     19  C   UNL     1      -5.661 -12.239  13.425  0.00  0.00    +0.000 C 
BRANCH  19  22
ATOM     20 CL   UNL     1      -4.140  -8.710   9.927  0.00  0.00    +0.000 Cl
ATOM     21 CL   UNL     1      -1.080  -9.147  10.941  0.00  0.00    +0.000 Cl
ATOM     22  C   UNL     1      -4.521 -11.433  12.839  0.00  0.00    +0.000 A 
ATOM     23  C   UNL     1      -4.773 -10.525  11.798  0.00  0.00    +0.000 A 
ATOM     24  C   UNL     1      -3.196 -11.621  13.256  0.00  0.00    +0.000 A 
ATOM     25  C   UNL     1      -3.731  -9.804  11.202  0.00  0.00    +0.000 A 
ATOM     26  C   UNL     1      -2.153 -10.901  12.663  0.00  0.00    +0.000 A 
ATOM     27  C   UNL     1      -2.417  -9.993  11.635  0.00  0.00    +0.000 A 
ENDBRANCH  19  22
ENDBRANCH  18  19
ENDBRANCH  16  18
ENDBRANCH   4  17
TORSDOF 5
ENDMDL
MODEL 3
REMARK VINA RESULT:      -5.2     32.266     33.961
REMARK  Name = 142505504
REMARK  5 active torsions:
REMARK  status: ('A' for Active; 'I' for Inactive)
REMARK    1  A    between atoms: O_5  and  N_8
REMARK    2  A    between atoms: O_5  and  C_21
REMARK    3  A    between atoms: C_9  and  C_14
REMARK    4  A    between atoms: C_10  and  C_12
REMARK    5  A    between atoms: C_20  and  C_21
REMARK                            x       y       z     vdW  Elec       q    Type
REMARK                         _______ _______ _______ _____ _____    ______ ____
ROOT
ATOM      1  S   UNL     1      -0.896 -15.089   4.607  0.00  0.00    +0.000 S 
ATOM      2  N   UNL     1      -0.492 -14.360   2.176  0.00  0.00    +0.000 N 
ATOM      3  N   UNL     1       1.418 -15.154   3.021  0.00  0.00    +0.000 NA
ATOM      4  C   UNL     1       0.400 -14.299   1.135  0.00  0.00    +0.000 A 
ATOM      5  C   UNL     1       1.593 -14.757   1.705  0.00  0.00    +0.000 A 
ATOM      6  C   UNL     1       0.164 -14.892   3.245  0.00  0.00    +0.000 A 
ATOM      7  C   UNL     1      -1.827 -14.088   2.388  0.00  0.00    +0.000 A 
ATOM      8  C   UNL     1      -2.212 -14.415   3.634  0.00  0.00    +0.000 A 
ENDROOT
BRANCH   5  10
ATOM      9 CL   UNL     1       5.971 -17.414   1.025  0.00  0.00    +0.000 Cl
ATOM     10  C   UNL     1       2.891 -14.851   1.048  0.00  0.00    +0.000 A 
ATOM     11  C   UNL     1       3.723 -15.947   1.321  0.00  0.00    +0.000 A 
ATOM     12  C   UNL     1       3.350 -13.857   0.170  0.00  0.00    +0.000 A 
ATOM     13  C   UNL     1       4.962 -16.062   0.690  0.00  0.00    +0.000 A 
ATOM     14  C   UNL     1       4.585 -13.984  -0.470  0.00  0.00    +0.000 A 
ATOM     15  C   UNL     1       5.390 -15.091  -0.214  0.00  0.00    +0.000 A 
ENDBRANCH   5  10
BRANCH   4  17
ATOM     16  N   UNL     1      -0.047 -14.775  -1.161  0.00  0.00    +0.000 NA
ATOM     17  C   UNL     1       0.113 -13.908  -0.213  0.00  0.00    +0.000 C 
BRANCH  16  18
ATOM     18  O   UNL     1      -0.326 -14.076  -2.352  0.00  0.00    +0.000 OA
BRANCH  18  19
ATOM     19  C   UNL     1       0.765 -13.203  -2.655  0.00  0.00    +0.000 C 
BRANCH  19  22
ATOM     20 CL   UNL     1       2.746 -15.393  -6.931  0.00  0.00    +0.000 Cl
ATOM     21 CL   UNL     1       1.831 -12.757  -8.604  0.00  0.00    +0.000 Cl
ATOM     22  C   UNL     1       0.987 -13.109  -4.150  0.00  0.00    +0.000 A 
ATOM     23  C   UNL     1       1.654 -14.148  -4.821  0.00  0.00    +0.000 A 
ATOM     24  C   UNL     1       0.612 -11.974  -4.881  0.00  0.00    +0.000 A 
ATOM     25  C   UNL     1       1.920 -14.065  -6.193  0.00  0.00    +0.000 A 
ATOM     26  C   UNL     1       0.874 -11.890  -6.253  0.00  0.00    +0.000 A 
ATOM     27  C   UNL     1       1.529 -12.933  -6.911  0.00  0.00    +0.000 A 
ENDBRANCH  19  22
ENDBRANCH  18  19
ENDBRANCH  16  18
ENDBRANCH   4  17
TORSDOF 5
ENDMDL
MODEL 4
REMARK VINA RESULT:      -5.2      7.542     11.860
REMARK  Name = 142505504
REMARK  5 active torsions:
REMARK  status: ('A' for Active; 'I' for Inactive)
REMARK    1  A    between atoms: O_5  and  N_8
REMARK    2  A    between atoms: O_5  and  C_21
REMARK    3  A    between atoms: C_9  and  C_14
REMARK    4  A    between atoms: C_10  and  C_12
REMARK    5  A    between atoms: C_20  and  C_21
REMARK                            x       y       z     vdW  Elec       q    Type
REMARK                         _______ _______ _______ _____ _____    ______ ____
ROOT
ATOM      1  S   UNL     1     -15.804   4.784  22.874  0.00  0.00    +0.000 S 
ATOM      2  N   UNL     1     -16.933   5.212  25.142  0.00  0.00    +0.000 N 
ATOM      3  N   UNL     1     -15.670   3.376  25.298  0.00  0.00    +0.000 NA
ATOM      4  C   UNL     1     -17.052   4.819  26.451  0.00  0.00    +0.000 A 
ATOM      5  C   UNL     1     -16.292   3.646  26.507  0.00  0.00    +0.000 A 
ATOM      6  C   UNL     1     -16.091   4.336  24.528  0.00  0.00    +0.000 A 
ATOM      7  C   UNL     1     -17.380   6.247  24.347  0.00  0.00    +0.000 A 
ATOM      8  C   UNL     1     -16.877   6.173  23.103  0.00  0.00    +0.000 A 
ENDROOT
BRANCH   5  10
ATOM      9 CL   UNL     1     -13.588   2.530  30.766  0.00  0.00    +0.000 Cl
ATOM     10  C   UNL     1     -16.113   2.779  27.664  0.00  0.00    +0.000 A 
ATOM     11  C   UNL     1     -15.057   3.025  28.553  0.00  0.00    +0.000 A 
ATOM     12  C   UNL     1     -16.952   1.678  27.900  0.00  0.00    +0.000 A 
ATOM     13  C   UNL     1     -14.881   2.215  29.675  0.00  0.00    +0.000 A 
ATOM     14  C   UNL     1     -16.778   0.877  29.032  0.00  0.00    +0.000 A 
ATOM     15  C   UNL     1     -15.745   1.150  29.925  0.00  0.00    +0.000 A 
ENDBRANCH   5  10
BRANCH   4  17
ATOM     16  N   UNL     1     -17.136   6.054  28.493  0.00  0.00    +0.000 NA
ATOM     17  C   UNL     1     -17.753   5.513  27.491  0.00  0.00    +0.000 C 
BRANCH  16  18
ATOM     18  O   UNL     1     -18.098   6.663  29.323  0.00  0.00    +0.000 OA
BRANCH  18  19
ATOM     19  C   UNL     1     -18.462   5.756  30.369  0.00  0.00    +0.000 C 
BRANCH  19  22
ATOM     20 CL   UNL     1     -15.633   2.590  33.364  0.00  0.00    +0.000 Cl
ATOM     21 CL   UNL     1     -14.124   5.210  34.564  0.00  0.00    +0.000 Cl
ATOM     22  C   UNL     1     -17.345   5.620  31.382  0.00  0.00    +0.000 A 
ATOM     23  C   UNL     1     -16.991   4.347  31.860  0.00  0.00    +0.000 A 
ATOM     24  C   UNL     1     -16.695   6.740  31.919  0.00  0.00    +0.000 A 
ATOM     25  C   UNL     1     -15.998   4.195  32.836  0.00  0.00    +0.000 A 
ATOM     26  C   UNL     1     -15.701   6.591  32.891  0.00  0.00    +0.000 A 
ATOM     27  C   UNL     1     -15.352   5.319  33.353  0.00  0.00    +0.000 A 
ENDBRANCH  19  22
ENDBRANCH  18  19
ENDBRANCH  16  18
ENDBRANCH   4  17
TORSDOF 5
ENDMDL
MODEL 5
REMARK VINA RESULT:      -5.0     32.554     34.147
REMARK  Name = 142505504
REMARK  5 active torsions:
REMARK  status: ('A' for Active; 'I' for Inactive)
REMARK    1  A    between atoms: O_5  and  N_8
REMARK    2  A    between atoms: O_5  and  C_21
REMARK    3  A    between atoms: C_9  and  C_14
REMARK    4  A    between atoms: C_10  and  C_12
REMARK    5  A    between atoms: C_20  and  C_21
REMARK                            x       y       z     vdW  Elec       q    Type
REMARK                         _______ _______ _______ _____ _____    ______ ____
ROOT
ATOM      1  S   UNL     1      -2.456 -13.766   4.910  0.00  0.00    +0.000 S 
ATOM      2  N   UNL     1      -0.717 -15.377   3.918  0.00  0.00    +0.000 N 
ATOM      3  N   UNL     1      -0.930 -13.617   2.559  0.00  0.00    +0.000 NA
ATOM      4  C   UNL     1       0.195 -15.598   2.918  0.00  0.00    +0.000 A 
ATOM      5  C   UNL     1       0.007 -14.508   2.062  0.00  0.00    +0.000 A 
ATOM      6  C   UNL     1      -1.327 -14.187   3.659  0.00  0.00    +0.000 A 
ATOM      7  C   UNL     1      -1.113 -15.993   5.087  0.00  0.00    +0.000 A 
ATOM      8  C   UNL     1      -2.038 -15.271   5.743  0.00  0.00    +0.000 A 
ENDROOT
BRANCH   5  10
ATOM      9 CL   UNL     1       4.483 -13.868  -0.438  0.00  0.00    +0.000 Cl
ATOM     10  C   UNL     1       0.692 -14.264   0.799  0.00  0.00    +0.000 A 
ATOM     11  C   UNL     1       2.092 -14.179   0.780  0.00  0.00    +0.000 A 
ATOM     12  C   UNL     1      -0.012 -14.080  -0.402  0.00  0.00    +0.000 A 
ATOM     13  C   UNL     1       2.765 -13.962  -0.423  0.00  0.00    +0.000 A 
ATOM     14  C   UNL     1       0.668 -13.876  -1.605  0.00  0.00    +0.000 A 
ATOM     15  C   UNL     1       2.060 -13.824  -1.617  0.00  0.00    +0.000 A 
ENDBRANCH   5  10
BRANCH   4  17
ATOM     16  N   UNL     1       2.105 -16.802   3.695  0.00  0.00    +0.000 NA
ATOM     17  C   UNL     1       1.138 -16.675   2.844  0.00  0.00    +0.000 C 
BRANCH  16  18
ATOM     18  O   UNL     1       2.838 -17.957   3.358  0.00  0.00    +0.000 OA
BRANCH  18  19
ATOM     19  C   UNL     1       4.235 -17.690   3.505  0.00  0.00    +0.000 C 
BRANCH  19  22
ATOM     20 CL   UNL     1       6.490 -21.116   0.314  0.00  0.00    +0.000 Cl
ATOM     21 CL   UNL     1       7.355 -18.633  -1.604  0.00  0.00    +0.000 Cl
ATOM     22  C   UNL     1       4.973 -17.927   2.204  0.00  0.00    +0.000 A 
ATOM     23  C   UNL     1       5.347 -19.233   1.844  0.00  0.00    +0.000 A 
ATOM     24  C   UNL     1       5.365 -16.867   1.375  0.00  0.00    +0.000 A 
ATOM     25  C   UNL     1       6.075 -19.476   0.673  0.00  0.00    +0.000 A 
ATOM     26  C   UNL     1       6.090 -17.107   0.204  0.00  0.00    +0.000 A 
ATOM     27  C   UNL     1       6.448 -18.411  -0.149  0.00  0.00    +0.000 A 
ENDBRANCH  19  22
ENDBRANCH  18  19
ENDBRANCH  16  18
ENDBRANCH   4  17
TORSDOF 5
ENDMDL
MODEL 6
REMARK VINA RESULT:      -4.8     36.886     38.270
REMARK  Name = 142505504
REMARK  5 active torsions:
REMARK  status: ('A' for Active; 'I' for Inactive)
REMARK    1  A    between atoms: O_5  and  N_8
REMARK    2  A    between atoms: O_5  and  C_21
REMARK    3  A    between atoms: C_9  and  C_14
REMARK    4  A    between atoms: C_10  and  C_12
REMARK    5  A    between atoms: C_20  and  C_21
REMARK                            x       y       z     vdW  Elec       q    Type
REMARK                         _______ _______ _______ _____ _____    ______ ____
ROOT
ATOM      1  S   UNL     1       8.987 -24.533   7.291  0.00  0.00    +0.000 S 
ATOM      2  N   UNL     1       9.397 -22.125   8.086  0.00  0.00    +0.000 N 
ATOM      3  N   UNL     1       7.237 -22.358   7.571  0.00  0.00    +0.000 NA
ATOM      4  C   UNL     1       8.836 -20.910   8.389  0.00  0.00    +0.000 A 
ATOM      5  C   UNL     1       7.497 -21.071   8.014  0.00  0.00    +0.000 A 
ATOM      6  C   UNL     1       8.401 -22.935   7.633  0.00  0.00    +0.000 A 
ATOM      7  C   UNL     1      10.639 -22.720   8.174  0.00  0.00    +0.000 A 
ATOM      8  C   UNL     1      10.603 -24.007   7.786  0.00  0.00    +0.000 A 
ENDROOT
BRANCH   5  10
ATOM      9 CL   UNL     1       4.813 -17.398   5.564  0.00  0.00    +0.000 Cl
ATOM     10  C   UNL     1       6.449 -20.061   8.074  0.00  0.00    +0.000 A 
ATOM     11  C   UNL     1       6.168 -19.292   6.935  0.00  0.00    +0.000 A 
ATOM     12  C   UNL     1       5.729 -19.809   9.252  0.00  0.00    +0.000 A 
ATOM     13  C   UNL     1       5.157 -18.331   6.969  0.00  0.00    +0.000 A 
ATOM     14  C   UNL     1       4.709 -18.855   9.277  0.00  0.00    +0.000 A 
ATOM     15  C   UNL     1       4.418 -18.118   8.132  0.00  0.00    +0.000 A 
ENDBRANCH   5  10
BRANCH   4  17
ATOM     16  N   UNL     1      10.026 -19.868  10.176  0.00  0.00    +0.000 NA
ATOM     17  C   UNL     1       9.493 -19.793   8.999  0.00  0.00    +0.000 C 
BRANCH  16  18
ATOM     18  O   UNL     1      10.597 -18.616  10.480  0.00  0.00    +0.000 OA
BRANCH  18  19
ATOM     19  C   UNL     1      10.840 -17.900   9.265  0.00  0.00    +0.000 C 
BRANCH  19  22
ATOM     20 CL   UNL     1      15.809 -17.311  10.664  0.00  0.00    +0.000 Cl
ATOM     21 CL   UNL     1      16.669 -18.068   7.619  0.00  0.00    +0.000 Cl
ATOM     22  C   UNL     1      12.297 -17.990   8.863  0.00  0.00    +0.000 A 
ATOM     23  C   UNL     1      13.297 -17.682   9.800  0.00  0.00    +0.000 A 
ATOM     24  C   UNL     1      12.682 -18.300   7.552  0.00  0.00    +0.000 A 
ATOM     25  C   UNL     1      14.651 -17.705   9.443  0.00  0.00    +0.000 A 
ATOM     26  C   UNL     1      14.034 -18.327   7.192  0.00  0.00    +0.000 A 
ATOM     27  C   UNL     1      15.020 -18.028   8.135  0.00  0.00    +0.000 A 
ENDBRANCH  19  22
ENDBRANCH  18  19
ENDBRANCH  16  18
ENDBRANCH   4  17
TORSDOF 5
ENDMDL
MODEL 7
REMARK VINA RESULT:      -4.8      1.696      2.443
REMARK  Name = 142505504
REMARK  5 active torsions:
REMARK  status: ('A' for Active; 'I' for Inactive)
REMARK    1  A    between atoms: O_5  and  N_8
REMARK    2  A    between atoms: O_5  and  C_21
REMARK    3  A    between atoms: C_9  and  C_14
REMARK    4  A    between atoms: C_10  and  C_12
REMARK    5  A    between atoms: C_20  and  C_21
REMARK                            x       y       z     vdW  Elec       q    Type
REMARK                         _______ _______ _______ _____ _____    ______ ____
ROOT
ATOM      1  S   UNL     1     -15.521   3.937  24.015  0.00  0.00    +0.000 S 
ATOM      2  N   UNL     1     -15.890   5.397  21.933  0.00  0.00    +0.000 N 
ATOM      3  N   UNL     1     -13.827   5.754  22.711  0.00  0.00    +0.000 NA
ATOM      4  C   UNL     1     -15.332   6.280  21.044  0.00  0.00    +0.000 A 
ATOM      5  C   UNL     1     -14.062   6.520  21.580  0.00  0.00    +0.000 A 
ATOM      6  C   UNL     1     -14.947   5.112  22.873  0.00  0.00    +0.000 A 
ATOM      7  C   UNL     1     -17.081   4.716  22.078  0.00  0.00    +0.000 A 
ATOM      8  C   UNL     1     -17.060   3.893  23.141  0.00  0.00    +0.000 A 
ENDROOT
BRANCH   5  10
ATOM      9 CL   UNL     1     -12.367  11.379  21.129  0.00  0.00    +0.000 Cl
ATOM     10  C   UNL     1     -13.054   7.431  21.056  0.00  0.00    +0.000 A 
ATOM     11  C   UNL     1     -13.177   8.807  21.299  0.00  0.00    +0.000 A 
ATOM     12  C   UNL     1     -11.974   6.976  20.283  0.00  0.00    +0.000 A 
ATOM     13  C   UNL     1     -12.212   9.694  20.818  0.00  0.00    +0.000 A 
ATOM     14  C   UNL     1     -11.004   7.866  19.815  0.00  0.00    +0.000 A 
ATOM     15  C   UNL     1     -11.120   9.227  20.088  0.00  0.00    +0.000 A 
ENDBRANCH   5  10
BRANCH   4  17
ATOM     16  N   UNL     1     -16.452   7.946  19.751  0.00  0.00    +0.000 NA
ATOM     17  C   UNL     1     -15.927   6.765  19.834  0.00  0.00    +0.000 C 
BRANCH  16  18
ATOM     18  O   UNL     1     -16.934   8.121  18.439  0.00  0.00    +0.000 OA
BRANCH  18  19
ATOM     19  C   UNL     1     -17.732   6.991  18.074  0.00  0.00    +0.000 C 
BRANCH  19  22
ATOM     20 CL   UNL     1     -14.962   7.658  13.729  0.00  0.00    +0.000 Cl
ATOM     21 CL   UNL     1     -16.095   4.799  12.667  0.00  0.00    +0.000 Cl
ATOM     22  C   UNL     1     -17.287   6.419  16.745  0.00  0.00    +0.000 A 
ATOM     23  C   UNL     1     -16.419   7.158  15.924  0.00  0.00    +0.000 A 
ATOM     24  C   UNL     1     -17.779   5.196  16.267  0.00  0.00    +0.000 A 
ATOM     25  C   UNL     1     -16.033   6.677  14.667  0.00  0.00    +0.000 A 
ATOM     26  C   UNL     1     -17.392   4.712  15.013  0.00  0.00    +0.000 A 
ATOM     27  C   UNL     1     -16.521   5.451  14.210  0.00  0.00    +0.000 A 
ENDBRANCH  19  22
ENDBRANCH  18  19
ENDBRANCH  16  18
ENDBRANCH   4  17
TORSDOF 5
ENDMDL
MODEL 8
REMARK VINA RESULT:      -4.8     22.318     23.510
REMARK  Name = 142505504
REMARK  5 active torsions:
REMARK  status: ('A' for Active; 'I' for Inactive)
REMARK    1  A    between atoms: O_5  and  N_8
REMARK    2  A    between atoms: O_5  and  C_21
REMARK    3  A    between atoms: C_9  and  C_14
REMARK    4  A    between atoms: C_10  and  C_12
REMARK    5  A    between atoms: C_20  and  C_21
REMARK                            x       y       z     vdW  Elec       q    Type
REMARK                         _______ _______ _______ _____ _____    ______ ____
ROOT
ATOM      1  S   UNL     1      -5.724 -16.680   9.356  0.00  0.00    +0.000 S 
ATOM      2  N   UNL     1      -4.604 -15.276  11.193  0.00  0.00    +0.000 N 
ATOM      3  N   UNL     1      -5.395 -13.906   9.616  0.00  0.00    +0.000 NA
ATOM      4  C   UNL     1      -4.326 -14.016  11.658  0.00  0.00    +0.000 A 
ATOM      5  C   UNL     1      -4.789 -13.184  10.632  0.00  0.00    +0.000 A 
ATOM      6  C   UNL     1      -5.252 -15.140  10.003  0.00  0.00    +0.000 A 
ATOM      7  C   UNL     1      -4.454 -16.576  11.629  0.00  0.00    +0.000 A 
ATOM      8  C   UNL     1      -4.993 -17.457  10.768  0.00  0.00    +0.000 A 
ENDROOT
BRANCH   5  10
ATOM      9 CL   UNL     1      -7.251  -8.652  10.329  0.00  0.00    +0.000 Cl
ATOM     10  C   UNL     1      -4.698 -11.731  10.582  0.00  0.00    +0.000 A 
ATOM     11  C   UNL     1      -5.872 -10.970  10.479  0.00  0.00    +0.000 A 
ATOM     12  C   UNL     1      -3.462 -11.065  10.601  0.00  0.00    +0.000 A 
ATOM     13  C   UNL     1      -5.805  -9.577  10.446  0.00  0.00    +0.000 A 
ATOM     14  C   UNL     1      -3.401  -9.670  10.581  0.00  0.00    +0.000 A 
ATOM     15  C   UNL     1      -4.575  -8.923  10.509  0.00  0.00    +0.000 A 
ENDBRANCH   5  10
BRANCH   4  17
ATOM     16  N   UNL     1      -2.488 -13.429  13.064  0.00  0.00    +0.000 NA
ATOM     17  C   UNL     1      -3.751 -13.680  12.926  0.00  0.00    +0.000 C 
BRANCH  16  18
ATOM     18  O   UNL     1      -2.247 -13.123  14.418  0.00  0.00    +0.000 OA
BRANCH  18  19
ATOM     19  C   UNL     1      -2.088 -11.708  14.562  0.00  0.00    +0.000 C 
BRANCH  19  22
ATOM     20 CL   UNL     1      -5.110 -10.706  18.669  0.00  0.00    +0.000 Cl
ATOM     21 CL   UNL     1      -7.256  -9.329  16.648  0.00  0.00    +0.000 Cl
ATOM     22  C   UNL     1      -3.358 -11.071  15.086  0.00  0.00    +0.000 A 
ATOM     23  C   UNL     1      -3.648 -11.125  16.459  0.00  0.00    +0.000 A 
ATOM     24  C   UNL     1      -4.299 -10.487  14.226  0.00  0.00    +0.000 A 
ATOM     25  C   UNL     1      -4.840 -10.590  16.965  0.00  0.00    +0.000 A 
ATOM     26  C   UNL     1      -5.488  -9.950  14.729  0.00  0.00    +0.000 A 
ATOM     27  C   UNL     1      -5.762 -10.001  16.098  0.00  0.00    +0.000 A 
ENDBRANCH  19  22
ENDBRANCH  18  19
ENDBRANCH  16  18
ENDBRANCH   4  17
TORSDOF 5
ENDMDL
MODEL 9
REMARK VINA RESULT:      -4.7     12.558     14.793
REMARK  Name = 142505504
REMARK  5 active torsions:
REMARK  status: ('A' for Active; 'I' for Inactive)
REMARK    1  A    between atoms: O_5  and  N_8
REMARK    2  A    between atoms: O_5  and  C_21
REMARK    3  A    between atoms: C_9  and  C_14
REMARK    4  A    between atoms: C_10  and  C_12
REMARK    5  A    between atoms: C_20  and  C_21
REMARK                            x       y       z     vdW  Elec       q    Type
REMARK                         _______ _______ _______ _____ _____    ______ ____
ROOT
ATOM      1  S   UNL     1     -13.028  12.455  31.936  0.00  0.00    +0.000 S 
ATOM      2  N   UNL     1     -13.139   9.957  32.529  0.00  0.00    +0.000 N 
ATOM      3  N   UNL     1     -11.790  10.986  33.981  0.00  0.00    +0.000 NA
ATOM      4  C   UNL     1     -12.760   8.974  33.407  0.00  0.00    +0.000 A 
ATOM      5  C   UNL     1     -11.882   9.635  34.273  0.00  0.00    +0.000 A 
ATOM      6  C   UNL     1     -12.553  11.117  32.936  0.00  0.00    +0.000 A 
ATOM      7  C   UNL     1     -13.965  10.076  31.430  0.00  0.00    +0.000 A 
ATOM      8  C   UNL     1     -14.021  11.343  30.983  0.00  0.00    +0.000 A 
ENDROOT
BRANCH   5  10
ATOM      9 CL   UNL     1      -7.361   9.077  36.709  0.00  0.00    +0.000 Cl
ATOM     10  C   UNL     1     -11.141   9.043  35.379  0.00  0.00    +0.000 A 
ATOM     11  C   UNL     1      -9.767   9.297  35.501  0.00  0.00    +0.000 A 
ATOM     12  C   UNL     1     -11.756   8.196  36.314  0.00  0.00    +0.000 A 
ATOM     13  C   UNL     1      -9.044   8.752  36.563  0.00  0.00    +0.000 A 
ATOM     14  C   UNL     1     -11.030   7.663  37.382  0.00  0.00    +0.000 A 
ATOM     15  C   UNL     1      -9.672   7.947  37.510  0.00  0.00    +0.000 A 
ENDBRANCH   5  10
BRANCH   4  17
ATOM     16  N   UNL     1     -14.452   7.318  33.712  0.00  0.00    +0.000 NA
ATOM     17  C   UNL     1     -13.226   7.619  33.426  0.00  0.00    +0.000 C 
BRANCH  16  18
ATOM     18  O   UNL     1     -14.591   5.918  33.632  0.00  0.00    +0.000 OA
BRANCH  18  19
ATOM     19  C   UNL     1     -13.603   5.396  32.739  0.00  0.00    +0.000 C 
BRANCH  19  22
ATOM     20 CL   UNL     1     -17.531   3.213  30.130  0.00  0.00    +0.000 Cl
ATOM     21 CL   UNL     1     -15.782   0.476  29.953  0.00  0.00    +0.000 Cl
ATOM     22  C   UNL     1     -14.125   4.181  32.002  0.00  0.00    +0.000 A 
ATOM     23  C   UNL     1     -15.410   4.209  31.436  0.00  0.00    +0.000 A 
ATOM     24  C   UNL     1     -13.389   2.990  31.930  0.00  0.00    +0.000 A 
ATOM     25  C   UNL     1     -15.940   3.083  30.795  0.00  0.00    +0.000 A 
ATOM     26  C   UNL     1     -13.915   1.864  31.288  0.00  0.00    +0.000 A 
ATOM     27  C   UNL     1     -15.191   1.907  30.720  0.00  0.00    +0.000 A 
ENDBRANCH  19  22
ENDBRANCH  18  19
ENDBRANCH  16  18
ENDBRANCH   4  17
TORSDOF 5
ENDMDL
MODEL 10
REMARK VINA RESULT:      -4.6     19.872     22.873
REMARK  Name = 142505504
REMARK  5 active torsions:
REMARK  status: ('A' for Active; 'I' for Inactive)
REMARK    1  A    between atoms: O_5  and  N_8
REMARK    2  A    between atoms: O_5  and  C_21
REMARK    3  A    between atoms: C_9  and  C_14
REMARK    4  A    between atoms: C_10  and  C_12
REMARK    5  A    between atoms: C_20  and  C_21
REMARK                            x       y       z     vdW  Elec       q    Type
REMARK                         _______ _______ _______ _____ _____    ______ ____
ROOT
ATOM      1  S   UNL     1      -1.244  13.565  34.838  0.00  0.00    +0.000 S 
ATOM      2  N   UNL     1      -1.832  11.287  35.871  0.00  0.00    +0.000 N 
ATOM      3  N   UNL     1      -3.697  12.504  35.691  0.00  0.00    +0.000 NA
ATOM      4  C   UNL     1      -2.831  10.459  36.318  0.00  0.00    +0.000 A 
ATOM      5  C   UNL     1      -3.975  11.261  36.238  0.00  0.00    +0.000 A 
ATOM      6  C   UNL     1      -2.412  12.462  35.497  0.00  0.00    +0.000 A 
ATOM      7  C   UNL     1      -0.471  11.216  35.660  0.00  0.00    +0.000 A 
ATOM      8  C   UNL     1       0.010  12.347  35.116  0.00  0.00    +0.000 A 
ENDROOT
BRANCH   5  10
ATOM      9 CL   UNL     1      -8.711   9.763  34.819  0.00  0.00    +0.000 Cl
ATOM     10  C   UNL     1      -5.326  10.892  36.641  0.00  0.00    +0.000 A 
ATOM     11  C   UNL     1      -6.270  10.555  35.660  0.00  0.00    +0.000 A 
ATOM     12  C   UNL     1      -5.723  10.896  37.987  0.00  0.00    +0.000 A 
ATOM     13  C   UNL     1      -7.563  10.184  36.029  0.00  0.00    +0.000 A 
ATOM     14  C   UNL     1      -7.016  10.511  38.352  0.00  0.00    +0.000 A 
ATOM     15  C   UNL     1      -7.936  10.148  37.371  0.00  0.00    +0.000 A 
ENDBRANCH   5  10
BRANCH   4  17
ATOM     16  N   UNL     1      -2.680   8.724  37.950  0.00  0.00    +0.000 NA
ATOM     17  C   UNL     1      -2.693   9.087  36.707  0.00  0.00    +0.000 C 
BRANCH  16  18
ATOM     18  O   UNL     1      -2.546   7.321  37.995  0.00  0.00    +0.000 OA
BRANCH  18  19
ATOM     19  C   UNL     1      -1.203   6.986  38.358  0.00  0.00    +0.000 C 
BRANCH  19  22
ATOM     20 CL   UNL     1      -3.885   5.034  42.357  0.00  0.00    +0.000 Cl
ATOM     21 CL   UNL     1      -1.057   4.289  43.782  0.00  0.00    +0.000 Cl
ATOM     22  C   UNL     1      -1.164   6.269  39.691  0.00  0.00    +0.000 A 
ATOM     23  C   UNL     1      -2.365   5.973  40.357  0.00  0.00    +0.000 A 
ATOM     24  C   UNL     1       0.047   5.955  40.323  0.00  0.00    +0.000 A 
ATOM     25  C   UNL     1      -2.358   5.358  41.615  0.00  0.00    +0.000 A 
ATOM     26  C   UNL     1       0.057   5.338  41.579  0.00  0.00    +0.000 A 
ATOM     27  C   UNL     1      -1.144   5.040  42.227  0.00  0.00    +0.000 A 
ENDBRANCH  19  22
ENDBRANCH  18  19
ENDBRANCH  16  18
ENDBRANCH   4  17
TORSDOF 5
ENDMDL
