MODEL 1
REMARK VINA RESULT:      -6.9      0.000      0.000
REMARK  Name = 142505365
REMARK  9 active torsions:
REMARK  status: ('A' for Active; 'I' for Inactive)
REMARK    1  A    between atoms: O_4  and  N_7
REMARK    2  A    between atoms: O_4  and  C_24
REMARK    3  A    between atoms: C_8  and  C_9
REMARK    4  A    between atoms: C_8  and  C_10
REMARK    5  A    between atoms: C_8  and  C_11
REMARK    6  A    between atoms: C_8  and  C_12
REMARK    7  A    between atoms: C_15  and  C_18
REMARK    8  A    between atoms: C_19  and  C_22
REMARK    9  A    between atoms: C_24  and  C_25
REMARK                            x       y       z     vdW  Elec       q    Type
REMARK                         _______ _______ _______ _____ _____    ______ ____
ROOT
ATOM      1  S   UNL     1      12.346  17.114  25.542  0.00  0.00    +0.000 S 
ATOM      2  N   UNL     1      10.383  15.981  24.342  0.00  0.00    +0.000 N 
ATOM      3  N   UNL     1      12.126  14.587  24.328  0.00  0.00    +0.000 NA
ATOM      4  C   UNL     1      11.038  14.011  23.680  0.00  0.00    +0.000 A 
ATOM      5  C   UNL     1       9.938  14.882  23.661  0.00  0.00    +0.000 A 
ATOM      6  C   UNL     1      11.673  15.749  24.707  0.00  0.00    +0.000 A 
ATOM      7  C   UNL     1       9.886  17.222  24.685  0.00  0.00    +0.000 A 
ATOM      8  C   UNL     1      10.804  17.960  25.332  0.00  0.00    +0.000 A 
ENDROOT
BRANCH   4  12
ATOM      9  C   UNL     1      11.313  10.023  22.057  0.00  0.00    +0.000 A 
ATOM     10  C   UNL     1      11.613  11.147  21.284  0.00  0.00    +0.000 A 
ATOM     11  C   UNL     1      10.882  10.253  23.376  0.00  0.00    +0.000 A 
ATOM     12  C   UNL     1      11.104  12.663  23.120  0.00  0.00    +0.000 A 
ATOM     13  C   UNL     1      11.477  12.441  21.794  0.00  0.00    +0.000 A 
ATOM     14  C   UNL     1      10.782  11.552  23.902  0.00  0.00    +0.000 A 
BRANCH   9  15
ATOM     15  C   UNL     1      11.421   8.596  21.490  0.00  0.00    +0.000 C 
ATOM     16  C   UNL     1      10.478   7.588  22.189  0.00  0.00    +0.000 C 
ATOM     17  C   UNL     1      11.068   8.579  19.988  0.00  0.00    +0.000 C 
ATOM     18  C   UNL     1      12.862   8.080  21.683  0.00  0.00    +0.000 C 
ENDBRANCH   9  15
ENDBRANCH   4  12
BRANCH   5  20
ATOM     19  N   UNL     1       8.509  14.990  21.797  0.00  0.00    +0.000 NA
ATOM     20  C   UNL     1       8.642  14.781  23.062  0.00  0.00    +0.000 C 
BRANCH  19  21
ATOM     21  O   UNL     1       7.179  14.816  21.400  0.00  0.00    +0.000 OA
BRANCH  21  22
ATOM     22  C   UNL     1       6.557  16.101  21.477  0.00  0.00    +0.000 C 
BRANCH  22  25
ATOM     23 CL   UNL     1       1.451  16.337  20.431  0.00  0.00    +0.000 Cl
ATOM     24 CL   UNL     1       0.937  15.031  23.367  0.00  0.00    +0.000 Cl
ATOM     25  C   UNL     1       5.131  16.025  21.963  0.00  0.00    +0.000 A 
ATOM     26  C   UNL     1       4.041  16.285  21.120  0.00  0.00    +0.000 A 
ATOM     27  C   UNL     1       4.887  15.547  23.259  0.00  0.00    +0.000 A 
ATOM     28  C   UNL     1       2.734  16.020  21.544  0.00  0.00    +0.000 A 
ATOM     29  C   UNL     1       3.586  15.276  23.682  0.00  0.00    +0.000 A 
ATOM     30  C   UNL     1       2.510  15.489  22.817  0.00  0.00    +0.000 A 
ENDBRANCH  22  25
ENDBRANCH  21  22
ENDBRANCH  19  21
ENDBRANCH   5  20
TORSDOF 6
ENDMDL
MODEL 2
REMARK VINA RESULT:      -6.5     35.752     37.361
REMARK  Name = 142505365
REMARK  9 active torsions:
REMARK  status: ('A' for Active; 'I' for Inactive)
REMARK    1  A    between atoms: O_4  and  N_7
REMARK    2  A    between atoms: O_4  and  C_24
REMARK    3  A    between atoms: C_8  and  C_9
REMARK    4  A    between atoms: C_8  and  C_10
REMARK    5  A    between atoms: C_8  and  C_11
REMARK    6  A    between atoms: C_8  and  C_12
REMARK    7  A    between atoms: C_15  and  C_18
REMARK    8  A    between atoms: C_19  and  C_22
REMARK    9  A    between atoms: C_24  and  C_25
REMARK                            x       y       z     vdW  Elec       q    Type
REMARK                         _______ _______ _______ _____ _____    ______ ____
ROOT
ATOM      1  S   UNL     1      -2.811 -13.944   5.762  0.00  0.00    +0.000 S 
ATOM      2  N   UNL     1      -2.534 -14.115   3.218  0.00  0.00    +0.000 N 
ATOM      3  N   UNL     1      -0.538 -14.405   4.172  0.00  0.00    +0.000 NA
ATOM      4  C   UNL     1      -0.431 -14.486   2.787  0.00  0.00    +0.000 A 
ATOM      5  C   UNL     1      -1.674 -14.285   2.168  0.00  0.00    +0.000 A 
ATOM      6  C   UNL     1      -1.809 -14.195   4.365  0.00  0.00    +0.000 A 
ATOM      7  C   UNL     1      -3.877 -13.845   3.384  0.00  0.00    +0.000 A 
ATOM      8  C   UNL     1      -4.199 -13.720   4.683  0.00  0.00    +0.000 A 
ENDROOT
BRANCH   4  12
ATOM      9  C   UNL     1       3.298 -15.310   0.780  0.00  0.00    +0.000 A 
ATOM     10  C   UNL     1       2.744 -16.215   1.688  0.00  0.00    +0.000 A 
ATOM     11  C   UNL     1       2.606 -14.102   0.580  0.00  0.00    +0.000 A 
ATOM     12  C   UNL     1       0.847 -14.754   2.130  0.00  0.00    +0.000 A 
ATOM     13  C   UNL     1       1.561 -15.928   2.375  0.00  0.00    +0.000 A 
ATOM     14  C   UNL     1       1.397 -13.828   1.241  0.00  0.00    +0.000 A 
BRANCH   9  15
ATOM     15  C   UNL     1       4.622 -15.601   0.050  0.00  0.00    +0.000 C 
ATOM     16  C   UNL     1       5.630 -16.402   0.909  0.00  0.00    +0.000 C 
ATOM     17  C   UNL     1       4.367 -16.422  -1.231  0.00  0.00    +0.000 C 
ATOM     18  C   UNL     1       5.300 -14.268  -0.323  0.00  0.00    +0.000 C 
ENDBRANCH   9  15
ENDBRANCH   4  12
BRANCH   5  20
ATOM     19  N   UNL     1      -2.120 -13.048   0.219  0.00  0.00    +0.000 NA
ATOM     20  C   UNL     1      -2.062 -14.201   0.793  0.00  0.00    +0.000 C 
BRANCH  19  21
ATOM     21  O   UNL     1      -2.487 -13.178  -1.124  0.00  0.00    +0.000 OA
BRANCH  21  22
ATOM     22  C   UNL     1      -1.734 -14.275  -1.650  0.00  0.00    +0.000 C 
BRANCH  22  25
ATOM     23 CL   UNL     1      -0.755 -12.894  -6.585  0.00  0.00    +0.000 Cl
ATOM     24 CL   UNL     1       2.148 -11.838  -5.561  0.00  0.00    +0.000 Cl
ATOM     25  C   UNL     1      -0.742 -13.843  -2.701  0.00  0.00    +0.000 A 
ATOM     26  C   UNL     1      -1.105 -13.677  -4.045  0.00  0.00    +0.000 A 
ATOM     27  C   UNL     1       0.546 -13.465  -2.294  0.00  0.00    +0.000 A 
ATOM     28  C   UNL     1      -0.217 -13.093  -4.955  0.00  0.00    +0.000 A 
ATOM     29  C   UNL     1       1.431 -12.877  -3.198  0.00  0.00    +0.000 A 
ATOM     30  C   UNL     1       1.043 -12.668  -4.523  0.00  0.00    +0.000 A 
ENDBRANCH  22  25
ENDBRANCH  21  22
ENDBRANCH  19  21
ENDBRANCH   5  20
TORSDOF 6
ENDMDL
MODEL 3
REMARK VINA RESULT:      -6.5      4.333      8.393
REMARK  Name = 142505365
REMARK  9 active torsions:
REMARK  status: ('A' for Active; 'I' for Inactive)
REMARK    1  A    between atoms: O_4  and  N_7
REMARK    2  A    between atoms: O_4  and  C_24
REMARK    3  A    between atoms: C_8  and  C_9
REMARK    4  A    between atoms: C_8  and  C_10
REMARK    5  A    between atoms: C_8  and  C_11
REMARK    6  A    between atoms: C_8  and  C_12
REMARK    7  A    between atoms: C_15  and  C_18
REMARK    8  A    between atoms: C_19  and  C_22
REMARK    9  A    between atoms: C_24  and  C_25
REMARK                            x       y       z     vdW  Elec       q    Type
REMARK                         _______ _______ _______ _____ _____    ______ ____
ROOT
ATOM      1  S   UNL     1      13.206  14.294  26.585  0.00  0.00    +0.000 S 
ATOM      2  N   UNL     1      12.270  12.931  24.624  0.00  0.00    +0.000 N 
ATOM      3  N   UNL     1      11.185  14.878  24.719  0.00  0.00    +0.000 NA
ATOM      4  C   UNL     1      10.703  14.104  23.668  0.00  0.00    +0.000 A 
ATOM      5  C   UNL     1      11.360  12.866  23.605  0.00  0.00    +0.000 A 
ATOM      6  C   UNL     1      12.118  14.134  25.240  0.00  0.00    +0.000 A 
ATOM      7  C   UNL     1      13.219  12.097  25.180  0.00  0.00    +0.000 A 
ATOM      8  C   UNL     1      13.816  12.666  26.241  0.00  0.00    +0.000 A 
ENDROOT
BRANCH   4  12
ATOM      9  C   UNL     1       7.559  15.448  21.037  0.00  0.00    +0.000 A 
ATOM     10  C   UNL     1       8.841  15.169  20.558  0.00  0.00    +0.000 A 
ATOM     11  C   UNL     1       7.350  15.308  22.421  0.00  0.00    +0.000 A 
ATOM     12  C   UNL     1       9.647  14.587  22.780  0.00  0.00    +0.000 A 
ATOM     13  C   UNL     1       9.872  14.780  21.417  0.00  0.00    +0.000 A 
ATOM     14  C   UNL     1       8.377  14.880  23.280  0.00  0.00    +0.000 A 
BRANCH   9  15
ATOM     15  C   UNL     1       6.427  15.915  20.103  0.00  0.00    +0.000 C 
ATOM     16  C   UNL     1       5.028  15.857  20.763  0.00  0.00    +0.000 C 
ATOM     17  C   UNL     1       6.657  17.375  19.659  0.00  0.00    +0.000 C 
ATOM     18  C   UNL     1       6.384  15.002  18.862  0.00  0.00    +0.000 C 
ENDBRANCH   9  15
ENDBRANCH   4  12
BRANCH   5  20
ATOM     19  N   UNL     1      10.612  10.665  23.249  0.00  0.00    +0.000 NA
ATOM     20  C   UNL     1      11.175  11.720  22.768  0.00  0.00    +0.000 C 
BRANCH  19  21
ATOM     21  O   UNL     1      10.497   9.672  22.272  0.00  0.00    +0.000 OA
BRANCH  21  22
ATOM     22  C   UNL     1      11.654   8.841  22.394  0.00  0.00    +0.000 C 
BRANCH  22  25
ATOM     23 CL   UNL     1      11.088   8.592  17.214  0.00  0.00    +0.000 Cl
ATOM     24 CL   UNL     1      14.163   7.533  17.074  0.00  0.00    +0.000 Cl
ATOM     25  C   UNL     1      12.164   8.361  21.057  0.00  0.00    +0.000 A 
ATOM     26  C   UNL     1      11.446   8.564  19.870  0.00  0.00    +0.000 A 
ATOM     27  C   UNL     1      13.456   7.819  20.986  0.00  0.00    +0.000 A 
ATOM     28  C   UNL     1      12.029   8.282  18.629  0.00  0.00    +0.000 A 
ATOM     29  C   UNL     1      14.041   7.543  19.749  0.00  0.00    +0.000 A 
ATOM     30  C   UNL     1      13.339   7.797  18.570  0.00  0.00    +0.000 A 
ENDBRANCH  22  25
ENDBRANCH  21  22
ENDBRANCH  19  21
ENDBRANCH   5  20
TORSDOF 6
ENDMDL
MODEL 4
REMARK VINA RESULT:      -6.3     21.429     25.566
REMARK  Name = 142505365
REMARK  9 active torsions:
REMARK  status: ('A' for Active; 'I' for Inactive)
REMARK    1  A    between atoms: O_4  and  N_7
REMARK    2  A    between atoms: O_4  and  C_24
REMARK    3  A    between atoms: C_8  and  C_9
REMARK    4  A    between atoms: C_8  and  C_10
REMARK    5  A    between atoms: C_8  and  C_11
REMARK    6  A    between atoms: C_8  and  C_12
REMARK    7  A    between atoms: C_15  and  C_18
REMARK    8  A    between atoms: C_19  and  C_22
REMARK    9  A    between atoms: C_24  and  C_25
REMARK                            x       y       z     vdW  Elec       q    Type
REMARK                         _______ _______ _______ _____ _____    ______ ____
ROOT
ATOM      1  S   UNL     1     -15.670   3.407  25.071  0.00  0.00    +0.000 S 
ATOM      2  N   UNL     1     -16.354   4.341  22.782  0.00  0.00    +0.000 N 
ATOM      3  N   UNL     1     -14.359   5.180  23.326  0.00  0.00    +0.000 NA
ATOM      4  C   UNL     1     -14.770   5.667  22.090  0.00  0.00    +0.000 A 
ATOM      5  C   UNL     1     -16.033   5.166  21.740  0.00  0.00    +0.000 A 
ATOM      6  C   UNL     1     -15.334   4.392  23.681  0.00  0.00    +0.000 A 
ATOM      7  C   UNL     1     -17.426   3.553  23.149  0.00  0.00    +0.000 A 
ATOM      8  C   UNL     1     -17.230   2.978  24.348  0.00  0.00    +0.000 A 
ENDROOT
BRANCH   4  12
ATOM      9  C   UNL     1     -12.297   8.404  19.853  0.00  0.00    +0.000 A 
ATOM     10  C   UNL     1     -13.684   8.556  19.910  0.00  0.00    +0.000 A 
ATOM     11  C   UNL     1     -11.747   7.297  20.525  0.00  0.00    +0.000 A 
ATOM     12  C   UNL     1     -13.937   6.579  21.308  0.00  0.00    +0.000 A 
ATOM     13  C   UNL     1     -14.490   7.643  20.594  0.00  0.00    +0.000 A 
ATOM     14  C   UNL     1     -12.554   6.400  21.245  0.00  0.00    +0.000 A 
BRANCH   9  15
ATOM     15  C   UNL     1     -11.405   9.384  19.068  0.00  0.00    +0.000 C 
ATOM     16  C   UNL     1     -11.777  10.868  19.300  0.00  0.00    +0.000 C 
ATOM     17  C   UNL     1      -9.926   9.219  19.475  0.00  0.00    +0.000 C 
ATOM     18  C   UNL     1     -11.554   9.108  17.558  0.00  0.00    +0.000 C 
ENDBRANCH   9  15
ENDBRANCH   4  12
BRANCH   5  20
ATOM     19  N   UNL     1     -16.797   4.698  19.565  0.00  0.00    +0.000 NA
ATOM     20  C   UNL     1     -16.896   5.423  20.627  0.00  0.00    +0.000 C 
BRANCH  19  21
ATOM     21  O   UNL     1     -17.741   5.084  18.609  0.00  0.00    +0.000 OA
BRANCH  21  22
ATOM     22  C   UNL     1     -17.464   6.450  18.287  0.00  0.00    +0.000 C 
BRANCH  22  25
ATOM     23 CL   UNL     1     -14.074   8.770  15.071  0.00  0.00    +0.000 Cl
ATOM     24 CL   UNL     1     -14.802   6.474  12.882  0.00  0.00    +0.000 Cl
ATOM     25  C   UNL     1     -16.903   6.614  16.896  0.00  0.00    +0.000 A 
ATOM     26  C   UNL     1     -15.926   7.574  16.595  0.00  0.00    +0.000 A 
ATOM     27  C   UNL     1     -17.271   5.686  15.910  0.00  0.00    +0.000 A 
ATOM     28  C   UNL     1     -15.289   7.573  15.349  0.00  0.00    +0.000 A 
ATOM     29  C   UNL     1     -16.631   5.680  14.670  0.00  0.00    +0.000 A 
ATOM     30  C   UNL     1     -15.624   6.607  14.396  0.00  0.00    +0.000 A 
ENDBRANCH  22  25
ENDBRANCH  21  22
ENDBRANCH  19  21
ENDBRANCH   5  20
TORSDOF 6
ENDMDL
MODEL 5
REMARK VINA RESULT:      -6.1     29.210     31.175
REMARK  Name = 142505365
REMARK  9 active torsions:
REMARK  status: ('A' for Active; 'I' for Inactive)
REMARK    1  A    between atoms: O_4  and  N_7
REMARK    2  A    between atoms: O_4  and  C_24
REMARK    3  A    between atoms: C_8  and  C_9
REMARK    4  A    between atoms: C_8  and  C_10
REMARK    5  A    between atoms: C_8  and  C_11
REMARK    6  A    between atoms: C_8  and  C_12
REMARK    7  A    between atoms: C_15  and  C_18
REMARK    8  A    between atoms: C_19  and  C_22
REMARK    9  A    between atoms: C_24  and  C_25
REMARK                            x       y       z     vdW  Elec       q    Type
REMARK                         _______ _______ _______ _____ _____    ______ ____
ROOT
ATOM      1  S   UNL     1      -5.309 -11.927  39.595  0.00  0.00    +0.000 S 
ATOM      2  N   UNL     1      -6.079  -9.515  39.186  0.00  0.00    +0.000 N 
ATOM      3  N   UNL     1      -4.329  -9.478  40.569  0.00  0.00    +0.000 NA
ATOM      4  C   UNL     1      -4.781  -8.186  40.324  0.00  0.00    +0.000 A 
ATOM      5  C   UNL     1      -5.896  -8.190  39.472  0.00  0.00    +0.000 A 
ATOM      6  C   UNL     1      -5.130 -10.220  39.859  0.00  0.00    +0.000 A 
ATOM      7  C   UNL     1      -6.976 -10.273  38.462  0.00  0.00    +0.000 A 
ATOM      8  C   UNL     1      -6.713 -11.587  38.569  0.00  0.00    +0.000 A 
ENDROOT
BRANCH   4  12
ATOM      9  C   UNL     1      -2.802  -4.793  42.109  0.00  0.00    +0.000 A 
ATOM     10  C   UNL     1      -4.043  -5.238  42.570  0.00  0.00    +0.000 A 
ATOM     11  C   UNL     1      -2.246  -5.477  41.013  0.00  0.00    +0.000 A 
ATOM     12  C   UNL     1      -4.126  -7.019  40.911  0.00  0.00    +0.000 A 
ATOM     13  C   UNL     1      -4.707  -6.306  41.961  0.00  0.00    +0.000 A 
ATOM     14  C   UNL     1      -2.895  -6.575  40.425  0.00  0.00    +0.000 A 
BRANCH   9  15
ATOM     15  C   UNL     1      -2.083  -3.591  42.748  0.00  0.00    +0.000 C 
ATOM     16  C   UNL     1      -3.039  -2.640  43.506  0.00  0.00    +0.000 C 
ATOM     17  C   UNL     1      -1.022  -4.068  43.762  0.00  0.00    +0.000 C 
ATOM     18  C   UNL     1      -1.398  -2.762  41.643  0.00  0.00    +0.000 C 
ENDBRANCH   9  15
ENDBRANCH   4  12
BRANCH   5  20
ATOM     19  N   UNL     1      -7.926  -7.003  39.499  0.00  0.00    +0.000 NA
ATOM     20  C   UNL     1      -6.747  -7.143  38.996  0.00  0.00    +0.000 C 
BRANCH  19  21
ATOM     21  O   UNL     1      -8.586  -5.912  38.926  0.00  0.00    +0.000 OA
BRANCH  21  22
ATOM     22  C   UNL     1      -8.310  -4.782  39.758  0.00  0.00    +0.000 C 
BRANCH  22  25
ATOM     23 CL   UNL     1     -13.463  -4.698  40.568  0.00  0.00    +0.000 Cl
ATOM     24 CL   UNL     1     -13.063  -1.743  41.874  0.00  0.00    +0.000 Cl
ATOM     25  C   UNL     1      -9.554  -4.001  40.103  0.00  0.00    +0.000 A 
ATOM     26  C   UNL     1     -10.828  -4.584  40.087  0.00  0.00    +0.000 A 
ATOM     27  C   UNL     1      -9.412  -2.691  40.586  0.00  0.00    +0.000 A 
ATOM     28  C   UNL     1     -11.934  -3.893  40.595  0.00  0.00    +0.000 A 
ATOM     29  C   UNL     1     -10.512  -2.003  41.099  0.00  0.00    +0.000 A 
ATOM     30  C   UNL     1     -11.768  -2.611  41.127  0.00  0.00    +0.000 A 
ENDBRANCH  22  25
ENDBRANCH  21  22
ENDBRANCH  19  21
ENDBRANCH   5  20
TORSDOF 6
ENDMDL
MODEL 6
REMARK VINA RESULT:      -6.0     23.289     27.168
REMARK  Name = 142505365
REMARK  9 active torsions:
REMARK  status: ('A' for Active; 'I' for Inactive)
REMARK    1  A    between atoms: O_4  and  N_7
REMARK    2  A    between atoms: O_4  and  C_24
REMARK    3  A    between atoms: C_8  and  C_9
REMARK    4  A    between atoms: C_8  and  C_10
REMARK    5  A    between atoms: C_8  and  C_11
REMARK    6  A    between atoms: C_8  and  C_12
REMARK    7  A    between atoms: C_15  and  C_18
REMARK    8  A    between atoms: C_19  and  C_22
REMARK    9  A    between atoms: C_24  and  C_25
REMARK                            x       y       z     vdW  Elec       q    Type
REMARK                         _______ _______ _______ _____ _____    ______ ____
ROOT
ATOM      1  S   UNL     1     -16.873   1.753  26.973  0.00  0.00    +0.000 S 
ATOM      2  N   UNL     1     -17.441   2.361  24.547  0.00  0.00    +0.000 N 
ATOM      3  N   UNL     1     -15.729   3.626  25.215  0.00  0.00    +0.000 NA
ATOM      4  C   UNL     1     -16.073   3.929  23.902  0.00  0.00    +0.000 A 
ATOM      5  C   UNL     1     -17.162   3.157  23.471  0.00  0.00    +0.000 A 
ATOM      6  C   UNL     1     -16.568   2.683  25.539  0.00  0.00    +0.000 A 
ATOM      7  C   UNL     1     -18.376   1.399  24.872  0.00  0.00    +0.000 A 
ATOM      8  C   UNL     1     -18.219   0.964  26.134  0.00  0.00    +0.000 A 
ENDROOT
BRANCH   4  12
ATOM      9  C   UNL     1     -13.875   6.911  21.691  0.00  0.00    +0.000 A 
ATOM     10  C   UNL     1     -15.099   7.207  22.295  0.00  0.00    +0.000 A 
ATOM     11  C   UNL     1     -13.410   5.588  21.805  0.00  0.00    +0.000 A 
ATOM     12  C   UNL     1     -15.344   4.933  23.129  0.00  0.00    +0.000 A 
ATOM     13  C   UNL     1     -15.835   6.229  22.970  0.00  0.00    +0.000 A 
ATOM     14  C   UNL     1     -14.131   4.614  22.516  0.00  0.00    +0.000 A 
BRANCH   9  15
ATOM     15  C   UNL     1     -13.077   7.972  20.912  0.00  0.00    +0.000 C 
ATOM     16  C   UNL     1     -11.635   7.524  20.571  0.00  0.00    +0.000 C 
ATOM     17  C   UNL     1     -13.774   8.305  19.576  0.00  0.00    +0.000 C 
ATOM     18  C   UNL     1     -12.966   9.252  21.764  0.00  0.00    +0.000 C 
ENDBRANCH   9  15
ENDBRANCH   4  12
BRANCH   5  20
ATOM     19  N   UNL     1     -18.902   3.971  22.114  0.00  0.00    +0.000 NA
ATOM     20  C   UNL     1     -17.916   3.152  22.254  0.00  0.00    +0.000 C 
BRANCH  19  21
ATOM     21  O   UNL     1     -19.489   3.833  20.853  0.00  0.00    +0.000 OA
BRANCH  21  22
ATOM     22  C   UNL     1     -18.430   3.545  19.936  0.00  0.00    +0.000 C 
BRANCH  22  25
ATOM     23 CL   UNL     1     -19.582   6.979  16.182  0.00  0.00    +0.000 Cl
ATOM     24 CL   UNL     1     -17.085   8.770  17.254  0.00  0.00    +0.000 Cl
ATOM     25  C   UNL     1     -18.033   4.747  19.115  0.00  0.00    +0.000 A 
ATOM     26  C   UNL     1     -18.827   5.224  18.062  0.00  0.00    +0.000 A 
ATOM     27  C   UNL     1     -16.908   5.486  19.506  0.00  0.00    +0.000 A 
ATOM     28  C   UNL     1     -18.534   6.447  17.448  0.00  0.00    +0.000 A 
ATOM     29  C   UNL     1     -16.617   6.709  18.899  0.00  0.00    +0.000 A 
ATOM     30  C   UNL     1     -17.442   7.202  17.887  0.00  0.00    +0.000 A 
ENDBRANCH  22  25
ENDBRANCH  21  22
ENDBRANCH  19  21
ENDBRANCH   5  20
TORSDOF 6
ENDMDL
MODEL 7
REMARK VINA RESULT:      -6.0     36.956     39.011
REMARK  Name = 142505365
REMARK  9 active torsions:
REMARK  status: ('A' for Active; 'I' for Inactive)
REMARK    1  A    between atoms: O_4  and  N_7
REMARK    2  A    between atoms: O_4  and  C_24
REMARK    3  A    between atoms: C_8  and  C_9
REMARK    4  A    between atoms: C_8  and  C_10
REMARK    5  A    between atoms: C_8  and  C_11
REMARK    6  A    between atoms: C_8  and  C_12
REMARK    7  A    between atoms: C_15  and  C_18
REMARK    8  A    between atoms: C_19  and  C_22
REMARK    9  A    between atoms: C_24  and  C_25
REMARK                            x       y       z     vdW  Elec       q    Type
REMARK                         _______ _______ _______ _____ _____    ______ ____
ROOT
ATOM      1  S   UNL     1      -2.719 -16.241   0.770  0.00  0.00    +0.000 S 
ATOM      2  N   UNL     1      -0.421 -15.118   0.573  0.00  0.00    +0.000 N 
ATOM      3  N   UNL     1      -1.279 -15.347  -1.474  0.00  0.00    +0.000 NA
ATOM      4  C   UNL     1      -0.028 -14.745  -1.537  0.00  0.00    +0.000 A 
ATOM      5  C   UNL     1       0.537 -14.610  -0.260  0.00  0.00    +0.000 A 
ATOM      6  C   UNL     1      -1.462 -15.534  -0.198  0.00  0.00    +0.000 A 
ATOM      7  C   UNL     1      -0.561 -15.345   1.927  0.00  0.00    +0.000 A 
ATOM      8  C   UNL     1      -1.731 -15.941   2.211  0.00  0.00    +0.000 A 
ENDROOT
BRANCH   4  12
ATOM      9  C   UNL     1       1.786 -13.520  -5.256  0.00  0.00    +0.000 A 
ATOM     10  C   UNL     1       1.397 -12.587  -4.292  0.00  0.00    +0.000 A 
ATOM     11  C   UNL     1       1.524 -14.873  -4.975  0.00  0.00    +0.000 A 
ATOM     12  C   UNL     1       0.560 -14.326  -2.808  0.00  0.00    +0.000 A 
ATOM     13  C   UNL     1       0.766 -12.979  -3.109  0.00  0.00    +0.000 A 
ATOM     14  C   UNL     1       0.925 -15.272  -3.769  0.00  0.00    +0.000 A 
BRANCH   9  15
ATOM     15  C   UNL     1       2.445 -13.093  -6.580  0.00  0.00    +0.000 C 
ATOM     16  C   UNL     1       3.865 -13.678  -6.771  0.00  0.00    +0.000 C 
ATOM     17  C   UNL     1       1.599 -13.557  -7.783  0.00  0.00    +0.000 C 
ATOM     18  C   UNL     1       2.578 -11.557  -6.609  0.00  0.00    +0.000 C 
ENDBRANCH   9  15
ENDBRANCH   4  12
BRANCH   5  20
ATOM     19  N   UNL     1       2.856 -14.338  -0.543  0.00  0.00    +0.000 NA
ATOM     20  C   UNL     1       1.811 -14.131   0.183  0.00  0.00    +0.000 C 
BRANCH  19  21
ATOM     21  O   UNL     1       3.991 -13.770   0.044  0.00  0.00    +0.000 OA
BRANCH  21  22
ATOM     22  C   UNL     1       5.117 -14.505  -0.446  0.00  0.00    +0.000 C 
BRANCH  22  25
ATOM     23 CL   UNL     1       4.695 -17.243   3.975  0.00  0.00    +0.000 Cl
ATOM     24 CL   UNL     1       5.326 -19.907   2.214  0.00  0.00    +0.000 Cl
ATOM     25  C   UNL     1       5.333 -15.797   0.303  0.00  0.00    +0.000 A 
ATOM     26  C   UNL     1       5.056 -15.920   1.671  0.00  0.00    +0.000 A 
ATOM     27  C   UNL     1       5.692 -16.942  -0.424  0.00  0.00    +0.000 A 
ATOM     28  C   UNL     1       5.082 -17.174   2.292  0.00  0.00    +0.000 A 
ATOM     29  C   UNL     1       5.712 -18.194   0.192  0.00  0.00    +0.000 A 
ATOM     30  C   UNL     1       5.384 -18.315   1.543  0.00  0.00    +0.000 A 
ENDBRANCH  22  25
ENDBRANCH  21  22
ENDBRANCH  19  21
ENDBRANCH   5  20
TORSDOF 6
ENDMDL
MODEL 8
REMARK VINA RESULT:      -5.9     27.416     31.287
REMARK  Name = 142505365
REMARK  9 active torsions:
REMARK  status: ('A' for Active; 'I' for Inactive)
REMARK    1  A    between atoms: O_4  and  N_7
REMARK    2  A    between atoms: O_4  and  C_24
REMARK    3  A    between atoms: C_8  and  C_9
REMARK    4  A    between atoms: C_8  and  C_10
REMARK    5  A    between atoms: C_8  and  C_11
REMARK    6  A    between atoms: C_8  and  C_12
REMARK    7  A    between atoms: C_15  and  C_18
REMARK    8  A    between atoms: C_19  and  C_22
REMARK    9  A    between atoms: C_24  and  C_25
REMARK                            x       y       z     vdW  Elec       q    Type
REMARK                         _______ _______ _______ _____ _____    ______ ____
ROOT
ATOM      1  S   UNL     1     -17.799   2.254  23.597  0.00  0.00    +0.000 S 
ATOM      2  N   UNL     1     -17.486   1.730  26.089  0.00  0.00    +0.000 N 
ATOM      3  N   UNL     1     -19.451   0.903  25.429  0.00  0.00    +0.000 NA
ATOM      4  C   UNL     1     -19.244   0.644  26.780  0.00  0.00    +0.000 A 
ATOM      5  C   UNL     1     -18.021   1.175  27.218  0.00  0.00    +0.000 A 
ATOM      6  C   UNL     1     -18.371   1.539  25.074  0.00  0.00    +0.000 A 
ATOM      7  C   UNL     1     -16.352   2.443  25.758  0.00  0.00    +0.000 A 
ATOM      8  C   UNL     1     -16.355   2.805  24.464  0.00  0.00    +0.000 A 
ENDROOT
BRANCH   4  12
ATOM      9  C   UNL     1     -22.159  -1.573  29.061  0.00  0.00    +0.000 A 
ATOM     10  C   UNL     1     -22.326  -0.213  28.791  0.00  0.00    +0.000 A 
ATOM     11  C   UNL     1     -20.979  -2.177  28.589  0.00  0.00    +0.000 A 
ATOM     12  C   UNL     1     -20.218  -0.098  27.577  0.00  0.00    +0.000 A 
ATOM     13  C   UNL     1     -21.359   0.517  28.094  0.00  0.00    +0.000 A 
ATOM     14  C   UNL     1     -20.025  -1.453  27.855  0.00  0.00    +0.000 A 
BRANCH   9  15
ATOM     15  C   UNL     1     -23.200  -2.374  29.863  0.00  0.00    +0.000 C 
ATOM     16  C   UNL     1     -23.426  -1.824  31.292  0.00  0.00    +0.000 C 
ATOM     17  C   UNL     1     -24.568  -2.356  29.150  0.00  0.00    +0.000 C 
ATOM     18  C   UNL     1     -22.717  -3.832  30.008  0.00  0.00    +0.000 C 
ENDBRANCH   9  15
ENDBRANCH   4  12
BRANCH   5  20
ATOM     19  N   UNL     1     -16.530   0.346  28.837  0.00  0.00    +0.000 NA
ATOM     20  C   UNL     1     -17.405   1.234  28.509  0.00  0.00    +0.000 C 
BRANCH  19  21
ATOM     21  O   UNL     1     -16.026   0.593  30.118  0.00  0.00    +0.000 OA
BRANCH  21  22
ATOM     22  C   UNL     1     -14.920   1.486  29.959  0.00  0.00    +0.000 C 
BRANCH  22  25
ATOM     23 CL   UNL     1     -14.145   6.063  32.339  0.00  0.00    +0.000 Cl
ATOM     24 CL   UNL     1     -14.435   4.477  35.166  0.00  0.00    +0.000 Cl
ATOM     25  C   UNL     1     -14.611   2.253  31.221  0.00  0.00    +0.000 A 
ATOM     26  C   UNL     1     -14.428   3.643  31.221  0.00  0.00    +0.000 A 
ATOM     27  C   UNL     1     -14.644   1.572  32.446  0.00  0.00    +0.000 A 
ATOM     28  C   UNL     1     -14.336   4.348  32.426  0.00  0.00    +0.000 A 
ATOM     29  C   UNL     1     -14.558   2.273  33.649  0.00  0.00    +0.000 A 
ATOM     30  C   UNL     1     -14.428   3.663  33.642  0.00  0.00    +0.000 A 
ENDBRANCH  22  25
ENDBRANCH  21  22
ENDBRANCH  19  21
ENDBRANCH   5  20
TORSDOF 6
ENDMDL
MODEL 9
REMARK VINA RESULT:      -5.8     19.784     22.395
REMARK  Name = 142505365
REMARK  9 active torsions:
REMARK  status: ('A' for Active; 'I' for Inactive)
REMARK    1  A    between atoms: O_4  and  N_7
REMARK    2  A    between atoms: O_4  and  C_24
REMARK    3  A    between atoms: C_8  and  C_9
REMARK    4  A    between atoms: C_8  and  C_10
REMARK    5  A    between atoms: C_8  and  C_11
REMARK    6  A    between atoms: C_8  and  C_12
REMARK    7  A    between atoms: C_15  and  C_18
REMARK    8  A    between atoms: C_19  and  C_22
REMARK    9  A    between atoms: C_24  and  C_25
REMARK                            x       y       z     vdW  Elec       q    Type
REMARK                         _______ _______ _______ _____ _____    ______ ____
ROOT
ATOM      1  S   UNL     1      18.596  -1.777  32.537  0.00  0.00    +0.000 S 
ATOM      2  N   UNL     1      20.189  -2.325  30.602  0.00  0.00    +0.000 N 
ATOM      3  N   UNL     1      18.100  -2.292  29.817  0.00  0.00    +0.000 NA
ATOM      4  C   UNL     1      18.997  -2.591  28.798  0.00  0.00    +0.000 A 
ATOM      5  C   UNL     1      20.315  -2.637  29.277  0.00  0.00    +0.000 A 
ATOM      6  C   UNL     1      18.866  -2.135  30.859  0.00  0.00    +0.000 A 
ATOM      7  C   UNL     1      21.025  -2.214  31.694  0.00  0.00    +0.000 A 
ATOM      8  C   UNL     1      20.340  -1.925  32.814  0.00  0.00    +0.000 A 
ENDROOT
BRANCH   4  12
ATOM      9  C   UNL     1      17.609  -3.201  24.759  0.00  0.00    +0.000 A 
ATOM     10  C   UNL     1      17.383  -4.150  25.758  0.00  0.00    +0.000 A 
ATOM     11  C   UNL     1      18.344  -2.057  25.119  0.00  0.00    +0.000 A 
ATOM     12  C   UNL     1      18.552  -2.813  27.424  0.00  0.00    +0.000 A 
ATOM     13  C   UNL     1      17.874  -3.976  27.055  0.00  0.00    +0.000 A 
ATOM     14  C   UNL     1      18.805  -1.863  26.432  0.00  0.00    +0.000 A 
BRANCH   9  15
ATOM     15  C   UNL     1      17.107  -3.405  23.317  0.00  0.00    +0.000 C 
ATOM     16  C   UNL     1      17.043  -4.893  22.898  0.00  0.00    +0.000 C 
ATOM     17  C   UNL     1      15.686  -2.827  23.150  0.00  0.00    +0.000 C 
ATOM     18  C   UNL     1      18.066  -2.697  22.340  0.00  0.00    +0.000 C 
ENDBRANCH   9  15
ENDBRANCH   4  12
BRANCH   5  20
ATOM     19  N   UNL     1      21.883  -4.209  28.502  0.00  0.00    +0.000 NA
ATOM     20  C   UNL     1      21.557  -2.971  28.648  0.00  0.00    +0.000 C 
BRANCH  19  21
ATOM     21  O   UNL     1      23.111  -4.327  27.843  0.00  0.00    +0.000 OA
BRANCH  21  22
ATOM     22  C   UNL     1      22.996  -3.581  26.627  0.00  0.00    +0.000 C 
BRANCH  22  25
ATOM     23 CL   UNL     1      23.881  -7.679  23.522  0.00  0.00    +0.000 Cl
ATOM     24 CL   UNL     1      20.817  -7.358  22.469  0.00  0.00    +0.000 Cl
ATOM     25  C   UNL     1      22.569  -4.438  25.462  0.00  0.00    +0.000 A 
ATOM     26  C   UNL     1      23.359  -5.493  24.983  0.00  0.00    +0.000 A 
ATOM     27  C   UNL     1      21.282  -4.259  24.932  0.00  0.00    +0.000 A 
ATOM     28  C   UNL     1      22.853  -6.387  24.033  0.00  0.00    +0.000 A 
ATOM     29  C   UNL     1      20.774  -5.153  23.989  0.00  0.00    +0.000 A 
ATOM     30  C   UNL     1      21.548  -6.231  23.557  0.00  0.00    +0.000 A 
ENDBRANCH  22  25
ENDBRANCH  21  22
ENDBRANCH  19  21
ENDBRANCH   5  20
TORSDOF 6
ENDMDL
MODEL 10
REMARK VINA RESULT:      -5.8     36.532     39.351
REMARK  Name = 142505365
REMARK  9 active torsions:
REMARK  status: ('A' for Active; 'I' for Inactive)
REMARK    1  A    between atoms: O_4  and  N_7
REMARK    2  A    between atoms: O_4  and  C_24
REMARK    3  A    between atoms: C_8  and  C_9
REMARK    4  A    between atoms: C_8  and  C_10
REMARK    5  A    between atoms: C_8  and  C_11
REMARK    6  A    between atoms: C_8  and  C_12
REMARK    7  A    between atoms: C_15  and  C_18
REMARK    8  A    between atoms: C_19  and  C_22
REMARK    9  A    between atoms: C_24  and  C_25
REMARK                            x       y       z     vdW  Elec       q    Type
REMARK                         _______ _______ _______ _____ _____    ______ ____
ROOT
ATOM      1  S   UNL     1      -3.690 -17.042   0.537  0.00  0.00    +0.000 S 
ATOM      2  N   UNL     1      -1.309 -16.096   0.678  0.00  0.00    +0.000 N 
ATOM      3  N   UNL     1      -2.006 -15.956  -1.437  0.00  0.00    +0.000 NA
ATOM      4  C   UNL     1      -0.714 -15.457  -1.317  0.00  0.00    +0.000 A 
ATOM      5  C   UNL     1      -0.250 -15.555   0.003  0.00  0.00    +0.000 A 
ATOM      6  C   UNL     1      -2.308 -16.309  -0.220  0.00  0.00    +0.000 A 
ATOM      7  C   UNL     1      -1.578 -16.504   1.969  0.00  0.00    +0.000 A 
ATOM      8  C   UNL     1      -2.808 -17.036   2.074  0.00  0.00    +0.000 A 
ENDROOT
BRANCH   4  12
ATOM      9  C   UNL     1       1.338 -13.821  -4.742  0.00  0.00    +0.000 A 
ATOM     10  C   UNL     1       1.052 -15.184  -4.647  0.00  0.00    +0.000 A 
ATOM     11  C   UNL     1       0.961 -13.012  -3.655  0.00  0.00    +0.000 A 
ATOM     12  C   UNL     1       0.007 -14.909  -2.465  0.00  0.00    +0.000 A 
ATOM     13  C   UNL     1       0.431 -15.723  -3.516  0.00  0.00    +0.000 A 
ATOM     14  C   UNL     1       0.302 -13.546  -2.535  0.00  0.00    +0.000 A 
BRANCH   9  15
ATOM     15  C   UNL     1       2.058 -13.226  -5.966  0.00  0.00    +0.000 C 
ATOM     16  C   UNL     1       1.486 -13.728  -7.314  0.00  0.00    +0.000 C 
ATOM     17  C   UNL     1       1.943 -11.688  -5.971  0.00  0.00    +0.000 C 
ATOM     18  C   UNL     1       3.546 -13.629  -5.926  0.00  0.00    +0.000 C 
ENDBRANCH   9  15
ENDBRANCH   4  12
BRANCH   5  20
ATOM     19  N   UNL     1       1.380 -14.023   0.728  0.00  0.00    +0.000 NA
ATOM     20  C   UNL     1       1.013 -15.253   0.605  0.00  0.00    +0.000 C 
BRANCH  19  21
ATOM     21  O   UNL     1       2.623 -13.936   1.363  0.00  0.00    +0.000 OA
BRANCH  21  22
ATOM     22  C   UNL     1       3.559 -13.495   0.375  0.00  0.00    +0.000 C 
BRANCH  22  25
ATOM     23 CL   UNL     1       6.662 -17.688   0.350  0.00  0.00    +0.000 Cl
ATOM     24 CL   UNL     1       5.374 -18.444  -2.543  0.00  0.00    +0.000 Cl
ATOM     25  C   UNL     1       4.180 -14.641  -0.384  0.00  0.00    +0.000 A 
ATOM     26  C   UNL     1       5.118 -15.503   0.203  0.00  0.00    +0.000 A 
ATOM     27  C   UNL     1       3.701 -14.934  -1.670  0.00  0.00    +0.000 A 
ATOM     28  C   UNL     1       5.529 -16.665  -0.459  0.00  0.00    +0.000 A 
ATOM     29  C   UNL     1       4.105 -16.095  -2.329  0.00  0.00    +0.000 A 
ATOM     30  C   UNL     1       5.000 -16.974  -1.715  0.00  0.00    +0.000 A 
ENDBRANCH  22  25
ENDBRANCH  21  22
ENDBRANCH  19  21
ENDBRANCH   5  20
TORSDOF 6
ENDMDL
