MODEL 1
REMARK VINA RESULT:      -5.6      0.000      0.000
REMARK  Name = 142505469
REMARK  5 active torsions:
REMARK  status: ('A' for Active; 'I' for Inactive)
REMARK    1  A    between atoms: O_2  and  N_5
REMARK    2  A    between atoms: O_2  and  C_19
REMARK    3  A    between atoms: C_6  and  C_11
REMARK    4  A    between atoms: C_7  and  C_9
REMARK    5  A    between atoms: C_18  and  C_19
REMARK                            x       y       z     vdW  Elec       q    Type
REMARK                         _______ _______ _______ _____ _____    ______ ____
ROOT
ATOM      1  S   UNL     1     -14.449   0.534 -32.618  0.00  0.00    +0.000 S 
ATOM      2  N   UNL     1     -12.077   1.353 -33.164  0.00  0.00    +0.000 N 
ATOM      3  N   UNL     1     -13.551   2.820 -33.981  0.00  0.00    +0.000 NA
ATOM      4  C   UNL     1     -11.311   2.343 -33.721  0.00  0.00    +0.000 A 
ATOM      5  C   UNL     1     -12.252   3.232 -34.248  0.00  0.00    +0.000 A 
ATOM      6  C   UNL     1     -13.383   1.696 -33.346  0.00  0.00    +0.000 A 
ATOM      7  C   UNL     1     -11.871   0.191 -32.449  0.00  0.00    +0.000 A 
ATOM      8  C   UNL     1     -13.030  -0.378 -32.078  0.00  0.00    +0.000 A 
ENDROOT
BRANCH   5   9
ATOM      9  C   UNL     1     -11.964   4.471 -34.962  0.00  0.00    +0.000 A 
ATOM     10  C   UNL     1     -11.618   4.418 -36.318  0.00  0.00    +0.000 A 
ATOM     11  C   UNL     1     -12.042   5.725 -34.337  0.00  0.00    +0.000 A 
ATOM     12  C   UNL     1     -11.418   5.594 -37.047  0.00  0.00    +0.000 A 
ATOM     13  C   UNL     1     -11.863   6.900 -35.069  0.00  0.00    +0.000 A 
ATOM     14  C   UNL     1     -11.562   6.834 -36.426  0.00  0.00    +0.000 A 
ENDBRANCH   5   9
BRANCH   4  16
ATOM     15  N   UNL     1      -9.274   3.445 -33.202  0.00  0.00    +0.000 NA
ATOM     16  C   UNL     1      -9.882   2.419 -33.702  0.00  0.00    +0.000 C 
BRANCH  15  17
ATOM     17  O   UNL     1      -7.888   3.208 -33.252  0.00  0.00    +0.000 OA
BRANCH  17  18
ATOM     18  C   UNL     1      -7.525   2.894 -34.600  0.00  0.00    +0.000 C 
BRANCH  18  19
ATOM     19  C   UNL     1      -7.251   4.140 -35.407  0.00  0.00    +0.000 A 
ATOM     20  C   UNL     1      -6.044   4.250 -36.116  0.00  0.00    +0.000 A 
ATOM     21  C   UNL     1      -8.128   5.234 -35.400  0.00  0.00    +0.000 A 
ATOM     22  C   UNL     1      -5.726   5.422 -36.806  0.00  0.00    +0.000 A 
ATOM     23  C   UNL     1      -7.810   6.404 -36.094  0.00  0.00    +0.000 A 
ATOM     24  C   UNL     1      -6.608   6.499 -36.792  0.00  0.00    +0.000 A 
ENDBRANCH  18  19
ENDBRANCH  17  18
ENDBRANCH  15  17
ENDBRANCH   4  16
TORSDOF 5
ENDMDL
MODEL 2
REMARK VINA RESULT:      -5.5     24.415     26.606
REMARK  Name = 142505469
REMARK  5 active torsions:
REMARK  status: ('A' for Active; 'I' for Inactive)
REMARK    1  A    between atoms: O_2  and  N_5
REMARK    2  A    between atoms: O_2  and  C_19
REMARK    3  A    between atoms: C_6  and  C_11
REMARK    4  A    between atoms: C_7  and  C_9
REMARK    5  A    between atoms: C_18  and  C_19
REMARK                            x       y       z     vdW  Elec       q    Type
REMARK                         _______ _______ _______ _____ _____    ______ ____
ROOT
ATOM      1  S   UNL     1      -9.705  13.158 -54.545  0.00  0.00    +0.000 S 
ATOM      2  N   UNL     1     -10.043  12.611 -57.031  0.00  0.00    +0.000 N 
ATOM      3  N   UNL     1     -12.004  12.415 -55.978  0.00  0.00    +0.000 NA
ATOM      4  C   UNL     1     -10.936  12.279 -58.016  0.00  0.00    +0.000 A 
ATOM      5  C   UNL     1     -12.146  12.136 -57.331  0.00  0.00    +0.000 A 
ATOM      6  C   UNL     1     -10.734  12.680 -55.859  0.00  0.00    +0.000 A 
ATOM      7  C   UNL     1      -8.705  12.936 -56.941  0.00  0.00    +0.000 A 
ATOM      8  C   UNL     1      -8.353  13.254 -55.684  0.00  0.00    +0.000 A 
ENDROOT
BRANCH   5   9
ATOM      9  C   UNL     1     -13.433  11.778 -57.917  0.00  0.00    +0.000 A 
ATOM     10  C   UNL     1     -13.706  10.437 -58.211  0.00  0.00    +0.000 A 
ATOM     11  C   UNL     1     -14.422  12.739 -58.181  0.00  0.00    +0.000 A 
ATOM     12  C   UNL     1     -14.960  10.056 -58.695  0.00  0.00    +0.000 A 
ATOM     13  C   UNL     1     -15.681  12.356 -58.644  0.00  0.00    +0.000 A 
ATOM     14  C   UNL     1     -15.954  11.014 -58.891  0.00  0.00    +0.000 A 
ENDBRANCH   5   9
BRANCH   4  16
ATOM     15  N   UNL     1     -10.932  11.079 -60.063  0.00  0.00    +0.000 NA
ATOM     16  C   UNL     1     -10.649  12.160 -59.412  0.00  0.00    +0.000 C 
BRANCH  15  17
ATOM     17  O   UNL     1     -10.610  11.278 -61.418  0.00  0.00    +0.000 OA
BRANCH  17  18
ATOM     18  C   UNL     1     -11.194  12.510 -61.851  0.00  0.00    +0.000 C 
BRANCH  18  19
ATOM     19  C   UNL     1     -12.556  12.295 -62.466  0.00  0.00    +0.000 A 
ATOM     20  C   UNL     1     -12.650  11.811 -63.781  0.00  0.00    +0.000 A 
ATOM     21  C   UNL     1     -13.735  12.646 -61.794  0.00  0.00    +0.000 A 
ATOM     22  C   UNL     1     -13.892  11.678 -64.405  0.00  0.00    +0.000 A 
ATOM     23  C   UNL     1     -14.977  12.508 -62.418  0.00  0.00    +0.000 A 
ATOM     24  C   UNL     1     -15.054  12.029 -63.723  0.00  0.00    +0.000 A 
ENDBRANCH  18  19
ENDBRANCH  17  18
ENDBRANCH  15  17
ENDBRANCH   4  16
TORSDOF 5
ENDMDL
MODEL 3
REMARK VINA RESULT:      -5.2     18.319     19.874
REMARK  Name = 142505469
REMARK  5 active torsions:
REMARK  status: ('A' for Active; 'I' for Inactive)
REMARK    1  A    between atoms: O_2  and  N_5
REMARK    2  A    between atoms: O_2  and  C_19
REMARK    3  A    between atoms: C_6  and  C_11
REMARK    4  A    between atoms: C_7  and  C_9
REMARK    5  A    between atoms: C_18  and  C_19
REMARK                            x       y       z     vdW  Elec       q    Type
REMARK                         _______ _______ _______ _____ _____    ______ ____
ROOT
ATOM      1  S   UNL     1      -1.230  -1.176 -49.710  0.00  0.00    +0.000 S 
ATOM      2  N   UNL     1      -2.428   0.631 -51.087  0.00  0.00    +0.000 N 
ATOM      3  N   UNL     1      -3.722  -1.189 -51.008  0.00  0.00    +0.000 NA
ATOM      4  C   UNL     1      -3.560   0.978 -51.777  0.00  0.00    +0.000 A 
ATOM      5  C   UNL     1      -4.339  -0.182 -51.737  0.00  0.00    +0.000 A 
ATOM      6  C   UNL     1      -2.589  -0.652 -50.656  0.00  0.00    +0.000 A 
ATOM      7  C   UNL     1      -1.257   1.241 -50.686  0.00  0.00    +0.000 A 
ATOM      8  C   UNL     1      -0.497   0.420 -49.942  0.00  0.00    +0.000 A 
ENDROOT
BRANCH   5   9
ATOM      9  C   UNL     1      -5.658  -0.357 -52.335  0.00  0.00    +0.000 A 
ATOM     10  C   UNL     1      -6.662  -1.008 -51.608  0.00  0.00    +0.000 A 
ATOM     11  C   UNL     1      -5.964   0.126 -53.618  0.00  0.00    +0.000 A 
ATOM     12  C   UNL     1      -7.957  -1.117 -52.123  0.00  0.00    +0.000 A 
ATOM     13  C   UNL     1      -7.261   0.037 -54.123  0.00  0.00    +0.000 A 
ATOM     14  C   UNL     1      -8.260  -0.574 -53.371  0.00  0.00    +0.000 A 
ENDBRANCH   5   9
BRANCH   4  16
ATOM     15  N   UNL     1      -4.353   3.209 -51.638  0.00  0.00    +0.000 NA
ATOM     16  C   UNL     1      -3.843   2.258 -52.350  0.00  0.00    +0.000 C 
BRANCH  15  17
ATOM     17  O   UNL     1      -4.448   4.362 -52.441  0.00  0.00    +0.000 OA
BRANCH  17  18
ATOM     18  C   UNL     1      -5.100   4.015 -53.666  0.00  0.00    +0.000 C 
BRANCH  18  19
ATOM     19  C   UNL     1      -4.573   4.824 -54.826  0.00  0.00    +0.000 A 
ATOM     20  C   UNL     1      -4.620   4.283 -56.121  0.00  0.00    +0.000 A 
ATOM     21  C   UNL     1      -3.956   6.069 -54.639  0.00  0.00    +0.000 A 
ATOM     22  C   UNL     1      -4.067   4.973 -57.202  0.00  0.00    +0.000 A 
ATOM     23  C   UNL     1      -3.407   6.760 -55.722  0.00  0.00    +0.000 A 
ATOM     24  C   UNL     1      -3.459   6.210 -57.001  0.00  0.00    +0.000 A 
ENDBRANCH  18  19
ENDBRANCH  17  18
ENDBRANCH  15  17
ENDBRANCH   4  16
TORSDOF 5
ENDMDL
MODEL 4
REMARK VINA RESULT:      -5.0     24.722     26.984
REMARK  Name = 142505469
REMARK  5 active torsions:
REMARK  status: ('A' for Active; 'I' for Inactive)
REMARK    1  A    between atoms: O_2  and  N_5
REMARK    2  A    between atoms: O_2  and  C_19
REMARK    3  A    between atoms: C_6  and  C_11
REMARK    4  A    between atoms: C_7  and  C_9
REMARK    5  A    between atoms: C_18  and  C_19
REMARK                            x       y       z     vdW  Elec       q    Type
REMARK                         _______ _______ _______ _____ _____    ______ ____
ROOT
ATOM      1  S   UNL     1     -23.644   2.892 -59.482  0.00  0.00    +0.000 S 
ATOM      2  N   UNL     1     -23.344   5.436 -59.673  0.00  0.00    +0.000 N 
ATOM      3  N   UNL     1     -21.853   4.643 -58.210  0.00  0.00    +0.000 NA
ATOM      4  C   UNL     1     -22.622   6.533 -59.282  0.00  0.00    +0.000 A 
ATOM      5  C   UNL     1     -21.717   6.018 -58.349  0.00  0.00    +0.000 A 
ATOM      6  C   UNL     1     -22.839   4.357 -59.011  0.00  0.00    +0.000 A 
ATOM      7  C   UNL     1     -24.356   5.152 -60.567  0.00  0.00    +0.000 A 
ATOM      8  C   UNL     1     -24.645   3.841 -60.593  0.00  0.00    +0.000 A 
ENDROOT
BRANCH   5   9
ATOM      9  C   UNL     1     -20.710   6.775 -57.614  0.00  0.00    +0.000 A 
ATOM     10  C   UNL     1     -20.996   7.224 -56.320  0.00  0.00    +0.000 A 
ATOM     11  C   UNL     1     -19.447   7.055 -58.159  0.00  0.00    +0.000 A 
ATOM     12  C   UNL     1     -20.021   7.879 -55.562  0.00  0.00    +0.000 A 
ATOM     13  C   UNL     1     -18.466   7.690 -57.395  0.00  0.00    +0.000 A 
ATOM     14  C   UNL     1     -18.750   8.092 -56.094  0.00  0.00    +0.000 A 
ENDBRANCH   5   9
BRANCH   4  16
ATOM     15  N   UNL     1     -23.549   8.714 -59.182  0.00  0.00    +0.000 NA
ATOM     16  C   UNL     1     -22.775   7.866 -59.777  0.00  0.00    +0.000 C 
BRANCH  15  17
ATOM     17  O   UNL     1     -23.442   9.952 -59.842  0.00  0.00    +0.000 OA
BRANCH  17  18
ATOM     18  C   UNL     1     -22.068  10.182 -60.166  0.00  0.00    +0.000 C 
BRANCH  18  19
ATOM     19  C   UNL     1     -21.302  10.728 -58.985  0.00  0.00    +0.000 A 
ATOM     20  C   UNL     1     -19.909  10.879 -59.078  0.00  0.00    +0.000 A 
ATOM     21  C   UNL     1     -21.928  11.007 -57.763  0.00  0.00    +0.000 A 
ATOM     22  C   UNL     1     -19.163  11.304 -57.977  0.00  0.00    +0.000 A 
ATOM     23  C   UNL     1     -21.181  11.437 -56.663  0.00  0.00    +0.000 A 
ATOM     24  C   UNL     1     -19.799  11.581 -56.769  0.00  0.00    +0.000 A 
ENDBRANCH  18  19
ENDBRANCH  17  18
ENDBRANCH  15  17
ENDBRANCH   4  16
TORSDOF 5
ENDMDL
MODEL 5
REMARK VINA RESULT:      -5.0     12.967     15.380
REMARK  Name = 142505469
REMARK  5 active torsions:
REMARK  status: ('A' for Active; 'I' for Inactive)
REMARK    1  A    between atoms: O_2  and  N_5
REMARK    2  A    between atoms: O_2  and  C_19
REMARK    3  A    between atoms: C_6  and  C_11
REMARK    4  A    between atoms: C_7  and  C_9
REMARK    5  A    between atoms: C_18  and  C_19
REMARK                            x       y       z     vdW  Elec       q    Type
REMARK                         _______ _______ _______ _____ _____    ______ ____
ROOT
ATOM      1  S   UNL     1       2.236  13.386 -39.838  0.00  0.00    +0.000 S 
ATOM      2  N   UNL     1       0.090  12.501 -40.936  0.00  0.00    +0.000 N 
ATOM      3  N   UNL     1       1.441  10.775 -40.501  0.00  0.00    +0.000 NA
ATOM      4  C   UNL     1      -0.612  11.397 -41.343  0.00  0.00    +0.000 A 
ATOM      5  C   UNL     1       0.262  10.337 -41.088  0.00  0.00    +0.000 A 
ATOM      6  C   UNL     1       1.285  12.067 -40.446  0.00  0.00    +0.000 A 
ATOM      7  C   UNL     1      -0.122  13.862 -40.842  0.00  0.00    +0.000 A 
ATOM      8  C   UNL     1       0.924  14.491 -40.281  0.00  0.00    +0.000 A 
ENDROOT
BRANCH   5   9
ATOM      9  C   UNL     1       0.005   8.924 -41.348  0.00  0.00    +0.000 A 
ATOM     10  C   UNL     1      -0.550   8.129 -40.338  0.00  0.00    +0.000 A 
ATOM     11  C   UNL     1       0.281   8.335 -42.592  0.00  0.00    +0.000 A 
ATOM     12  C   UNL     1      -0.883   6.794 -40.586  0.00  0.00    +0.000 A 
ATOM     13  C   UNL     1      -0.071   7.009 -42.847  0.00  0.00    +0.000 A 
ATOM     14  C   UNL     1      -0.663   6.242 -41.847  0.00  0.00    +0.000 A 
ENDBRANCH   5   9
BRANCH   4  16
ATOM     15  N   UNL     1      -2.162  11.362 -43.140  0.00  0.00    +0.000 NA
ATOM     16  C   UNL     1      -1.944  11.388 -41.865  0.00  0.00    +0.000 C 
BRANCH  15  17
ATOM     17  O   UNL     1      -3.550  11.282 -43.352  0.00  0.00    +0.000 OA
BRANCH  17  18
ATOM     18  C   UNL     1      -4.190  12.310 -42.590  0.00  0.00    +0.000 C 
BRANCH  18  19
ATOM     19  C   UNL     1      -4.718  13.412 -43.476  0.00  0.00    +0.000 A 
ATOM     20  C   UNL     1      -4.372  13.428 -44.836  0.00  0.00    +0.000 A 
ATOM     21  C   UNL     1      -5.475  14.475 -42.963  0.00  0.00    +0.000 A 
ATOM     22  C   UNL     1      -4.778  14.477 -45.664  0.00  0.00    +0.000 A 
ATOM     23  C   UNL     1      -5.883  15.522 -43.792  0.00  0.00    +0.000 A 
ATOM     24  C   UNL     1      -5.531  15.525 -45.140  0.00  0.00    +0.000 A 
ENDBRANCH  18  19
ENDBRANCH  17  18
ENDBRANCH  15  17
ENDBRANCH   4  16
TORSDOF 5
ENDMDL
MODEL 6
REMARK VINA RESULT:      -4.8      1.906      2.538
REMARK  Name = 142505469
REMARK  5 active torsions:
REMARK  status: ('A' for Active; 'I' for Inactive)
REMARK    1  A    between atoms: O_2  and  N_5
REMARK    2  A    between atoms: O_2  and  C_19
REMARK    3  A    between atoms: C_6  and  C_11
REMARK    4  A    between atoms: C_7  and  C_9
REMARK    5  A    between atoms: C_18  and  C_19
REMARK                            x       y       z     vdW  Elec       q    Type
REMARK                         _______ _______ _______ _____ _____    ______ ____
ROOT
ATOM      1  S   UNL     1     -16.233   3.530 -31.576  0.00  0.00    +0.000 S 
ATOM      2  N   UNL     1     -13.708   3.709 -32.005  0.00  0.00    +0.000 N 
ATOM      3  N   UNL     1     -14.767   5.172 -33.320  0.00  0.00    +0.000 NA
ATOM      4  C   UNL     1     -12.708   4.357 -32.682  0.00  0.00    +0.000 A 
ATOM      5  C   UNL     1     -13.394   5.245 -33.515  0.00  0.00    +0.000 A 
ATOM      6  C   UNL     1     -14.892   4.238 -32.421  0.00  0.00    +0.000 A 
ATOM      7  C   UNL     1     -13.810   2.752 -31.015  0.00  0.00    +0.000 A 
ATOM      8  C   UNL     1     -15.088   2.531 -30.666  0.00  0.00    +0.000 A 
ENDROOT
BRANCH   5   9
ATOM      9  C   UNL     1     -12.795   6.179 -34.462  0.00  0.00    +0.000 A 
ATOM     10  C   UNL     1     -12.797   7.548 -34.170  0.00  0.00    +0.000 A 
ATOM     11  C   UNL     1     -12.195   5.747 -35.655  0.00  0.00    +0.000 A 
ATOM     12  C   UNL     1     -12.158   8.457 -35.019  0.00  0.00    +0.000 A 
ATOM     13  C   UNL     1     -11.538   6.651 -36.491  0.00  0.00    +0.000 A 
ATOM     14  C   UNL     1     -11.510   8.004 -36.167  0.00  0.00    +0.000 A 
ENDBRANCH   5   9
BRANCH   4  16
ATOM     15  N   UNL     1     -10.693   3.165 -33.068  0.00  0.00    +0.000 NA
ATOM     16  C   UNL     1     -11.302   4.158 -32.507  0.00  0.00    +0.000 C 
BRANCH  15  17
ATOM     17  O   UNL     1      -9.319   3.268 -32.783  0.00  0.00    +0.000 OA
BRANCH  17  18
ATOM     18  C   UNL     1      -8.583   2.677 -33.858  0.00  0.00    +0.000 C 
BRANCH  18  19
ATOM     19  C   UNL     1      -8.048   3.722 -34.807  0.00  0.00    +0.000 A 
ATOM     20  C   UNL     1      -8.804   4.080 -35.934  0.00  0.00    +0.000 A 
ATOM     21  C   UNL     1      -6.775   4.285 -34.646  0.00  0.00    +0.000 A 
ATOM     22  C   UNL     1      -8.301   4.983 -36.873  0.00  0.00    +0.000 A 
ATOM     23  C   UNL     1      -6.274   5.192 -35.583  0.00  0.00    +0.000 A 
ATOM     24  C   UNL     1      -7.035   5.536 -36.698  0.00  0.00    +0.000 A 
ENDBRANCH  18  19
ENDBRANCH  17  18
ENDBRANCH  15  17
ENDBRANCH   4  16
TORSDOF 5
ENDMDL
MODEL 7
REMARK VINA RESULT:      -4.8     21.114     23.598
REMARK  Name = 142505469
REMARK  5 active torsions:
REMARK  status: ('A' for Active; 'I' for Inactive)
REMARK    1  A    between atoms: O_2  and  N_5
REMARK    2  A    between atoms: O_2  and  C_19
REMARK    3  A    between atoms: C_6  and  C_11
REMARK    4  A    between atoms: C_7  and  C_9
REMARK    5  A    between atoms: C_18  and  C_19
REMARK                            x       y       z     vdW  Elec       q    Type
REMARK                         _______ _______ _______ _____ _____    ______ ____
ROOT
ATOM      1  S   UNL     1       0.810   7.737 -57.989  0.00  0.00    +0.000 S 
ATOM      2  N   UNL     1      -1.335   7.139 -56.708  0.00  0.00    +0.000 N 
ATOM      3  N   UNL     1      -1.508   6.374 -58.800  0.00  0.00    +0.000 NA
ATOM      4  C   UNL     1      -2.549   6.506 -56.748  0.00  0.00    +0.000 A 
ATOM      5  C   UNL     1      -2.647   6.062 -58.070  0.00  0.00    +0.000 A 
ATOM      6  C   UNL     1      -0.771   7.021 -57.943  0.00  0.00    +0.000 A 
ATOM      7  C   UNL     1      -0.552   7.777 -55.767  0.00  0.00    +0.000 A 
ATOM      8  C   UNL     1       0.628   8.163 -56.279  0.00  0.00    +0.000 A 
ENDROOT
BRANCH   5   9
ATOM      9  C   UNL     1      -3.763   5.325 -58.652  0.00  0.00    +0.000 A 
ATOM     10  C   UNL     1      -4.650   5.986 -59.510  0.00  0.00    +0.000 A 
ATOM     11  C   UNL     1      -3.968   3.960 -58.395  0.00  0.00    +0.000 A 
ATOM     12  C   UNL     1      -5.679   5.285 -60.147  0.00  0.00    +0.000 A 
ATOM     13  C   UNL     1      -4.980   3.256 -59.047  0.00  0.00    +0.000 A 
ATOM     14  C   UNL     1      -5.829   3.916 -59.931  0.00  0.00    +0.000 A 
ENDBRANCH   5   9
BRANCH   4  16
ATOM     15  N   UNL     1      -3.570   5.193 -55.057  0.00  0.00    +0.000 NA
ATOM     16  C   UNL     1      -3.450   6.336 -55.650  0.00  0.00    +0.000 C 
BRANCH  15  17
ATOM     17  O   UNL     1      -4.461   5.344 -53.978  0.00  0.00    +0.000 OA
BRANCH  17  18
ATOM     18  C   UNL     1      -5.543   4.423 -54.144  0.00  0.00    +0.000 C 
BRANCH  18  19
ATOM     19  C   UNL     1      -5.319   3.154 -53.359  0.00  0.00    +0.000 A 
ATOM     20  C   UNL     1      -6.032   1.994 -53.705  0.00  0.00    +0.000 A 
ATOM     21  C   UNL     1      -4.484   3.117 -52.234  0.00  0.00    +0.000 A 
ATOM     22  C   UNL     1      -5.908   0.828 -52.949  0.00  0.00    +0.000 A 
ATOM     23  C   UNL     1      -4.357   1.948 -51.480  0.00  0.00    +0.000 A 
ATOM     24  C   UNL     1      -5.072   0.806 -51.835  0.00  0.00    +0.000 A 
ENDBRANCH  18  19
ENDBRANCH  17  18
ENDBRANCH  15  17
ENDBRANCH   4  16
TORSDOF 5
ENDMDL
MODEL 8
REMARK VINA RESULT:      -4.7     16.822     18.817
REMARK  Name = 142505469
REMARK  5 active torsions:
REMARK  status: ('A' for Active; 'I' for Inactive)
REMARK    1  A    between atoms: O_2  and  N_5
REMARK    2  A    between atoms: O_2  and  C_19
REMARK    3  A    between atoms: C_6  and  C_11
REMARK    4  A    between atoms: C_7  and  C_9
REMARK    5  A    between atoms: C_18  and  C_19
REMARK                            x       y       z     vdW  Elec       q    Type
REMARK                         _______ _______ _______ _____ _____    ______ ____
ROOT
ATOM      1  S   UNL     1     -21.061  14.834 -45.018  0.00  0.00    +0.000 S 
ATOM      2  N   UNL     1     -19.223  15.317 -46.746  0.00  0.00    +0.000 N 
ATOM      3  N   UNL     1     -18.307  15.293 -44.708  0.00  0.00    +0.000 NA
ATOM      4  C   UNL     1     -17.888  15.534 -46.961  0.00  0.00    +0.000 A 
ATOM      5  C   UNL     1     -17.342  15.543 -45.675  0.00  0.00    +0.000 A 
ATOM      6  C   UNL     1     -19.403  15.178 -45.403  0.00  0.00    +0.000 A 
ATOM      7  C   UNL     1     -20.361  15.148 -47.509  0.00  0.00    +0.000 A 
ATOM      8  C   UNL     1     -21.436  14.884 -46.749  0.00  0.00    +0.000 A 
ENDROOT
BRANCH   5   9
ATOM      9  C   UNL     1     -15.938  15.744 -45.333  0.00  0.00    +0.000 A 
ATOM     10  C   UNL     1     -15.592  16.728 -44.400  0.00  0.00    +0.000 A 
ATOM     11  C   UNL     1     -14.916  14.965 -45.899  0.00  0.00    +0.000 A 
ATOM     12  C   UNL     1     -14.264  16.887 -43.993  0.00  0.00    +0.000 A 
ATOM     13  C   UNL     1     -13.594  15.109 -45.477  0.00  0.00    +0.000 A 
ATOM     14  C   UNL     1     -13.270  16.062 -44.516  0.00  0.00    +0.000 A 
ENDBRANCH   5   9
BRANCH   4  16
ATOM     15  N   UNL     1     -17.181  16.820 -48.825  0.00  0.00    +0.000 NA
ATOM     16  C   UNL     1     -17.248  15.672 -48.234  0.00  0.00    +0.000 C 
BRANCH  15  17
ATOM     17  O   UNL     1     -16.437  16.666 -50.010  0.00  0.00    +0.000 OA
BRANCH  17  18
ATOM     18  C   UNL     1     -15.507  17.749 -50.111  0.00  0.00    +0.000 C 
BRANCH  18  19
ATOM     19  C   UNL     1     -14.306  17.535 -49.223  0.00  0.00    +0.000 A 
ATOM     20  C   UNL     1     -14.022  18.468 -48.212  0.00  0.00    +0.000 A 
ATOM     21  C   UNL     1     -13.410  16.478 -49.431  0.00  0.00    +0.000 A 
ATOM     22  C   UNL     1     -12.874  18.342 -47.427  0.00  0.00    +0.000 A 
ATOM     23  C   UNL     1     -12.264  16.350 -48.643  0.00  0.00    +0.000 A 
ATOM     24  C   UNL     1     -11.995  17.284 -47.645  0.00  0.00    +0.000 A 
ENDBRANCH  18  19
ENDBRANCH  17  18
ENDBRANCH  15  17
ENDBRANCH   4  16
TORSDOF 5
ENDMDL
MODEL 9
REMARK VINA RESULT:      -4.7     16.764     18.233
REMARK  Name = 142505469
REMARK  5 active torsions:
REMARK  status: ('A' for Active; 'I' for Inactive)
REMARK    1  A    between atoms: O_2  and  N_5
REMARK    2  A    between atoms: O_2  and  C_19
REMARK    3  A    between atoms: C_6  and  C_11
REMARK    4  A    between atoms: C_7  and  C_9
REMARK    5  A    between atoms: C_18  and  C_19
REMARK                            x       y       z     vdW  Elec       q    Type
REMARK                         _______ _______ _______ _____ _____    ______ ____
ROOT
ATOM      1  S   UNL     1      -9.442  17.788 -43.688  0.00  0.00    +0.000 S 
ATOM      2  N   UNL     1     -11.964  18.267 -43.605  0.00  0.00    +0.000 N 
ATOM      3  N   UNL     1     -11.587  16.648 -45.098  0.00  0.00    +0.000 NA
ATOM      4  C   UNL     1     -13.207  17.922 -44.066  0.00  0.00    +0.000 A 
ATOM      5  C   UNL     1     -12.944  16.931 -45.016  0.00  0.00    +0.000 A 
ATOM      6  C   UNL     1     -11.056  17.478 -44.246  0.00  0.00    +0.000 A 
ATOM      7  C   UNL     1     -11.432  19.121 -42.660  0.00  0.00    +0.000 A 
ATOM      8  C   UNL     1     -10.097  18.998 -42.572  0.00  0.00    +0.000 A 
ENDROOT
BRANCH   5   9
ATOM      9  C   UNL     1     -13.933  16.221 -45.820  0.00  0.00    +0.000 A 
ATOM     10  C   UNL     1     -14.788  15.300 -45.202  0.00  0.00    +0.000 A 
ATOM     11  C   UNL     1     -14.069  16.445 -47.199  0.00  0.00    +0.000 A 
ATOM     12  C   UNL     1     -15.798  14.668 -45.932  0.00  0.00    +0.000 A 
ATOM     13  C   UNL     1     -15.091  15.830 -47.923  0.00  0.00    +0.000 A 
ATOM     14  C   UNL     1     -15.962  14.950 -47.288  0.00  0.00    +0.000 A 
ENDBRANCH   5   9
BRANCH   4  16
ATOM     15  N   UNL     1     -15.121  17.890 -42.664  0.00  0.00    +0.000 NA
ATOM     16  C   UNL     1     -14.454  18.458 -43.616  0.00  0.00    +0.000 C 
BRANCH  15  17
ATOM     17  O   UNL     1     -16.255  18.674 -42.387  0.00  0.00    +0.000 OA
BRANCH  17  18
ATOM     18  C   UNL     1     -17.310  17.815 -41.945  0.00  0.00    +0.000 C 
BRANCH  18  19
ATOM     19  C   UNL     1     -17.991  17.127 -43.104  0.00  0.00    +0.000 A 
ATOM     20  C   UNL     1     -18.357  15.777 -42.985  0.00  0.00    +0.000 A 
ATOM     21  C   UNL     1     -18.191  17.772 -44.332  0.00  0.00    +0.000 A 
ATOM     22  C   UNL     1     -18.914  15.091 -44.066  0.00  0.00    +0.000 A 
ATOM     23  C   UNL     1     -18.753  17.086 -45.412  0.00  0.00    +0.000 A 
ATOM     24  C   UNL     1     -19.109  15.746 -45.280  0.00  0.00    +0.000 A 
ENDBRANCH  18  19
ENDBRANCH  17  18
ENDBRANCH  15  17
ENDBRANCH   4  16
TORSDOF 5
ENDMDL
MODEL 10
REMARK VINA RESULT:      -4.7     22.104     24.469
REMARK  Name = 142505469
REMARK  5 active torsions:
REMARK  status: ('A' for Active; 'I' for Inactive)
REMARK    1  A    between atoms: O_2  and  N_5
REMARK    2  A    between atoms: O_2  and  C_19
REMARK    3  A    between atoms: C_6  and  C_11
REMARK    4  A    between atoms: C_7  and  C_9
REMARK    5  A    between atoms: C_18  and  C_19
REMARK                            x       y       z     vdW  Elec       q    Type
REMARK                         _______ _______ _______ _____ _____    ______ ____
ROOT
ATOM      1  S   UNL     1     -23.665   2.999 -58.609  0.00  0.00    +0.000 S 
ATOM      2  N   UNL     1     -23.171   4.685 -56.736  0.00  0.00    +0.000 N 
ATOM      3  N   UNL     1     -21.756   5.051 -58.426  0.00  0.00    +0.000 NA
ATOM      4  C   UNL     1     -22.421   5.760 -56.336  0.00  0.00    +0.000 A 
ATOM      5  C   UNL     1     -21.528   5.951 -57.394  0.00  0.00    +0.000 A 
ATOM      6  C   UNL     1     -22.735   4.320 -57.974  0.00  0.00    +0.000 A 
ATOM      7  C   UNL     1     -24.242   3.958 -56.255  0.00  0.00    +0.000 A 
ATOM      8  C   UNL     1     -24.635   3.015 -57.127  0.00  0.00    +0.000 A 
ENDROOT
BRANCH   5   9
ATOM      9  C   UNL     1     -20.493   6.976 -57.475  0.00  0.00    +0.000 A 
ATOM     10  C   UNL     1     -20.791   8.209 -58.066  0.00  0.00    +0.000 A 
ATOM     11  C   UNL     1     -19.203   6.772 -56.960  0.00  0.00    +0.000 A 
ATOM     12  C   UNL     1     -19.844   9.237 -58.083  0.00  0.00    +0.000 A 
ATOM     13  C   UNL     1     -18.264   7.804 -56.958  0.00  0.00    +0.000 A 
ATOM     14  C   UNL     1     -18.588   9.040 -57.509  0.00  0.00    +0.000 A 
ENDBRANCH   5   9
BRANCH   4  16
ATOM     15  N   UNL     1     -22.922   7.748 -55.143  0.00  0.00    +0.000 NA
ATOM     16  C   UNL     1     -22.585   6.500 -55.123  0.00  0.00    +0.000 C 
BRANCH  15  17
ATOM     17  O   UNL     1     -23.080   8.187 -53.815  0.00  0.00    +0.000 OA
BRANCH  17  18
ATOM     18  C   UNL     1     -22.939   7.063 -52.942  0.00  0.00    +0.000 C 
BRANCH  18  19
ATOM     19  C   UNL     1     -23.247   7.430 -51.510  0.00  0.00    +0.000 A 
ATOM     20  C   UNL     1     -23.674   8.733 -51.209  0.00  0.00    +0.000 A 
ATOM     21  C   UNL     1     -23.035   6.532 -50.455  0.00  0.00    +0.000 A 
ATOM     22  C   UNL     1     -23.889   9.126 -49.886  0.00  0.00    +0.000 A 
ATOM     23  C   UNL     1     -23.254   6.924 -49.132  0.00  0.00    +0.000 A 
ATOM     24  C   UNL     1     -23.676   8.221 -48.848  0.00  0.00    +0.000 A 
ENDBRANCH  18  19
ENDBRANCH  17  18
ENDBRANCH  15  17
ENDBRANCH   4  16
TORSDOF 5
ENDMDL
