REMARK  Name = 142505400
REMARK  6 active torsions:
REMARK  status: ('A' for Active; 'I' for Inactive)
REMARK    1  A    between atoms: O_4  and  N_7
REMARK    2  A    between atoms: O_4  and  C_17
REMARK    3  A    between atoms: C_8  and  C_13
REMARK    4  A    between atoms: C_9  and  C_10
REMARK    5  A    between atoms: C_10  and  C_14
REMARK    6  A    between atoms: C_16  and  C_17
REMARK                            x       y       z     vdW  Elec       q    Type
REMARK                         _______ _______ _______ _____ _____    ______ ____
ROOT
ATOM      1  N   UNL     1      -4.153   1.291  -2.415  0.00  0.00    +0.000 NA
ATOM      2  C   UNL     1      -4.792   0.878  -3.461  0.00  0.00    +0.000 C 
ENDROOT
BRANCH   2   6
ATOM      3  S   UNL     1      -1.338   2.241  -6.917  0.00  0.00    +0.000 S 
ATOM      4  N   UNL     1      -3.005   1.603  -5.067  0.00  0.00    +0.000 N 
ATOM      5  N   UNL     1      -3.895   1.092  -7.051  0.00  0.00    +0.000 NA
ATOM      6  C   UNL     1      -4.233   1.062  -4.771  0.00  0.00    +0.000 A 
ATOM      7  C   UNL     1      -4.770   0.759  -6.027  0.00  0.00    +0.000 A 
ATOM      8  C   UNL     1      -2.868   1.584  -6.422  0.00  0.00    +0.000 A 
ATOM      9  C   UNL     1      -1.930   2.131  -4.382  0.00  0.00    +0.000 A 
ATOM     10  C   UNL     1      -0.949   2.522  -5.213  0.00  0.00    +0.000 A 
BRANCH   7  11
ATOM     11  C   UNL     1      -6.091   0.162  -6.378  0.00  0.00    +0.000 C 
ATOM     12  C   UNL     1      -7.165   1.220  -6.582  0.00  0.00    +0.000 C 
ENDBRANCH   7  11
ENDBRANCH   2   6
BRANCH   1  13
ATOM     13  O   UNL     1      -4.898   1.015  -1.254  0.00  0.00    +0.000 OA
BRANCH  13  14
ATOM     14  C   UNL     1      -4.489   1.945  -0.243  0.00  0.00    +0.000 C 
BRANCH  14  17
ATOM     15 CL   UNL     1      -6.196   3.791   4.294  0.00  0.00    +0.000 Cl
ATOM     16 CL   UNL     1      -6.707   0.725   5.255  0.00  0.00    +0.000 Cl
ATOM     17  C   UNL     1      -5.097   1.634   1.104  0.00  0.00    +0.000 A 
ATOM     18  C   UNL     1      -5.378   2.686   1.992  0.00  0.00    +0.000 A 
ATOM     19  C   UNL     1      -5.310   0.316   1.533  0.00  0.00    +0.000 A 
ATOM     20  C   UNL     1      -5.881   2.432   3.274  0.00  0.00    +0.000 A 
ATOM     21  C   UNL     1      -5.816   0.061   2.815  0.00  0.00    +0.000 A 
ATOM     22  C   UNL     1      -6.101   1.116   3.685  0.00  0.00    +0.000 A 
ENDBRANCH  14  17
ENDBRANCH  13  14
ENDBRANCH   1  13
TORSDOF 5
