MODEL 1
REMARK VINA RESULT:      -5.0      0.000      0.000
REMARK  Name = 142505500
REMARK  6 active torsions:
REMARK  status: ('A' for Active; 'I' for Inactive)
REMARK    1  A    between atoms: O_7  and  N_10
REMARK    2  A    between atoms: O_7  and  C_25
REMARK    3  A    between atoms: C_11  and  C_13
REMARK    4  A    between atoms: C_12  and  C_18
REMARK    5  A    between atoms: C_19  and  C_23
REMARK    6  A    between atoms: C_24  and  C_25
REMARK                            x       y       z     vdW  Elec       q    Type
REMARK                         _______ _______ _______ _____ _____    ______ ____
ROOT
ATOM      1  S   UNL     1     -26.403   6.099 -50.777  0.00  0.00    +0.000 S 
ATOM      2  N   UNL     1     -25.917   7.536 -52.845  0.00  0.00    +0.000 N 
ATOM      3  N   UNL     1     -24.212   6.131 -52.530  0.00  0.00    +0.000 NA
ATOM      4  C   UNL     1     -23.975   6.949 -53.633  0.00  0.00    +0.000 A 
ATOM      5  C   UNL     1     -25.027   7.851 -53.839  0.00  0.00    +0.000 A 
ATOM      6  C   UNL     1     -25.379   6.527 -52.111  0.00  0.00    +0.000 A 
ATOM      7  C   UNL     1     -27.131   8.013 -52.391  0.00  0.00    +0.000 A 
ATOM      8  C   UNL     1     -27.539   7.357 -51.292  0.00  0.00    +0.000 A 
ENDROOT
BRANCH   4   9
ATOM      9  C   UNL     1     -22.742   6.841 -54.410  0.00  0.00    +0.000 A 
ATOM     10  C   UNL     1     -22.530   5.806 -55.330  0.00  0.00    +0.000 A 
ATOM     11  C   UNL     1     -21.730   7.793 -54.235  0.00  0.00    +0.000 A 
ATOM     12  C   UNL     1     -20.368   6.723 -55.947  0.00  0.00    +0.000 A 
ATOM     13  C   UNL     1     -21.371   5.761 -56.109  0.00  0.00    +0.000 A 
ATOM     14  C   UNL     1     -20.554   7.736 -54.995  0.00  0.00    +0.000 A 
BRANCH  12  18
ATOM     15  F   UNL     1     -18.354   5.553 -56.537  0.00  0.00    +0.000 F 
ATOM     16  F   UNL     1     -19.346   6.679 -58.108  0.00  0.00    +0.000 F 
ATOM     17  F   UNL     1     -18.279   7.725 -56.528  0.00  0.00    +0.000 F 
ATOM     18  C   UNL     1     -19.103   6.668 -56.767  0.00  0.00    +0.000 C 
ENDBRANCH  12  18
ENDBRANCH   4   9
BRANCH   5  20
ATOM     19  N   UNL     1     -24.463   9.980 -54.645  0.00  0.00    +0.000 NA
ATOM     20  C   UNL     1     -25.200   8.928 -54.766  0.00  0.00    +0.000 C 
BRANCH  19  21
ATOM     21  O   UNL     1     -24.757  10.913 -55.641  0.00  0.00    +0.000 OA
BRANCH  21  22
ATOM     22  C   UNL     1     -24.431  10.295 -56.891  0.00  0.00    +0.000 C 
BRANCH  22  25
ATOM     23 CL   UNL     1     -19.855  12.681 -56.124  0.00  0.00    +0.000 Cl
ATOM     24 CL   UNL     1     -18.497  10.388 -57.993  0.00  0.00    +0.000 Cl
ATOM     25  C   UNL     1     -22.967  10.426 -57.231  0.00  0.00    +0.000 A 
ATOM     26  C   UNL     1     -22.159  11.416 -56.652  0.00  0.00    +0.000 A 
ATOM     27  C   UNL     1     -22.376   9.470 -58.068  0.00  0.00    +0.000 A 
ATOM     28  C   UNL     1     -20.781  11.437 -56.889  0.00  0.00    +0.000 A 
ATOM     29  C   UNL     1     -21.001   9.489 -58.304  0.00  0.00    +0.000 A 
ATOM     30  C   UNL     1     -20.198  10.462 -57.705  0.00  0.00    +0.000 A 
ENDBRANCH  22  25
ENDBRANCH  21  22
ENDBRANCH  19  21
ENDBRANCH   5  20
TORSDOF 6
ENDMDL
MODEL 2
REMARK VINA RESULT:      -5.0      5.261      7.482
REMARK  Name = 142505500
REMARK  6 active torsions:
REMARK  status: ('A' for Active; 'I' for Inactive)
REMARK    1  A    between atoms: O_7  and  N_10
REMARK    2  A    between atoms: O_7  and  C_25
REMARK    3  A    between atoms: C_11  and  C_13
REMARK    4  A    between atoms: C_12  and  C_18
REMARK    5  A    between atoms: C_19  and  C_23
REMARK    6  A    between atoms: C_24  and  C_25
REMARK                            x       y       z     vdW  Elec       q    Type
REMARK                         _______ _______ _______ _____ _____    ______ ____
ROOT
ATOM      1  S   UNL     1     -24.086  12.551 -52.665  0.00  0.00    +0.000 S 
ATOM      2  N   UNL     1     -23.735  10.218 -51.658  0.00  0.00    +0.000 N 
ATOM      3  N   UNL     1     -23.272  10.135 -53.839  0.00  0.00    +0.000 NA
ATOM      4  C   UNL     1     -23.117   8.879 -53.258  0.00  0.00    +0.000 A 
ATOM      5  C   UNL     1     -23.420   8.905 -51.891  0.00  0.00    +0.000 A 
ATOM      6  C   UNL     1     -23.635  10.884 -52.839  0.00  0.00    +0.000 A 
ATOM      7  C   UNL     1     -24.172  10.976 -50.589  0.00  0.00    +0.000 A 
ATOM      8  C   UNL     1     -24.407  12.248 -50.949  0.00  0.00    +0.000 A 
ENDROOT
BRANCH   4   9
ATOM      9  C   UNL     1     -22.718   7.718 -54.050  0.00  0.00    +0.000 A 
ATOM     10  C   UNL     1     -23.579   6.636 -54.272  0.00  0.00    +0.000 A 
ATOM     11  C   UNL     1     -21.433   7.670 -54.607  0.00  0.00    +0.000 A 
ATOM     12  C   UNL     1     -21.921   5.529 -55.659  0.00  0.00    +0.000 A 
ATOM     13  C   UNL     1     -23.197   5.566 -55.088  0.00  0.00    +0.000 A 
ATOM     14  C   UNL     1     -21.037   6.588 -55.402  0.00  0.00    +0.000 A 
BRANCH  12  18
ATOM     15  F   UNL     1     -21.625   4.604 -57.857  0.00  0.00    +0.000 F 
ATOM     16  F   UNL     1     -20.186   4.028 -56.334  0.00  0.00    +0.000 F 
ATOM     17  F   UNL     1     -22.211   3.238 -56.271  0.00  0.00    +0.000 F 
ATOM     18  C   UNL     1     -21.492   4.367 -56.521  0.00  0.00    +0.000 C 
ENDBRANCH  12  18
ENDBRANCH   4   9
BRANCH   5  20
ATOM     19  N   UNL     1     -22.612   7.835 -49.966  0.00  0.00    +0.000 NA
ATOM     20  C   UNL     1     -23.496   7.869 -50.905  0.00  0.00    +0.000 C 
BRANCH  19  21
ATOM     21  O   UNL     1     -22.854   6.774 -49.091  0.00  0.00    +0.000 OA
BRANCH  21  22
ATOM     22  C   UNL     1     -24.144   7.004 -48.515  0.00  0.00    +0.000 C 
BRANCH  22  25
ATOM     23 CL   UNL     1     -24.676  11.673 -46.248  0.00  0.00    +0.000 Cl
ATOM     24 CL   UNL     1     -24.289  10.179 -43.382  0.00  0.00    +0.000 Cl
ATOM     25  C   UNL     1     -24.073   7.854 -47.270  0.00  0.00    +0.000 A 
ATOM     26  C   UNL     1     -24.312   9.235 -47.304  0.00  0.00    +0.000 A 
ATOM     27  C   UNL     1     -23.866   7.230 -46.032  0.00  0.00    +0.000 A 
ATOM     28  C   UNL     1     -24.362   9.977 -46.119  0.00  0.00    +0.000 A 
ATOM     29  C   UNL     1     -23.918   7.968 -44.850  0.00  0.00    +0.000 A 
ATOM     30  C   UNL     1     -24.179   9.339 -44.888  0.00  0.00    +0.000 A 
ENDBRANCH  22  25
ENDBRANCH  21  22
ENDBRANCH  19  21
ENDBRANCH   5  20
TORSDOF 6
ENDMDL
MODEL 3
REMARK VINA RESULT:      -5.0     22.380     23.891
REMARK  Name = 142505500
REMARK  6 active torsions:
REMARK  status: ('A' for Active; 'I' for Inactive)
REMARK    1  A    between atoms: O_7  and  N_10
REMARK    2  A    between atoms: O_7  and  C_25
REMARK    3  A    between atoms: C_11  and  C_13
REMARK    4  A    between atoms: C_12  and  C_18
REMARK    5  A    between atoms: C_19  and  C_23
REMARK    6  A    between atoms: C_24  and  C_25
REMARK                            x       y       z     vdW  Elec       q    Type
REMARK                         _______ _______ _______ _____ _____    ______ ____
ROOT
ATOM      1  S   UNL     1     -10.155  10.430 -31.053  0.00  0.00    +0.000 S 
ATOM      2  N   UNL     1     -11.432   9.199 -32.906  0.00  0.00    +0.000 N 
ATOM      3  N   UNL     1      -9.307   8.520 -32.925  0.00  0.00    +0.000 NA
ATOM      4  C   UNL     1     -10.031   7.891 -33.936  0.00  0.00    +0.000 A 
ATOM      5  C   UNL     1     -11.365   8.316 -33.953  0.00  0.00    +0.000 A 
ATOM      6  C   UNL     1     -10.194   9.278 -32.350  0.00  0.00    +0.000 A 
ATOM      7  C   UNL     1     -12.382  10.034 -32.351  0.00  0.00    +0.000 A 
ATOM      8  C   UNL     1     -11.870  10.765 -31.347  0.00  0.00    +0.000 A 
ENDROOT
BRANCH   4   9
ATOM      9  C   UNL     1      -9.398   6.941 -34.847  0.00  0.00    +0.000 A 
ATOM     10  C   UNL     1      -8.422   7.334 -35.773  0.00  0.00    +0.000 A 
ATOM     11  C   UNL     1      -9.771   5.591 -34.808  0.00  0.00    +0.000 A 
ATOM     12  C   UNL     1      -8.145   5.045 -36.536  0.00  0.00    +0.000 A 
ATOM     13  C   UNL     1      -7.783   6.395 -36.589  0.00  0.00    +0.000 A 
ATOM     14  C   UNL     1      -9.153   4.652 -35.644  0.00  0.00    +0.000 A 
BRANCH  12  18
ATOM     15  F   UNL     1      -6.412   4.529 -38.119  0.00  0.00    +0.000 F 
ATOM     16  F   UNL     1      -6.998   2.957 -36.739  0.00  0.00    +0.000 F 
ATOM     17  F   UNL     1      -8.323   3.523 -38.369  0.00  0.00    +0.000 F 
ATOM     18  C   UNL     1      -7.477   4.030 -37.430  0.00  0.00    +0.000 C 
ENDBRANCH  12  18
ENDBRANCH   4   9
BRANCH   5  20
ATOM     19  N   UNL     1     -13.294   7.111 -34.523  0.00  0.00    +0.000 NA
ATOM     20  C   UNL     1     -12.451   8.034 -34.841  0.00  0.00    +0.000 C 
BRANCH  19  21
ATOM     21  O   UNL     1     -14.291   6.988 -35.493  0.00  0.00    +0.000 OA
BRANCH  21  22
ATOM     22  C   UNL     1     -15.059   8.195 -35.449  0.00  0.00    +0.000 C 
BRANCH  22  25
ATOM     23 CL   UNL     1     -18.180   6.142 -31.807  0.00  0.00    +0.000 Cl
ATOM     24 CL   UNL     1     -20.638   7.775 -33.181  0.00  0.00    +0.000 Cl
ATOM     25  C   UNL     1     -16.453   7.968 -34.917  0.00  0.00    +0.000 A 
ATOM     26  C   UNL     1     -16.690   7.195 -33.771  0.00  0.00    +0.000 A 
ATOM     27  C   UNL     1     -17.528   8.632 -35.524  0.00  0.00    +0.000 A 
ATOM     28  C   UNL     1     -17.977   7.103 -33.230  0.00  0.00    +0.000 A 
ATOM     29  C   UNL     1     -18.811   8.543 -34.984  0.00  0.00    +0.000 A 
ATOM     30  C   UNL     1     -19.037   7.791 -33.829  0.00  0.00    +0.000 A 
ENDBRANCH  22  25
ENDBRANCH  21  22
ENDBRANCH  19  21
ENDBRANCH   5  20
TORSDOF 6
ENDMDL
MODEL 4
REMARK VINA RESULT:      -5.0     14.373     16.070
REMARK  Name = 142505500
REMARK  6 active torsions:
REMARK  status: ('A' for Active; 'I' for Inactive)
REMARK    1  A    between atoms: O_7  and  N_10
REMARK    2  A    between atoms: O_7  and  C_25
REMARK    3  A    between atoms: C_11  and  C_13
REMARK    4  A    between atoms: C_12  and  C_18
REMARK    5  A    between atoms: C_19  and  C_23
REMARK    6  A    between atoms: C_24  and  C_25
REMARK                            x       y       z     vdW  Elec       q    Type
REMARK                         _______ _______ _______ _____ _____    ______ ____
ROOT
ATOM      1  S   UNL     1      -8.493  17.832 -43.404  0.00  0.00    +0.000 S 
ATOM      2  N   UNL     1      -9.969  17.598 -45.489  0.00  0.00    +0.000 N 
ATOM      3  N   UNL     1     -11.219  17.221 -43.679  0.00  0.00    +0.000 NA
ATOM      4  C   UNL     1     -11.980  17.079 -44.837  0.00  0.00    +0.000 A 
ATOM      5  C   UNL     1     -11.210  17.295 -45.987  0.00  0.00    +0.000 A 
ATOM      6  C   UNL     1     -10.039  17.532 -44.133  0.00  0.00    +0.000 A 
ATOM      7  C   UNL     1      -8.717  17.872 -46.002  0.00  0.00    +0.000 A 
ATOM      8  C   UNL     1      -7.807  18.026 -45.026  0.00  0.00    +0.000 A 
ENDROOT
BRANCH   4   9
ATOM      9  C   UNL     1     -13.393  16.716 -44.779  0.00  0.00    +0.000 A 
ATOM     10  C   UNL     1     -14.388  17.645 -44.447  0.00  0.00    +0.000 A 
ATOM     11  C   UNL     1     -13.781  15.399 -45.057  0.00  0.00    +0.000 A 
ATOM     12  C   UNL     1     -16.127  15.979 -44.758  0.00  0.00    +0.000 A 
ATOM     13  C   UNL     1     -15.740  17.290 -44.462  0.00  0.00    +0.000 A 
ATOM     14  C   UNL     1     -15.133  15.032 -45.046  0.00  0.00    +0.000 A 
BRANCH  12  18
ATOM     15  F   UNL     1     -17.798  14.301 -45.166  0.00  0.00    +0.000 F 
ATOM     16  F   UNL     1     -18.146  15.670 -43.516  0.00  0.00    +0.000 F 
ATOM     17  F   UNL     1     -18.341  16.367 -45.566  0.00  0.00    +0.000 F 
ATOM     18  C   UNL     1     -17.582  15.582 -44.753  0.00  0.00    +0.000 C 
ENDBRANCH  12  18
ENDBRANCH   4   9
BRANCH   5  20
ATOM     19  N   UNL     1     -12.500  17.849 -47.865  0.00  0.00    +0.000 NA
ATOM     20  C   UNL     1     -11.512  17.175 -47.381  0.00  0.00    +0.000 C 
BRANCH  19  21
ATOM     21  O   UNL     1     -12.634  17.622 -49.237  0.00  0.00    +0.000 OA
BRANCH  21  22
ATOM     22  C   UNL     1     -13.010  16.250 -49.392  0.00  0.00    +0.000 C 
BRANCH  22  25
ATOM     23 CL   UNL     1     -17.252  16.221 -52.430  0.00  0.00    +0.000 Cl
ATOM     24 CL   UNL     1     -18.908  15.058 -49.880  0.00  0.00    +0.000 Cl
ATOM     25  C   UNL     1     -14.503  16.077 -49.529  0.00  0.00    +0.000 A 
ATOM     26  C   UNL     1     -15.160  16.264 -50.754  0.00  0.00    +0.000 A 
ATOM     27  C   UNL     1     -15.237  15.616 -48.428  0.00  0.00    +0.000 A 
ATOM     28  C   UNL     1     -16.523  15.977 -50.881  0.00  0.00    +0.000 A 
ATOM     29  C   UNL     1     -16.596  15.327 -48.554  0.00  0.00    +0.000 A 
ATOM     30  C   UNL     1     -17.239  15.493 -49.782  0.00  0.00    +0.000 A 
ENDBRANCH  22  25
ENDBRANCH  21  22
ENDBRANCH  19  21
ENDBRANCH   5  20
TORSDOF 6
ENDMDL
MODEL 5
REMARK VINA RESULT:      -4.9     21.635     23.277
REMARK  Name = 142505500
REMARK  6 active torsions:
REMARK  status: ('A' for Active; 'I' for Inactive)
REMARK    1  A    between atoms: O_7  and  N_10
REMARK    2  A    between atoms: O_7  and  C_25
REMARK    3  A    between atoms: C_11  and  C_13
REMARK    4  A    between atoms: C_12  and  C_18
REMARK    5  A    between atoms: C_19  and  C_23
REMARK    6  A    between atoms: C_24  and  C_25
REMARK                            x       y       z     vdW  Elec       q    Type
REMARK                         _______ _______ _______ _____ _____    ______ ____
ROOT
ATOM      1  S   UNL     1     -11.663  12.216 -31.696  0.00  0.00    +0.000 S 
ATOM      2  N   UNL     1     -13.256  10.313 -32.347  0.00  0.00    +0.000 N 
ATOM      3  N   UNL     1     -11.242   9.894 -33.214  0.00  0.00    +0.000 NA
ATOM      4  C   UNL     1     -12.146   8.893 -33.567  0.00  0.00    +0.000 A 
ATOM      5  C   UNL     1     -13.421   9.146 -33.047  0.00  0.00    +0.000 A 
ATOM      6  C   UNL     1     -11.961  10.702 -32.490  0.00  0.00    +0.000 A 
ATOM      7  C   UNL     1     -14.055  11.180 -31.629  0.00  0.00    +0.000 A 
ATOM      8  C   UNL     1     -13.365  12.252 -31.205  0.00  0.00    +0.000 A 
ENDROOT
BRANCH   4   9
ATOM      9  C   UNL     1     -11.744   7.767 -34.406  0.00  0.00    +0.000 A 
ATOM     10  C   UNL     1     -11.270   6.566 -33.863  0.00  0.00    +0.000 A 
ATOM     11  C   UNL     1     -11.826   7.880 -35.800  0.00  0.00    +0.000 A 
ATOM     12  C   UNL     1     -11.054   5.587 -36.075  0.00  0.00    +0.000 A 
ATOM     13  C   UNL     1     -10.954   5.479 -34.684  0.00  0.00    +0.000 A 
ATOM     14  C   UNL     1     -11.484   6.802 -36.627  0.00  0.00    +0.000 A 
BRANCH  12  18
ATOM     15  F   UNL     1     -11.365   4.423 -38.154  0.00  0.00    +0.000 F 
ATOM     16  F   UNL     1      -9.370   4.408 -37.296  0.00  0.00    +0.000 F 
ATOM     17  F   UNL     1     -10.952   3.221 -36.391  0.00  0.00    +0.000 F 
ATOM     18  C   UNL     1     -10.692   4.426 -36.969  0.00  0.00    +0.000 C 
ENDBRANCH  12  18
ENDBRANCH   4   9
BRANCH   5  20
ATOM     19  N   UNL     1     -15.252   8.498 -34.360  0.00  0.00    +0.000 NA
ATOM     20  C   UNL     1     -14.674   8.473 -33.207  0.00  0.00    +0.000 C 
BRANCH  19  21
ATOM     21  O   UNL     1     -16.448   7.777 -34.335  0.00  0.00    +0.000 OA
BRANCH  21  22
ATOM     22  C   UNL     1     -17.467   8.652 -34.831  0.00  0.00    +0.000 C 
BRANCH  22  25
ATOM     23 CL   UNL     1     -22.649   9.091 -35.247  0.00  0.00    +0.000 Cl
ATOM     24 CL   UNL     1     -22.895   6.655 -33.102  0.00  0.00    +0.000 Cl
ATOM     25  C   UNL     1     -18.842   8.266 -34.344  0.00  0.00    +0.000 A 
ATOM     26  C   UNL     1     -20.004   8.825 -34.893  0.00  0.00    +0.000 A 
ATOM     27  C   UNL     1     -18.962   7.247 -33.389  0.00  0.00    +0.000 A 
ATOM     28  C   UNL     1     -21.267   8.359 -34.510  0.00  0.00    +0.000 A 
ATOM     29  C   UNL     1     -20.220   6.779 -33.008  0.00  0.00    +0.000 A 
ATOM     30  C   UNL     1     -21.374   7.323 -33.576  0.00  0.00    +0.000 A 
ENDBRANCH  22  25
ENDBRANCH  21  22
ENDBRANCH  19  21
ENDBRANCH   5  20
TORSDOF 6
ENDMDL
MODEL 6
REMARK VINA RESULT:      -4.8      5.050      7.420
REMARK  Name = 142505500
REMARK  6 active torsions:
REMARK  status: ('A' for Active; 'I' for Inactive)
REMARK    1  A    between atoms: O_7  and  N_10
REMARK    2  A    between atoms: O_7  and  C_25
REMARK    3  A    between atoms: C_11  and  C_13
REMARK    4  A    between atoms: C_12  and  C_18
REMARK    5  A    between atoms: C_19  and  C_23
REMARK    6  A    between atoms: C_24  and  C_25
REMARK                            x       y       z     vdW  Elec       q    Type
REMARK                         _______ _______ _______ _____ _____    ______ ____
ROOT
ATOM      1  S   UNL     1     -24.085  12.666 -52.649  0.00  0.00    +0.000 S 
ATOM      2  N   UNL     1     -23.751  10.326 -51.652  0.00  0.00    +0.000 N 
ATOM      3  N   UNL     1     -23.239  10.261 -53.823  0.00  0.00    +0.000 NA
ATOM      4  C   UNL     1     -23.094   9.001 -53.248  0.00  0.00    +0.000 A 
ATOM      5  C   UNL     1     -23.427   9.015 -51.888  0.00  0.00    +0.000 A 
ATOM      6  C   UNL     1     -23.626  11.001 -52.825  0.00  0.00    +0.000 A 
ATOM      7  C   UNL     1     -24.214  11.074 -50.588  0.00  0.00    +0.000 A 
ATOM      8  C   UNL     1     -24.444  12.349 -50.943  0.00  0.00    +0.000 A 
ENDROOT
BRANCH   4   9
ATOM      9  C   UNL     1     -22.673   7.847 -54.040  0.00  0.00    +0.000 A 
ATOM     10  C   UNL     1     -23.498   6.730 -54.225  0.00  0.00    +0.000 A 
ATOM     11  C   UNL     1     -21.405   7.843 -54.634  0.00  0.00    +0.000 A 
ATOM     12  C   UNL     1     -21.840   5.672 -55.649  0.00  0.00    +0.000 A 
ATOM     13  C   UNL     1     -23.099   5.667 -55.041  0.00  0.00    +0.000 A 
ATOM     14  C   UNL     1     -20.991   6.767 -55.430  0.00  0.00    +0.000 A 
BRANCH  12  18
ATOM     15  F   UNL     1     -21.602   4.722 -57.843  0.00  0.00    +0.000 F 
ATOM     16  F   UNL     1     -20.063   4.252 -56.384  0.00  0.00    +0.000 F 
ATOM     17  F   UNL     1     -22.037   3.358 -56.208  0.00  0.00    +0.000 F 
ATOM     18  C   UNL     1     -21.393   4.518 -56.512  0.00  0.00    +0.000 C 
ENDBRANCH  12  18
ENDBRANCH   4   9
BRANCH   5  20
ATOM     19  N   UNL     1     -22.720   7.986 -49.903  0.00  0.00    +0.000 NA
ATOM     20  C   UNL     1     -23.523   7.972 -50.912  0.00  0.00    +0.000 C 
BRANCH  19  21
ATOM     21  O   UNL     1     -22.971   6.908 -49.051  0.00  0.00    +0.000 OA
BRANCH  21  22
ATOM     22  C   UNL     1     -24.386   6.872 -48.839  0.00  0.00    +0.000 C 
BRANCH  22  25
ATOM     23 CL   UNL     1     -25.343   2.419 -51.384  0.00  0.00    +0.000 Cl
ATOM     24 CL   UNL     1     -26.138   1.104 -48.514  0.00  0.00    +0.000 Cl
ATOM     25  C   UNL     1     -24.927   5.463 -48.825  0.00  0.00    +0.000 A 
ATOM     26  C   UNL     1     -24.958   4.671 -49.981  0.00  0.00    +0.000 A 
ATOM     27  C   UNL     1     -25.312   4.896 -47.602  0.00  0.00    +0.000 A 
ATOM     28  C   UNL     1     -25.348   3.329 -49.914  0.00  0.00    +0.000 A 
ATOM     29  C   UNL     1     -25.699   3.558 -47.533  0.00  0.00    +0.000 A 
ATOM     30  C   UNL     1     -25.705   2.767 -48.684  0.00  0.00    +0.000 A 
ENDBRANCH  22  25
ENDBRANCH  21  22
ENDBRANCH  19  21
ENDBRANCH   5  20
TORSDOF 6
ENDMDL
MODEL 7
REMARK VINA RESULT:      -4.8     22.713     23.944
REMARK  Name = 142505500
REMARK  6 active torsions:
REMARK  status: ('A' for Active; 'I' for Inactive)
REMARK    1  A    between atoms: O_7  and  N_10
REMARK    2  A    between atoms: O_7  and  C_25
REMARK    3  A    between atoms: C_11  and  C_13
REMARK    4  A    between atoms: C_12  and  C_18
REMARK    5  A    between atoms: C_19  and  C_23
REMARK    6  A    between atoms: C_24  and  C_25
REMARK                            x       y       z     vdW  Elec       q    Type
REMARK                         _______ _______ _______ _____ _____    ______ ____
ROOT
ATOM      1  S   UNL     1     -15.084   1.400 -32.393  0.00  0.00    +0.000 S 
ATOM      2  N   UNL     1     -14.274   3.676 -33.258  0.00  0.00    +0.000 N 
ATOM      3  N   UNL     1     -12.882   2.092 -33.990  0.00  0.00    +0.000 NA
ATOM      4  C   UNL     1     -12.462   3.350 -34.419  0.00  0.00    +0.000 A 
ATOM      5  C   UNL     1     -13.314   4.361 -33.956  0.00  0.00    +0.000 A 
ATOM      6  C   UNL     1     -13.961   2.354 -33.311  0.00  0.00    +0.000 A 
ATOM      7  C   UNL     1     -15.384   3.989 -32.499  0.00  0.00    +0.000 A 
ATOM      8  C   UNL     1     -15.941   2.890 -31.962  0.00  0.00    +0.000 A 
ENDROOT
BRANCH   4   9
ATOM      9  C   UNL     1     -11.254   3.515 -35.222  0.00  0.00    +0.000 A 
ATOM     10  C   UNL     1     -11.262   4.192 -36.449  0.00  0.00    +0.000 A 
ATOM     11  C   UNL     1     -10.042   2.981 -34.766  0.00  0.00    +0.000 A 
ATOM     12  C   UNL     1      -8.867   3.877 -36.702  0.00  0.00    +0.000 A 
ATOM     13  C   UNL     1     -10.081   4.395 -37.168  0.00  0.00    +0.000 A 
ATOM     14  C   UNL     1      -8.860   3.159 -35.498  0.00  0.00    +0.000 A 
BRANCH  12  18
ATOM     15  F   UNL     1      -6.502   3.502 -36.896  0.00  0.00    +0.000 F 
ATOM     16  F   UNL     1      -7.657   3.536 -38.736  0.00  0.00    +0.000 F 
ATOM     17  F   UNL     1      -7.278   5.385 -37.655  0.00  0.00    +0.000 F 
ATOM     18  C   UNL     1      -7.592   4.071 -37.484  0.00  0.00    +0.000 C 
ENDBRANCH  12  18
ENDBRANCH   4   9
BRANCH   5  20
ATOM     19  N   UNL     1     -13.795   6.369 -35.067  0.00  0.00    +0.000 NA
ATOM     20  C   UNL     1     -13.251   5.788 -34.052  0.00  0.00    +0.000 C 
BRANCH  19  21
ATOM     21  O   UNL     1     -13.651   7.756 -34.984  0.00  0.00    +0.000 OA
BRANCH  21  22
ATOM     22  C   UNL     1     -12.382   8.074 -35.565  0.00  0.00    +0.000 C 
BRANCH  22  25
ATOM     23 CL   UNL     1     -11.608  11.053 -31.352  0.00  0.00    +0.000 Cl
ATOM     24 CL   UNL     1      -8.523  10.016 -31.349  0.00  0.00    +0.000 Cl
ATOM     25  C   UNL     1     -11.428   8.675 -34.562  0.00  0.00    +0.000 A 
ATOM     26  C   UNL     1     -11.866   9.548 -33.556  0.00  0.00    +0.000 A 
ATOM     27  C   UNL     1     -10.086   8.270 -34.574  0.00  0.00    +0.000 A 
ATOM     28  C   UNL     1     -10.984   9.992 -32.566  0.00  0.00    +0.000 A 
ATOM     29  C   UNL     1      -9.205   8.710 -33.586  0.00  0.00    +0.000 A 
ATOM     30  C   UNL     1      -9.653   9.560 -32.572  0.00  0.00    +0.000 A 
ENDBRANCH  22  25
ENDBRANCH  21  22
ENDBRANCH  19  21
ENDBRANCH   5  20
TORSDOF 6
ENDMDL
MODEL 8
REMARK VINA RESULT:      -4.8     19.290     21.800
REMARK  Name = 142505500
REMARK  6 active torsions:
REMARK  status: ('A' for Active; 'I' for Inactive)
REMARK    1  A    between atoms: O_7  and  N_10
REMARK    2  A    between atoms: O_7  and  C_25
REMARK    3  A    between atoms: C_11  and  C_13
REMARK    4  A    between atoms: C_12  and  C_18
REMARK    5  A    between atoms: C_19  and  C_23
REMARK    6  A    between atoms: C_24  and  C_25
REMARK                            x       y       z     vdW  Elec       q    Type
REMARK                         _______ _______ _______ _____ _____    ______ ____
ROOT
ATOM      1  S   UNL     1      -2.475   5.193 -60.747  0.00  0.00    +0.000 S 
ATOM      2  N   UNL     1      -3.169   5.792 -58.351  0.00  0.00    +0.000 N 
ATOM      3  N   UNL     1      -0.977   6.150 -58.575  0.00  0.00    +0.000 NA
ATOM      4  C   UNL     1      -1.391   6.441 -57.277  0.00  0.00    +0.000 A 
ATOM      5  C   UNL     1      -2.761   6.207 -57.109  0.00  0.00    +0.000 A 
ATOM      6  C   UNL     1      -2.077   5.775 -59.161  0.00  0.00    +0.000 A 
ATOM      7  C   UNL     1      -4.340   5.347 -58.931  0.00  0.00    +0.000 A 
ATOM      8  C   UNL     1      -4.151   4.986 -60.211  0.00  0.00    +0.000 A 
ENDROOT
BRANCH   4   9
ATOM      9  C   UNL     1      -0.445   6.898 -56.262  0.00  0.00    +0.000 A 
ATOM     10  C   UNL     1      -0.382   8.236 -55.852  0.00  0.00    +0.000 A 
ATOM     11  C   UNL     1       0.437   5.981 -55.676  0.00  0.00    +0.000 A 
ATOM     12  C   UNL     1       1.353   7.717 -54.234  0.00  0.00    +0.000 A 
ATOM     13  C   UNL     1       0.486   8.638 -54.832  0.00  0.00    +0.000 A 
ATOM     14  C   UNL     1       1.328   6.385 -54.673  0.00  0.00    +0.000 A 
BRANCH  12  18
ATOM     15  F   UNL     1       3.620   8.061 -53.515  0.00  0.00    +0.000 F 
ATOM     16  F   UNL     1       2.118   9.439 -52.762  0.00  0.00    +0.000 F 
ATOM     17  F   UNL     1       2.190   7.396 -52.019  0.00  0.00    +0.000 F 
ATOM     18  C   UNL     1       2.310   8.147 -53.149  0.00  0.00    +0.000 C 
ENDBRANCH  12  18
ENDBRANCH   4   9
BRANCH   5  20
ATOM     19  N   UNL     1      -3.712   5.230 -55.201  0.00  0.00    +0.000 NA
ATOM     20  C   UNL     1      -3.612   6.269 -55.960  0.00  0.00    +0.000 C 
BRANCH  19  21
ATOM     21  O   UNL     1      -4.566   5.479 -54.125  0.00  0.00    +0.000 OA
BRANCH  21  22
ATOM     22  C   UNL     1      -5.609   4.501 -54.192  0.00  0.00    +0.000 C 
BRANCH  22  25
ATOM     23 CL   UNL     1      -2.802   2.030 -50.554  0.00  0.00    +0.000 Cl
ATOM     24 CL   UNL     1      -4.559  -0.634 -51.197  0.00  0.00    +0.000 Cl
ATOM     25  C   UNL     1      -5.233   3.214 -53.500  0.00  0.00    +0.000 A 
ATOM     26  C   UNL     1      -4.255   3.173 -52.497  0.00  0.00    +0.000 A 
ATOM     27  C   UNL     1      -5.953   2.048 -53.797  0.00  0.00    +0.000 A 
ATOM     28  C   UNL     1      -4.014   1.992 -51.787  0.00  0.00    +0.000 A 
ATOM     29  C   UNL     1      -5.716   0.870 -53.088  0.00  0.00    +0.000 A 
ATOM     30  C   UNL     1      -4.757   0.842 -52.073  0.00  0.00    +0.000 A 
ENDBRANCH  22  25
ENDBRANCH  21  22
ENDBRANCH  19  21
ENDBRANCH   5  20
TORSDOF 6
ENDMDL
MODEL 9
REMARK VINA RESULT:      -4.8      4.625      6.689
REMARK  Name = 142505500
REMARK  6 active torsions:
REMARK  status: ('A' for Active; 'I' for Inactive)
REMARK    1  A    between atoms: O_7  and  N_10
REMARK    2  A    between atoms: O_7  and  C_25
REMARK    3  A    between atoms: C_11  and  C_13
REMARK    4  A    between atoms: C_12  and  C_18
REMARK    5  A    between atoms: C_19  and  C_23
REMARK    6  A    between atoms: C_24  and  C_25
REMARK                            x       y       z     vdW  Elec       q    Type
REMARK                         _______ _______ _______ _____ _____    ______ ____
ROOT
ATOM      1  S   UNL     1     -25.456   1.036 -56.844  0.00  0.00    +0.000 S 
ATOM      2  N   UNL     1     -25.109   3.063 -55.310  0.00  0.00    +0.000 N 
ATOM      3  N   UNL     1     -23.558   3.102 -56.914  0.00  0.00    +0.000 NA
ATOM      4  C   UNL     1     -23.388   4.176 -56.043  0.00  0.00    +0.000 A 
ATOM      5  C   UNL     1     -24.343   4.161 -55.018  0.00  0.00    +0.000 A 
ATOM      6  C   UNL     1     -24.595   2.484 -56.427  0.00  0.00    +0.000 A 
ATOM      7  C   UNL     1     -26.177   2.399 -54.740  0.00  0.00    +0.000 A 
ATOM      8  C   UNL     1     -26.495   1.292 -55.432  0.00  0.00    +0.000 A 
ENDROOT
BRANCH   4   9
ATOM      9  C   UNL     1     -22.305   5.139 -56.224  0.00  0.00    +0.000 A 
ATOM     10  C   UNL     1     -22.548   6.504 -56.427  0.00  0.00    +0.000 A 
ATOM     11  C   UNL     1     -20.976   4.697 -56.201  0.00  0.00    +0.000 A 
ATOM     12  C   UNL     1     -20.167   6.975 -56.491  0.00  0.00    +0.000 A 
ATOM     13  C   UNL     1     -21.494   7.416 -56.532  0.00  0.00    +0.000 A 
ATOM     14  C   UNL     1     -19.917   5.604 -56.334  0.00  0.00    +0.000 A 
BRANCH  12  18
ATOM     15  F   UNL     1     -18.036   7.517 -57.462  0.00  0.00    +0.000 F 
ATOM     16  F   UNL     1     -19.419   9.158 -57.118  0.00  0.00    +0.000 F 
ATOM     17  F   UNL     1     -18.415   8.211 -55.437  0.00  0.00    +0.000 F 
ATOM     18  C   UNL     1     -19.023   7.950 -56.627  0.00  0.00    +0.000 C 
ENDBRANCH  12  18
ENDBRANCH   4   9
BRANCH   5  20
ATOM     19  N   UNL     1     -25.321   5.991 -53.925  0.00  0.00    +0.000 NA
ATOM     20  C   UNL     1     -24.519   4.983 -53.859  0.00  0.00    +0.000 C 
BRANCH  19  21
ATOM     21  O   UNL     1     -25.381   6.662 -52.702  0.00  0.00    +0.000 OA
BRANCH  21  22
ATOM     22  C   UNL     1     -24.138   6.416 -52.036  0.00  0.00    +0.000 C 
BRANCH  22  25
ATOM     23 CL   UNL     1     -25.406   4.709 -47.272  0.00  0.00    +0.000 Cl
ATOM     24 CL   UNL     1     -23.975   7.379 -46.079  0.00  0.00    +0.000 Cl
ATOM     25  C   UNL     1     -24.224   6.669 -50.551  0.00  0.00    +0.000 A 
ATOM     26  C   UNL     1     -24.770   5.724 -49.671  0.00  0.00    +0.000 A 
ATOM     27  C   UNL     1     -23.649   7.834 -50.026  0.00  0.00    +0.000 A 
ATOM     28  C   UNL     1     -24.724   5.931 -48.288  0.00  0.00    +0.000 A 
ATOM     29  C   UNL     1     -23.600   8.041 -48.648  0.00  0.00    +0.000 A 
ATOM     30  C   UNL     1     -24.124   7.085 -47.775  0.00  0.00    +0.000 A 
ENDBRANCH  22  25
ENDBRANCH  21  22
ENDBRANCH  19  21
ENDBRANCH   5  20
TORSDOF 6
ENDMDL
MODEL 10
REMARK VINA RESULT:      -4.8     17.837     19.220
REMARK  Name = 142505500
REMARK  6 active torsions:
REMARK  status: ('A' for Active; 'I' for Inactive)
REMARK    1  A    between atoms: O_7  and  N_10
REMARK    2  A    between atoms: O_7  and  C_25
REMARK    3  A    between atoms: C_11  and  C_13
REMARK    4  A    between atoms: C_12  and  C_18
REMARK    5  A    between atoms: C_19  and  C_23
REMARK    6  A    between atoms: C_24  and  C_25
REMARK                            x       y       z     vdW  Elec       q    Type
REMARK                         _______ _______ _______ _____ _____    ______ ____
ROOT
ATOM      1  S   UNL     1      -9.633  21.783 -40.822  0.00  0.00    +0.000 S 
ATOM      2  N   UNL     1     -10.497  19.775 -42.165  0.00  0.00    +0.000 N 
ATOM      3  N   UNL     1      -8.267  19.792 -42.251  0.00  0.00    +0.000 NA
ATOM      4  C   UNL     1      -8.778  18.727 -42.992  0.00  0.00    +0.000 A 
ATOM      5  C   UNL     1     -10.178  18.709 -42.965  0.00  0.00    +0.000 A 
ATOM      6  C   UNL     1      -9.336  20.370 -41.785  0.00  0.00    +0.000 A 
ATOM      7  C   UNL     1     -11.649  20.400 -41.730  0.00  0.00    +0.000 A 
ATOM      8  C   UNL     1     -11.372  21.492 -40.997  0.00  0.00    +0.000 A 
ENDROOT
BRANCH   4   9
ATOM      9  C   UNL     1      -7.898  17.807 -43.707  0.00  0.00    +0.000 A 
ATOM     10  C   UNL     1      -7.144  16.831 -43.043  0.00  0.00    +0.000 A 
ATOM     11  C   UNL     1      -7.793  17.894 -45.101  0.00  0.00    +0.000 A 
ATOM     12  C   UNL     1      -6.270  15.994 -45.148  0.00  0.00    +0.000 A 
ATOM     13  C   UNL     1      -6.360  15.918 -43.755  0.00  0.00    +0.000 A 
ATOM     14  C   UNL     1      -6.986  16.999 -45.816  0.00  0.00    +0.000 A 
BRANCH  12  18
ATOM     15  F   UNL     1      -5.976  14.603 -47.086  0.00  0.00    +0.000 F 
ATOM     16  F   UNL     1      -4.204  15.563 -46.273  0.00  0.00    +0.000 F 
ATOM     17  F   UNL     1      -5.122  13.900 -45.215  0.00  0.00    +0.000 F 
ATOM     18  C   UNL     1      -5.407  15.028 -45.922  0.00  0.00    +0.000 C 
ENDBRANCH  12  18
ENDBRANCH   4   9
BRANCH   5  20
ATOM     19  N   UNL     1     -11.091  16.606 -43.463  0.00  0.00    +0.000 NA
ATOM     20  C   UNL     1     -11.140  17.884 -43.632  0.00  0.00    +0.000 C 
BRANCH  19  21
ATOM     21  O   UNL     1     -12.112  15.970 -44.171  0.00  0.00    +0.000 OA
BRANCH  21  22
ATOM     22  C   UNL     1     -11.999  16.401 -45.532  0.00  0.00    +0.000 C 
BRANCH  22  25
ATOM     23 CL   UNL     1     -16.808  14.391 -45.773  0.00  0.00    +0.000 Cl
ATOM     24 CL   UNL     1     -16.883  15.289 -48.901  0.00  0.00    +0.000 Cl
ATOM     25  C   UNL     1     -13.194  15.999 -46.361  0.00  0.00    +0.000 A 
ATOM     26  C   UNL     1     -14.318  15.386 -45.790  0.00  0.00    +0.000 A 
ATOM     27  C   UNL     1     -13.224  16.342 -47.720  0.00  0.00    +0.000 A 
ATOM     28  C   UNL     1     -15.460  15.137 -46.558  0.00  0.00    +0.000 A 
ATOM     29  C   UNL     1     -14.363  16.097 -48.487  0.00  0.00    +0.000 A 
ATOM     30  C   UNL     1     -15.488  15.508 -47.907  0.00  0.00    +0.000 A 
ENDBRANCH  22  25
ENDBRANCH  21  22
ENDBRANCH  19  21
ENDBRANCH   5  20
TORSDOF 6
ENDMDL
