MODEL 1
REMARK VINA RESULT:      -6.3      0.000      0.000
REMARK  Name = 142505504
REMARK  5 active torsions:
REMARK  status: ('A' for Active; 'I' for Inactive)
REMARK    1  A    between atoms: O_5  and  N_8
REMARK    2  A    between atoms: O_5  and  C_21
REMARK    3  A    between atoms: C_9  and  C_14
REMARK    4  A    between atoms: C_10  and  C_12
REMARK    5  A    between atoms: C_20  and  C_21
REMARK                            x       y       z     vdW  Elec       q    Type
REMARK                         _______ _______ _______ _____ _____    ______ ____
ROOT
ATOM      1  S   UNL     1     -15.212   7.459 -34.299  0.00  0.00    +0.000 S 
ATOM      2  N   UNL     1     -12.720   7.797 -33.773  0.00  0.00    +0.000 N 
ATOM      3  N   UNL     1     -12.914   6.333 -35.449  0.00  0.00    +0.000 NA
ATOM      4  C   UNL     1     -11.428   7.499 -34.124  0.00  0.00    +0.000 A 
ATOM      5  C   UNL     1     -11.580   6.549 -35.140  0.00  0.00    +0.000 A 
ATOM      6  C   UNL     1     -13.541   7.098 -34.604  0.00  0.00    +0.000 A 
ATOM      7  C   UNL     1     -13.365   8.626 -32.878  0.00  0.00    +0.000 A 
ATOM      8  C   UNL     1     -14.701   8.568 -33.018  0.00  0.00    +0.000 A 
ENDROOT
BRANCH   5  10
ATOM      9 CL   UNL     1      -6.576   6.339 -36.407  0.00  0.00    +0.000 Cl
ATOM     10  C   UNL     1     -10.514   5.850 -35.845  0.00  0.00    +0.000 A 
ATOM     11  C   UNL     1      -9.210   6.367 -35.809  0.00  0.00    +0.000 A 
ATOM     12  C   UNL     1     -10.757   4.685 -36.589  0.00  0.00    +0.000 A 
ATOM     13  C   UNL     1      -8.173   5.702 -36.464  0.00  0.00    +0.000 A 
ATOM     14  C   UNL     1      -9.713   4.016 -37.232  0.00  0.00    +0.000 A 
ATOM     15  C   UNL     1      -8.417   4.522 -37.165  0.00  0.00    +0.000 A 
ENDBRANCH   5  10
BRANCH   4  17
ATOM     16  N   UNL     1      -9.850   7.876 -32.373  0.00  0.00    +0.000 NA
ATOM     17  C   UNL     1     -10.238   8.092 -33.589  0.00  0.00    +0.000 C 
BRANCH  16  18
ATOM     18  O   UNL     1      -8.651   8.586 -32.163  0.00  0.00    +0.000 OA
BRANCH  18  19
ATOM     19  C   UNL     1      -8.802   9.444 -31.028  0.00  0.00    +0.000 C 
BRANCH  19  22
ATOM     20 CL   UNL     1      -7.350   7.361 -26.495  0.00  0.00    +0.000 Cl
ATOM     21 CL   UNL     1      -4.415   8.701 -26.915  0.00  0.00    +0.000 Cl
ATOM     22  C   UNL     1      -7.690   9.220 -30.026  0.00  0.00    +0.000 A 
ATOM     23  C   UNL     1      -7.941   8.474 -28.863  0.00  0.00    +0.000 A 
ATOM     24  C   UNL     1      -6.425   9.803 -30.186  0.00  0.00    +0.000 A 
ATOM     25  C   UNL     1      -6.947   8.294 -27.893  0.00  0.00    +0.000 A 
ATOM     26  C   UNL     1      -5.429   9.623 -29.220  0.00  0.00    +0.000 A 
ATOM     27  C   UNL     1      -5.688   8.871 -28.072  0.00  0.00    +0.000 A 
ENDBRANCH  19  22
ENDBRANCH  18  19
ENDBRANCH  16  18
ENDBRANCH   4  17
TORSDOF 5
ENDMDL
MODEL 2
REMARK VINA RESULT:      -6.2     26.435     28.721
REMARK  Name = 142505504
REMARK  5 active torsions:
REMARK  status: ('A' for Active; 'I' for Inactive)
REMARK    1  A    between atoms: O_5  and  N_8
REMARK    2  A    between atoms: O_5  and  C_21
REMARK    3  A    between atoms: C_9  and  C_14
REMARK    4  A    between atoms: C_10  and  C_12
REMARK    5  A    between atoms: C_20  and  C_21
REMARK                            x       y       z     vdW  Elec       q    Type
REMARK                         _______ _______ _______ _____ _____    ______ ____
ROOT
ATOM      1  S   UNL     1     -21.213  12.045 -62.239  0.00  0.00    +0.000 S 
ATOM      2  N   UNL     1     -20.606  10.725 -60.121  0.00  0.00    +0.000 N 
ATOM      3  N   UNL     1     -22.508   9.910 -60.961  0.00  0.00    +0.000 NA
ATOM      4  C   UNL     1     -20.927   9.676 -59.297  0.00  0.00    +0.000 A 
ATOM      5  C   UNL     1     -22.142   9.217 -59.818  0.00  0.00    +0.000 A 
ATOM      6  C   UNL     1     -21.562  10.793 -61.088  0.00  0.00    +0.000 A 
ATOM      7  C   UNL     1     -19.584  11.644 -60.245  0.00  0.00    +0.000 A 
ATOM      8  C   UNL     1     -19.750  12.431 -61.322  0.00  0.00    +0.000 A 
ENDROOT
BRANCH   5  10
ATOM      9 CL   UNL     1     -25.830   7.733 -56.518  0.00  0.00    +0.000 Cl
ATOM     10  C   UNL     1     -22.963   8.135 -59.289  0.00  0.00    +0.000 A 
ATOM     11  C   UNL     1     -23.887   8.407 -58.270  0.00  0.00    +0.000 A 
ATOM     12  C   UNL     1     -22.833   6.815 -59.748  0.00  0.00    +0.000 A 
ATOM     13  C   UNL     1     -24.692   7.387 -57.762  0.00  0.00    +0.000 A 
ATOM     14  C   UNL     1     -23.651   5.800 -59.246  0.00  0.00    +0.000 A 
ATOM     15  C   UNL     1     -24.587   6.088 -58.255  0.00  0.00    +0.000 A 
ENDBRANCH   5  10
BRANCH   4  17
ATOM     16  N   UNL     1     -19.588   8.001 -58.249  0.00  0.00    +0.000 NA
ATOM     17  C   UNL     1     -20.142   9.170 -58.211  0.00  0.00    +0.000 C 
BRANCH  16  18
ATOM     18  O   UNL     1     -18.882   7.811 -57.044  0.00  0.00    +0.000 OA
BRANCH  18  19
ATOM     19  C   UNL     1     -18.916   6.425 -56.689  0.00  0.00    +0.000 C 
BRANCH  19  22
ATOM     20 CL   UNL     1     -22.733   2.900 -56.628  0.00  0.00    +0.000 Cl
ATOM     21 CL   UNL     1     -24.459   4.924 -54.756  0.00  0.00    +0.000 Cl
ATOM     22  C   UNL     1     -20.281   6.033 -56.165  0.00  0.00    +0.000 A 
ATOM     23  C   UNL     1     -20.843   4.801 -56.541  0.00  0.00    +0.000 A 
ATOM     24  C   UNL     1     -21.043   6.900 -55.370  0.00  0.00    +0.000 A 
ATOM     25  C   UNL     1     -22.126   4.435 -56.114  0.00  0.00    +0.000 A 
ATOM     26  C   UNL     1     -22.323   6.536 -54.940  0.00  0.00    +0.000 A 
ATOM     27  C   UNL     1     -22.868   5.304 -55.312  0.00  0.00    +0.000 A 
ENDBRANCH  19  22
ENDBRANCH  18  19
ENDBRANCH  16  18
ENDBRANCH   4  17
TORSDOF 5
ENDMDL
MODEL 3
REMARK VINA RESULT:      -5.9     24.188     27.117
REMARK  Name = 142505504
REMARK  5 active torsions:
REMARK  status: ('A' for Active; 'I' for Inactive)
REMARK    1  A    between atoms: O_5  and  N_8
REMARK    2  A    between atoms: O_5  and  C_21
REMARK    3  A    between atoms: C_9  and  C_14
REMARK    4  A    between atoms: C_10  and  C_12
REMARK    5  A    between atoms: C_20  and  C_21
REMARK                            x       y       z     vdW  Elec       q    Type
REMARK                         _______ _______ _______ _____ _____    ______ ____
ROOT
ATOM      1  S   UNL     1     -23.976   9.106 -50.090  0.00  0.00    +0.000 S 
ATOM      2  N   UNL     1     -23.616   9.819 -52.532  0.00  0.00    +0.000 N 
ATOM      3  N   UNL     1     -22.768   7.772 -52.244  0.00  0.00    +0.000 NA
ATOM      4  C   UNL     1     -23.165   9.452 -53.775  0.00  0.00    +0.000 A 
ATOM      5  C   UNL     1     -22.600   8.191 -53.554  0.00  0.00    +0.000 A 
ATOM      6  C   UNL     1     -23.373   8.780 -51.686  0.00  0.00    +0.000 A 
ATOM      7  C   UNL     1     -24.269  10.893 -51.964  0.00  0.00    +0.000 A 
ATOM      8  C   UNL     1     -24.538  10.683 -50.664  0.00  0.00    +0.000 A 
ENDROOT
BRANCH   5  10
ATOM      9 CL   UNL     1     -18.437   7.417 -56.513  0.00  0.00    +0.000 Cl
ATOM     10  C   UNL     1     -21.923   7.356 -54.538  0.00  0.00    +0.000 A 
ATOM     11  C   UNL     1     -20.660   7.739 -55.013  0.00  0.00    +0.000 A 
ATOM     12  C   UNL     1     -22.513   6.191 -55.052  0.00  0.00    +0.000 A 
ATOM     13  C   UNL     1     -19.989   6.944 -55.943  0.00  0.00    +0.000 A 
ATOM     14  C   UNL     1     -21.832   5.392 -55.974  0.00  0.00    +0.000 A 
ATOM     15  C   UNL     1     -20.565   5.766 -56.415  0.00  0.00    +0.000 A 
ENDBRANCH   5  10
BRANCH   4  17
ATOM     16  N   UNL     1     -22.667  11.293 -55.211  0.00  0.00    +0.000 NA
ATOM     17  C   UNL     1     -23.315  10.194 -54.992  0.00  0.00    +0.000 C 
BRANCH  16  18
ATOM     18  O   UNL     1     -23.022  11.764 -56.491  0.00  0.00    +0.000 OA
BRANCH  18  19
ATOM     19  C   UNL     1     -21.974  11.458 -57.414  0.00  0.00    +0.000 C 
BRANCH  19  22
ATOM     20 CL   UNL     1     -25.588   8.603 -59.820  0.00  0.00    +0.000 Cl
ATOM     21 CL   UNL     1     -23.305   6.359 -60.405  0.00  0.00    +0.000 Cl
ATOM     22  C   UNL     1     -22.293  10.206 -58.203  0.00  0.00    +0.000 A 
ATOM     23  C   UNL     1     -23.608   9.974 -58.639  0.00  0.00    +0.000 A 
ATOM     24  C   UNL     1     -21.323   9.224 -58.450  0.00  0.00    +0.000 A 
ATOM     25  C   UNL     1     -23.943   8.800 -59.324  0.00  0.00    +0.000 A 
ATOM     26  C   UNL     1     -21.655   8.051 -59.137  0.00  0.00    +0.000 A 
ATOM     27  C   UNL     1     -22.964   7.836 -59.574  0.00  0.00    +0.000 A 
ENDBRANCH  19  22
ENDBRANCH  18  19
ENDBRANCH  16  18
ENDBRANCH   4  17
TORSDOF 5
ENDMDL
MODEL 4
REMARK VINA RESULT:      -5.9     24.015     26.697
REMARK  Name = 142505504
REMARK  5 active torsions:
REMARK  status: ('A' for Active; 'I' for Inactive)
REMARK    1  A    between atoms: O_5  and  N_8
REMARK    2  A    between atoms: O_5  and  C_21
REMARK    3  A    between atoms: C_9  and  C_14
REMARK    4  A    between atoms: C_10  and  C_12
REMARK    5  A    between atoms: C_20  and  C_21
REMARK                            x       y       z     vdW  Elec       q    Type
REMARK                         _______ _______ _______ _____ _____    ______ ____
ROOT
ATOM      1  S   UNL     1     -21.353  11.918 -61.491  0.00  0.00    +0.000 S 
ATOM      2  N   UNL     1     -22.188  11.559 -59.088  0.00  0.00    +0.000 N 
ATOM      3  N   UNL     1     -20.652  10.008 -59.559  0.00  0.00    +0.000 NA
ATOM      4  C   UNL     1     -22.053  10.842 -57.926  0.00  0.00    +0.000 A 
ATOM      5  C   UNL     1     -21.123   9.853 -58.265  0.00  0.00    +0.000 A 
ATOM      6  C   UNL     1     -21.323  11.033 -59.997  0.00  0.00    +0.000 A 
ATOM      7  C   UNL     1     -22.900  12.657 -59.527  0.00  0.00    +0.000 A 
ATOM      8  C   UNL     1     -22.579  12.985 -60.791  0.00  0.00    +0.000 A 
ENDROOT
BRANCH   5  10
ATOM      9 CL   UNL     1     -22.019   5.231 -56.137  0.00  0.00    +0.000 Cl
ATOM     10  C   UNL     1     -20.647   8.776 -57.406  0.00  0.00    +0.000 A 
ATOM     11  C   UNL     1     -21.462   7.654 -57.192  0.00  0.00    +0.000 A 
ATOM     12  C   UNL     1     -19.404   8.840 -56.757  0.00  0.00    +0.000 A 
ATOM     13  C   UNL     1     -21.016   6.606 -56.386  0.00  0.00    +0.000 A 
ATOM     14  C   UNL     1     -18.957   7.782 -55.962  0.00  0.00    +0.000 A 
ATOM     15  C   UNL     1     -19.761   6.660 -55.781  0.00  0.00    +0.000 A 
ENDBRANCH   5  10
BRANCH   4  17
ATOM     16  N   UNL     1     -22.066  11.694 -55.697  0.00  0.00    +0.000 NA
ATOM     17  C   UNL     1     -22.690  11.116 -56.673  0.00  0.00    +0.000 C 
BRANCH  16  18
ATOM     18  O   UNL     1     -22.965  11.830 -54.620  0.00  0.00    +0.000 OA
BRANCH  18  19
ATOM     19  C   UNL     1     -23.868  10.721 -54.615  0.00  0.00    +0.000 C 
BRANCH  19  22
ATOM     20 CL   UNL     1     -24.187   9.454 -49.586  0.00  0.00    +0.000 Cl
ATOM     21 CL   UNL     1     -22.286   6.886 -50.199  0.00  0.00    +0.000 Cl
ATOM     22  C   UNL     1     -23.511   9.735 -53.524  0.00  0.00    +0.000 A 
ATOM     23  C   UNL     1     -23.954   9.960 -52.210  0.00  0.00    +0.000 A 
ATOM     24  C   UNL     1     -22.681   8.632 -53.770  0.00  0.00    +0.000 A 
ATOM     25  C   UNL     1     -23.595   9.093 -51.170  0.00  0.00    +0.000 A 
ATOM     26  C   UNL     1     -22.323   7.763 -52.733  0.00  0.00    +0.000 A 
ATOM     27  C   UNL     1     -22.777   7.992 -51.432  0.00  0.00    +0.000 A 
ENDBRANCH  19  22
ENDBRANCH  18  19
ENDBRANCH  16  18
ENDBRANCH   4  17
TORSDOF 5
ENDMDL
MODEL 5
REMARK VINA RESULT:      -5.8     24.907     26.815
REMARK  Name = 142505504
REMARK  5 active torsions:
REMARK  status: ('A' for Active; 'I' for Inactive)
REMARK    1  A    between atoms: O_5  and  N_8
REMARK    2  A    between atoms: O_5  and  C_21
REMARK    3  A    between atoms: C_9  and  C_14
REMARK    4  A    between atoms: C_10  and  C_12
REMARK    5  A    between atoms: C_20  and  C_21
REMARK                            x       y       z     vdW  Elec       q    Type
REMARK                         _______ _______ _______ _____ _____    ______ ____
ROOT
ATOM      1  S   UNL     1     -24.099   9.223 -50.919  0.00  0.00    +0.000 S 
ATOM      2  N   UNL     1     -23.440   9.857 -53.320  0.00  0.00    +0.000 N 
ATOM      3  N   UNL     1     -22.513   7.889 -52.811  0.00  0.00    +0.000 NA
ATOM      4  C   UNL     1     -22.794   9.471 -54.467  0.00  0.00    +0.000 A 
ATOM      5  C   UNL     1     -22.187   8.263 -54.105  0.00  0.00    +0.000 A 
ATOM      6  C   UNL     1     -23.255   8.874 -52.396  0.00  0.00    +0.000 A 
ATOM      7  C   UNL     1     -24.236  10.905 -52.905  0.00  0.00    +0.000 A 
ATOM      8  C   UNL     1     -24.673  10.731 -51.646  0.00  0.00    +0.000 A 
ENDROOT
BRANCH   5  10
ATOM      9 CL   UNL     1     -21.566   3.880 -56.768  0.00  0.00    +0.000 Cl
ATOM     10  C   UNL     1     -21.324   7.438 -54.940  0.00  0.00    +0.000 A 
ATOM     11  C   UNL     1     -21.789   6.195 -55.394  0.00  0.00    +0.000 A 
ATOM     12  C   UNL     1     -20.022   7.836 -55.281  0.00  0.00    +0.000 A 
ATOM     13  C   UNL     1     -20.983   5.399 -56.208  0.00  0.00    +0.000 A 
ATOM     14  C   UNL     1     -19.224   7.041 -56.106  0.00  0.00    +0.000 A 
ATOM     15  C   UNL     1     -19.707   5.823 -56.576  0.00  0.00    +0.000 A 
ENDBRANCH   5  10
BRANCH   4  17
ATOM     16  N   UNL     1     -23.603   9.786 -56.691  0.00  0.00    +0.000 NA
ATOM     17  C   UNL     1     -22.816  10.148 -55.729  0.00  0.00    +0.000 C 
BRANCH  16  18
ATOM     18  O   UNL     1     -23.393  10.654 -57.781  0.00  0.00    +0.000 OA
BRANCH  18  19
ATOM     19  C   UNL     1     -22.476  10.048 -58.697  0.00  0.00    +0.000 C 
BRANCH  19  22
ATOM     20 CL   UNL     1     -19.635  14.250 -59.828  0.00  0.00    +0.000 Cl
ATOM     21 CL   UNL     1     -17.029  12.702 -58.648  0.00  0.00    +0.000 Cl
ATOM     22  C   UNL     1     -21.123  10.726 -58.639  0.00  0.00    +0.000 A 
ATOM     23  C   UNL     1     -20.972  12.023 -59.159  0.00  0.00    +0.000 A 
ATOM     24  C   UNL     1     -19.989  10.067 -58.147  0.00  0.00    +0.000 A 
ATOM     25  C   UNL     1     -19.723  12.655 -59.167  0.00  0.00    +0.000 A 
ATOM     26  C   UNL     1     -18.739  10.696 -58.152  0.00  0.00    +0.000 A 
ATOM     27  C   UNL     1     -18.603  11.990 -58.662  0.00  0.00    +0.000 A 
ENDBRANCH  19  22
ENDBRANCH  18  19
ENDBRANCH  16  18
ENDBRANCH   4  17
TORSDOF 5
ENDMDL
MODEL 6
REMARK VINA RESULT:      -5.8      4.899      6.689
REMARK  Name = 142505504
REMARK  5 active torsions:
REMARK  status: ('A' for Active; 'I' for Inactive)
REMARK    1  A    between atoms: O_5  and  N_8
REMARK    2  A    between atoms: O_5  and  C_21
REMARK    3  A    between atoms: C_9  and  C_14
REMARK    4  A    between atoms: C_10  and  C_12
REMARK    5  A    between atoms: C_20  and  C_21
REMARK                            x       y       z     vdW  Elec       q    Type
REMARK                         _______ _______ _______ _____ _____    ______ ____
ROOT
ATOM      1  S   UNL     1      -9.316   4.270 -36.911  0.00  0.00    +0.000 S 
ATOM      2  N   UNL     1      -9.975   6.499 -35.816  0.00  0.00    +0.000 N 
ATOM      3  N   UNL     1     -11.803   5.236 -36.043  0.00  0.00    +0.000 NA
ATOM      4  C   UNL     1     -10.981   7.240 -35.249  0.00  0.00    +0.000 A 
ATOM      5  C   UNL     1     -12.117   6.447 -35.447  0.00  0.00    +0.000 A 
ATOM      6  C   UNL     1     -10.520   5.326 -36.241  0.00  0.00    +0.000 A 
ATOM      7  C   UNL     1      -8.613   6.610 -36.004  0.00  0.00    +0.000 A 
ATOM      8  C   UNL     1      -8.097   5.510 -36.578  0.00  0.00    +0.000 A 
ENDROOT
BRANCH   5  10
ATOM      9 CL   UNL     1     -16.020   5.856 -32.114  0.00  0.00    +0.000 Cl
ATOM     10  C   UNL     1     -13.486   6.781 -35.078  0.00  0.00    +0.000 A 
ATOM     11  C   UNL     1     -14.044   6.221 -33.919  0.00  0.00    +0.000 A 
ATOM     12  C   UNL     1     -14.281   7.626 -35.869  0.00  0.00    +0.000 A 
ATOM     13  C   UNL     1     -15.348   6.542 -33.542  0.00  0.00    +0.000 A 
ATOM     14  C   UNL     1     -15.581   7.955 -35.479  0.00  0.00    +0.000 A 
ATOM     15  C   UNL     1     -16.114   7.416 -34.311  0.00  0.00    +0.000 A 
ENDBRANCH   5  10
BRANCH   4  17
ATOM     16  N   UNL     1      -9.865   8.732 -33.756  0.00  0.00    +0.000 NA
ATOM     17  C   UNL     1     -10.841   8.496 -34.574  0.00  0.00    +0.000 C 
BRANCH  16  18
ATOM     18  O   UNL     1     -10.005  10.049 -33.274  0.00  0.00    +0.000 OA
BRANCH  18  19
ATOM     19  C   UNL     1     -10.862  10.785 -34.152  0.00  0.00    +0.000 C 
BRANCH  19  22
ATOM     20 CL   UNL     1      -6.702  13.792 -34.955  0.00  0.00    +0.000 Cl
ATOM     21 CL   UNL     1      -8.672  16.381 -34.925  0.00  0.00    +0.000 Cl
ATOM     22  C   UNL     1     -10.324  12.179 -34.393  0.00  0.00    +0.000 A 
ATOM     23  C   UNL     1      -8.944  12.371 -34.571  0.00  0.00    +0.000 A 
ATOM     24  C   UNL     1     -11.158  13.305 -34.368  0.00  0.00    +0.000 A 
ATOM     25  C   UNL     1      -8.412  13.655 -34.744  0.00  0.00    +0.000 A 
ATOM     26  C   UNL     1     -10.630  14.589 -34.542  0.00  0.00    +0.000 A 
ATOM     27  C   UNL     1      -9.257  14.767 -34.729  0.00  0.00    +0.000 A 
ENDBRANCH  19  22
ENDBRANCH  18  19
ENDBRANCH  16  18
ENDBRANCH   4  17
TORSDOF 5
ENDMDL
MODEL 7
REMARK VINA RESULT:      -5.7     13.577     15.161
REMARK  Name = 142505504
REMARK  5 active torsions:
REMARK  status: ('A' for Active; 'I' for Inactive)
REMARK    1  A    between atoms: O_5  and  N_8
REMARK    2  A    between atoms: O_5  and  C_21
REMARK    3  A    between atoms: C_9  and  C_14
REMARK    4  A    between atoms: C_10  and  C_12
REMARK    5  A    between atoms: C_20  and  C_21
REMARK                            x       y       z     vdW  Elec       q    Type
REMARK                         _______ _______ _______ _____ _____    ______ ____
ROOT
ATOM      1  S   UNL     1     -12.651  20.638 -40.302  0.00  0.00    +0.000 S 
ATOM      2  N   UNL     1     -10.972  19.470 -41.857  0.00  0.00    +0.000 N 
ATOM      3  N   UNL     1     -13.041  18.856 -42.433  0.00  0.00    +0.000 NA
ATOM      4  C   UNL     1     -10.801  18.656 -42.948  0.00  0.00    +0.000 A 
ATOM      5  C   UNL     1     -12.105  18.251 -43.256  0.00  0.00    +0.000 A 
ATOM      6  C   UNL     1     -12.310  19.563 -41.622  0.00  0.00    +0.000 A 
ATOM      7  C   UNL     1     -10.179  20.224 -41.018  0.00  0.00    +0.000 A 
ATOM      8  C   UNL     1     -10.911  20.911 -40.123  0.00  0.00    +0.000 A 
ENDROOT
BRANCH   5  10
ATOM      9 CL   UNL     1     -11.828  16.919 -48.240  0.00  0.00    +0.000 Cl
ATOM     10  C   UNL     1     -12.503  17.328 -44.312  0.00  0.00    +0.000 A 
ATOM     11  C   UNL     1     -12.044  17.539 -45.620  0.00  0.00    +0.000 A 
ATOM     12  C   UNL     1     -13.362  16.247 -44.064  0.00  0.00    +0.000 A 
ATOM     13  C   UNL     1     -12.402  16.657 -46.640  0.00  0.00    +0.000 A 
ATOM     14  C   UNL     1     -13.707  15.359 -45.086  0.00  0.00    +0.000 A 
ATOM     15  C   UNL     1     -13.221  15.561 -46.375  0.00  0.00    +0.000 A 
ENDBRANCH   5  10
BRANCH   4  17
ATOM     16  N   UNL     1      -8.942  17.245 -43.449  0.00  0.00    +0.000 NA
ATOM     17  C   UNL     1      -9.566  18.368 -43.614  0.00  0.00    +0.000 C 
BRANCH  16  18
ATOM     18  O   UNL     1      -7.779  17.269 -44.245  0.00  0.00    +0.000 OA
BRANCH  18  19
ATOM     19  C   UNL     1      -6.628  17.165 -43.403  0.00  0.00    +0.000 C 
BRANCH  19  22
ATOM     20 CL   UNL     1      -4.079  13.177 -41.257  0.00  0.00    +0.000 Cl
ATOM     21 CL   UNL     1      -3.626  11.969 -44.243  0.00  0.00    +0.000 Cl
ATOM     22  C   UNL     1      -5.920  15.843 -43.612  0.00  0.00    +0.000 A 
ATOM     23  C   UNL     1      -5.394  15.152 -42.507  0.00  0.00    +0.000 A 
ATOM     24  C   UNL     1      -5.704  15.317 -44.893  0.00  0.00    +0.000 A 
ATOM     25  C   UNL     1      -4.689  13.954 -42.676  0.00  0.00    +0.000 A 
ATOM     26  C   UNL     1      -5.003  14.119 -45.064  0.00  0.00    +0.000 A 
ATOM     27  C   UNL     1      -4.493  13.436 -43.957  0.00  0.00    +0.000 A 
ENDBRANCH  19  22
ENDBRANCH  18  19
ENDBRANCH  16  18
ENDBRANCH   4  17
TORSDOF 5
ENDMDL
MODEL 8
REMARK VINA RESULT:      -5.7      1.420      2.025
REMARK  Name = 142505504
REMARK  5 active torsions:
REMARK  status: ('A' for Active; 'I' for Inactive)
REMARK    1  A    between atoms: O_5  and  N_8
REMARK    2  A    between atoms: O_5  and  C_21
REMARK    3  A    between atoms: C_9  and  C_14
REMARK    4  A    between atoms: C_10  and  C_12
REMARK    5  A    between atoms: C_20  and  C_21
REMARK                            x       y       z     vdW  Elec       q    Type
REMARK                         _______ _______ _______ _____ _____    ______ ____
ROOT
ATOM      1  S   UNL     1     -15.463   7.340 -34.093  0.00  0.00    +0.000 S 
ATOM      2  N   UNL     1     -12.998   7.804 -33.539  0.00  0.00    +0.000 N 
ATOM      3  N   UNL     1     -13.110   6.073 -34.946  0.00  0.00    +0.000 NA
ATOM      4  C   UNL     1     -11.689   7.472 -33.785  0.00  0.00    +0.000 A 
ATOM      5  C   UNL     1     -11.792   6.361 -34.629  0.00  0.00    +0.000 A 
ATOM      6  C   UNL     1     -13.778   6.959 -34.268  0.00  0.00    +0.000 A 
ATOM      7  C   UNL     1     -13.686   8.762 -32.823  0.00  0.00    +0.000 A 
ATOM      8  C   UNL     1     -15.014   8.659 -33.001  0.00  0.00    +0.000 A 
ENDROOT
BRANCH   5  10
ATOM      9 CL   UNL     1      -9.327   1.822 -34.763  0.00  0.00    +0.000 Cl
ATOM     10  C   UNL     1     -10.691   5.569 -35.163  0.00  0.00    +0.000 A 
ATOM     11  C   UNL     1     -10.539   4.236 -34.753  0.00  0.00    +0.000 A 
ATOM     12  C   UNL     1      -9.753   6.112 -36.055  0.00  0.00    +0.000 A 
ATOM     13  C   UNL     1      -9.500   3.459 -35.265  0.00  0.00    +0.000 A 
ATOM     14  C   UNL     1      -8.723   5.325 -36.576  0.00  0.00    +0.000 A 
ATOM     15  C   UNL     1      -8.599   3.994 -36.185  0.00  0.00    +0.000 A 
ENDBRANCH   5  10
BRANCH   4  17
ATOM     16  N   UNL     1      -9.851   7.758 -32.290  0.00  0.00    +0.000 NA
ATOM     17  C   UNL     1     -10.528   8.167 -33.314  0.00  0.00    +0.000 C 
BRANCH  16  18
ATOM     18  O   UNL     1      -8.772   8.644 -32.095  0.00  0.00    +0.000 OA
BRANCH  18  19
ATOM     19  C   UNL     1      -9.018   9.441 -30.933  0.00  0.00    +0.000 C 
BRANCH  19  22
ATOM     20 CL   UNL     1      -4.034  10.365 -29.788  0.00  0.00    +0.000 Cl
ATOM     21 CL   UNL     1      -4.454   8.718 -27.014  0.00  0.00    +0.000 Cl
ATOM     22  C   UNL     1      -7.893   9.300 -29.930  0.00  0.00    +0.000 A 
ATOM     23  C   UNL     1      -6.627   9.834 -30.224  0.00  0.00    +0.000 A 
ATOM     24  C   UNL     1      -8.054   8.581 -28.738  0.00  0.00    +0.000 A 
ATOM     25  C   UNL     1      -5.554   9.673 -29.339  0.00  0.00    +0.000 A 
ATOM     26  C   UNL     1      -6.984   8.421 -27.850  0.00  0.00    +0.000 A 
ATOM     27  C   UNL     1      -5.733   8.965 -28.149  0.00  0.00    +0.000 A 
ENDBRANCH  19  22
ENDBRANCH  18  19
ENDBRANCH  16  18
ENDBRANCH   4  17
TORSDOF 5
ENDMDL
MODEL 9
REMARK VINA RESULT:      -5.7     25.000     27.996
REMARK  Name = 142505504
REMARK  5 active torsions:
REMARK  status: ('A' for Active; 'I' for Inactive)
REMARK    1  A    between atoms: O_5  and  N_8
REMARK    2  A    between atoms: O_5  and  C_21
REMARK    3  A    between atoms: C_9  and  C_14
REMARK    4  A    between atoms: C_10  and  C_12
REMARK    5  A    between atoms: C_20  and  C_21
REMARK                            x       y       z     vdW  Elec       q    Type
REMARK                         _______ _______ _______ _____ _____    ______ ____
ROOT
ATOM      1  S   UNL     1     -12.044  11.546 -65.920  0.00  0.00    +0.000 S 
ATOM      2  N   UNL     1     -11.541  12.570 -63.618  0.00  0.00    +0.000 N 
ATOM      3  N   UNL     1     -13.149  11.036 -63.392  0.00  0.00    +0.000 NA
ATOM      4  C   UNL     1     -11.804  12.539 -62.272  0.00  0.00    +0.000 A 
ATOM      5  C   UNL     1     -12.842  11.607 -62.167  0.00  0.00    +0.000 A 
ATOM      6  C   UNL     1     -12.348  11.649 -64.213  0.00  0.00    +0.000 A 
ATOM      7  C   UNL     1     -10.673  13.222 -64.469  0.00  0.00    +0.000 A 
ATOM      8  C   UNL     1     -10.807  12.799 -65.738  0.00  0.00    +0.000 A 
ENDROOT
BRANCH   5  10
ATOM      9 CL   UNL     1     -17.061  12.062 -59.220  0.00  0.00    +0.000 Cl
ATOM     10  C   UNL     1     -13.546  11.221 -60.951  0.00  0.00    +0.000 A 
ATOM     11  C   UNL     1     -14.811  11.766 -60.685  0.00  0.00    +0.000 A 
ATOM     12  C   UNL     1     -12.980  10.341 -60.015  0.00  0.00    +0.000 A 
ATOM     13  C   UNL     1     -15.506  11.396 -59.533  0.00  0.00    +0.000 A 
ATOM     14  C   UNL     1     -13.686   9.964 -58.871  0.00  0.00    +0.000 A 
ATOM     15  C   UNL     1     -14.954  10.487 -58.632  0.00  0.00    +0.000 A 
ENDBRANCH   5  10
BRANCH   4  17
ATOM     16  N   UNL     1      -9.881  13.004 -60.935  0.00  0.00    +0.000 NA
ATOM     17  C   UNL     1     -11.110  13.264 -61.249  0.00  0.00    +0.000 C 
BRANCH  16  18
ATOM     18  O   UNL     1      -9.492  13.892 -59.913  0.00  0.00    +0.000 OA
BRANCH  18  19
ATOM     19  C   UNL     1      -8.577  13.230 -59.034  0.00  0.00    +0.000 C 
BRANCH  19  22
ATOM     20 CL   UNL     1     -12.163  11.153 -55.900  0.00  0.00    +0.000 Cl
ATOM     21 CL   UNL     1     -10.977  12.971 -53.477  0.00  0.00    +0.000 Cl
ATOM     22  C   UNL     1      -9.144  13.132 -57.634  0.00  0.00    +0.000 A 
ATOM     23  C   UNL     1     -10.239  12.290 -57.384  0.00  0.00    +0.000 A 
ATOM     24  C   UNL     1      -8.653  13.920 -56.583  0.00  0.00    +0.000 A 
ATOM     25  C   UNL     1     -10.817  12.218 -56.110  0.00  0.00    +0.000 A 
ATOM     26  C   UNL     1      -9.227  13.849 -55.310  0.00  0.00    +0.000 A 
ATOM     27  C   UNL     1     -10.310  13.000 -55.071  0.00  0.00    +0.000 A 
ENDBRANCH  19  22
ENDBRANCH  18  19
ENDBRANCH  16  18
ENDBRANCH   4  17
TORSDOF 5
ENDMDL
MODEL 10
REMARK VINA RESULT:      -5.6     25.266     27.422
REMARK  Name = 142505504
REMARK  5 active torsions:
REMARK  status: ('A' for Active; 'I' for Inactive)
REMARK    1  A    between atoms: O_5  and  N_8
REMARK    2  A    between atoms: O_5  and  C_21
REMARK    3  A    between atoms: C_9  and  C_14
REMARK    4  A    between atoms: C_10  and  C_12
REMARK    5  A    between atoms: C_20  and  C_21
REMARK                            x       y       z     vdW  Elec       q    Type
REMARK                         _______ _______ _______ _____ _____    ______ ____
ROOT
ATOM      1  S   UNL     1     -25.720  -0.863 -53.843  0.00  0.00    +0.000 S 
ATOM      2  N   UNL     1     -25.569   1.700 -53.956  0.00  0.00    +0.000 N 
ATOM      3  N   UNL     1     -24.370   0.830 -55.628  0.00  0.00    +0.000 NA
ATOM      4  C   UNL     1     -25.102   2.787 -54.650  0.00  0.00    +0.000 A 
ATOM      5  C   UNL     1     -24.320   2.214 -55.659  0.00  0.00    +0.000 A 
ATOM      6  C   UNL     1     -25.122   0.584 -54.595  0.00  0.00    +0.000 A 
ATOM      7  C   UNL     1     -26.380   1.462 -52.866  0.00  0.00    +0.000 A 
ATOM      8  C   UNL     1     -26.566   0.146 -52.660  0.00  0.00    +0.000 A 
ENDROOT
BRANCH   5  10
ATOM      9 CL   UNL     1     -23.823   3.660 -60.594  0.00  0.00    +0.000 Cl
ATOM     10  C   UNL     1     -23.541   2.924 -56.665  0.00  0.00    +0.000 A 
ATOM     11  C   UNL     1     -23.988   2.945 -57.995  0.00  0.00    +0.000 A 
ATOM     12  C   UNL     1     -22.333   3.566 -56.349  0.00  0.00    +0.000 A 
ATOM     13  C   UNL     1     -23.263   3.633 -58.968  0.00  0.00    +0.000 A 
ATOM     14  C   UNL     1     -21.618   4.264 -57.325  0.00  0.00    +0.000 A 
ATOM     15  C   UNL     1     -22.087   4.304 -58.636  0.00  0.00    +0.000 A 
ENDBRANCH   5  10
BRANCH   4  17
ATOM     16  N   UNL     1     -24.763   4.870 -53.536  0.00  0.00    +0.000 NA
ATOM     17  C   UNL     1     -25.418   4.162 -54.398  0.00  0.00    +0.000 C 
BRANCH  16  18
ATOM     18  O   UNL     1     -25.305   6.171 -53.535  0.00  0.00    +0.000 OA
BRANCH  18  19
ATOM     19  C   UNL     1     -25.142   6.753 -54.832  0.00  0.00    +0.000 C 
BRANCH  19  22
ATOM     20 CL   UNL     1     -21.440   7.969 -58.269  0.00  0.00    +0.000 Cl
ATOM     21 CL   UNL     1     -19.344   8.225 -55.794  0.00  0.00    +0.000 Cl
ATOM     22  C   UNL     1     -23.705   7.167 -55.064  0.00  0.00    +0.000 A 
ATOM     23  C   UNL     1     -23.247   7.386 -56.374  0.00  0.00    +0.000 A 
ATOM     24  C   UNL     1     -22.787   7.267 -54.010  0.00  0.00    +0.000 A 
ATOM     25  C   UNL     1     -21.910   7.719 -56.624  0.00  0.00    +0.000 A 
ATOM     26  C   UNL     1     -21.451   7.602 -54.256  0.00  0.00    +0.000 A 
ATOM     27  C   UNL     1     -21.010   7.827 -55.562  0.00  0.00    +0.000 A 
ENDBRANCH  19  22
ENDBRANCH  18  19
ENDBRANCH  16  18
ENDBRANCH   4  17
TORSDOF 5
ENDMDL
