MODEL 1
REMARK VINA RESULT:      -5.9      0.000      0.000
REMARK  Name = 142505466
REMARK  8 active torsions:
REMARK  status: ('A' for Active; 'I' for Inactive)
REMARK    1  A    between atoms: N_5  and  C_8
REMARK    2  A    between atoms: N_5  and  C_10
REMARK    3  A    between atoms: N_5  and  C_11
REMARK    4  A    between atoms: C_8  and  C_9
REMARK    5  A    between atoms: C_10  and  C_12
REMARK    6  A    between atoms: C_11  and  C_17
REMARK    7  A    between atoms: C_12  and  C_15
REMARK    8  A    between atoms: C_13  and  C_16
REMARK                            x       y       z     vdW  Elec       q    Type
REMARK                         _______ _______ _______ _____ _____    ______ ____
ROOT
ATOM      1  S   UNL     1     -11.827   2.551 -32.330  0.00  0.00    +0.000 S 
ATOM      2  N   UNL     1     -11.727   4.668 -33.787  0.00  0.00    +0.000 N 
ATOM      3  N   UNL     1      -9.785   3.593 -33.948  0.00  0.00    +0.000 NA
ATOM      4  C   UNL     1     -11.014   5.393 -34.721  0.00  0.00    +0.000 A 
ATOM      5  C   UNL     1      -9.761   4.752 -34.718  0.00  0.00    +0.000 A 
ATOM      6  C   UNL     1     -10.979   3.586 -33.438  0.00  0.00    +0.000 A 
ATOM      7  C   UNL     1     -12.950   4.747 -33.150  0.00  0.00    +0.000 A 
ATOM      8  C   UNL     1     -13.181   3.687 -32.362  0.00  0.00    +0.000 A 
ENDROOT
BRANCH   5  10
ATOM      9 CL   UNL     1      -4.539   6.375 -37.188  0.00  0.00    +0.000 Cl
ATOM     10  C   UNL     1      -8.519   5.142 -35.390  0.00  0.00    +0.000 A 
ATOM     11  C   UNL     1      -7.378   4.327 -35.256  0.00  0.00    +0.000 A 
ATOM     12  C   UNL     1      -8.385   6.345 -36.094  0.00  0.00    +0.000 A 
ATOM     13  C   UNL     1      -6.152   4.697 -35.814  0.00  0.00    +0.000 A 
ATOM     14  C   UNL     1      -7.164   6.707 -36.677  0.00  0.00    +0.000 A 
ATOM     15  C   UNL     1      -6.049   5.893 -36.525  0.00  0.00    +0.000 A 
ENDBRANCH   5  10
BRANCH   4  16
ATOM     16  C   UNL     1     -11.609   6.579 -35.413  0.00  0.00    +0.000 C 
BRANCH  16  17
ATOM     17  N   UNL     1     -11.814   7.791 -34.591  0.00  0.00    +0.000 NA
BRANCH  17  18
ATOM     18  C   UNL     1     -10.843   8.850 -34.914  0.00  0.00    +0.000 C 
ATOM     19  C   UNL     1      -9.670   8.995 -33.946  0.00  0.00    +0.000 C 
ENDBRANCH  17  18
BRANCH  17  20
ATOM     20  C   UNL     1     -13.197   8.275 -34.477  0.00  0.00    +0.000 C 
BRANCH  20  21
ATOM     21  C   UNL     1     -14.304   7.592 -35.312  0.00  0.00    +0.000 C 
BRANCH  21  24
ATOM     22 CL   UNL     1     -19.267   9.194 -35.820  0.00  0.00    +0.000 Cl
ATOM     23 CL   UNL     1     -19.827   7.897 -32.889  0.00  0.00    +0.000 Cl
ATOM     24  C   UNL     1     -15.751   7.541 -34.872  0.00  0.00    +0.000 A 
ATOM     25  C   UNL     1     -16.786   8.210 -35.532  0.00  0.00    +0.000 A 
ATOM     26  C   UNL     1     -16.037   6.922 -33.640  0.00  0.00    +0.000 A 
ATOM     27  C   UNL     1     -18.061   8.307 -34.954  0.00  0.00    +0.000 A 
ATOM     28  C   UNL     1     -17.304   7.014 -33.062  0.00  0.00    +0.000 A 
ATOM     29  C   UNL     1     -18.313   7.727 -33.707  0.00  0.00    +0.000 A 
ENDBRANCH  21  24
ENDBRANCH  20  21
ENDBRANCH  17  20
ENDBRANCH  16  17
ENDBRANCH   4  16
TORSDOF 7
ENDMDL
MODEL 2
REMARK VINA RESULT:      -5.8     23.125     25.366
REMARK  Name = 142505466
REMARK  8 active torsions:
REMARK  status: ('A' for Active; 'I' for Inactive)
REMARK    1  A    between atoms: N_5  and  C_8
REMARK    2  A    between atoms: N_5  and  C_10
REMARK    3  A    between atoms: N_5  and  C_11
REMARK    4  A    between atoms: C_8  and  C_9
REMARK    5  A    between atoms: C_10  and  C_12
REMARK    6  A    between atoms: C_11  and  C_17
REMARK    7  A    between atoms: C_12  and  C_15
REMARK    8  A    between atoms: C_13  and  C_16
REMARK                            x       y       z     vdW  Elec       q    Type
REMARK                         _______ _______ _______ _____ _____    ______ ____
ROOT
ATOM      1  S   UNL     1     -26.913   3.891 -54.053  0.00  0.00    +0.000 S 
ATOM      2  N   UNL     1     -25.163   3.451 -55.885  0.00  0.00    +0.000 N 
ATOM      3  N   UNL     1     -24.365   4.985 -54.485  0.00  0.00    +0.000 NA
ATOM      4  C   UNL     1     -23.878   3.684 -56.333  0.00  0.00    +0.000 A 
ATOM      5  C   UNL     1     -23.445   4.730 -55.497  0.00  0.00    +0.000 A 
ATOM      6  C   UNL     1     -25.351   4.186 -54.755  0.00  0.00    +0.000 A 
ATOM      7  C   UNL     1     -26.254   2.692 -56.263  0.00  0.00    +0.000 A 
ATOM      8  C   UNL     1     -27.263   2.783 -55.384  0.00  0.00    +0.000 A 
ENDROOT
BRANCH   5  10
ATOM      9 CL   UNL     1     -18.578   8.213 -55.931  0.00  0.00    +0.000 Cl
ATOM     10  C   UNL     1     -22.217   5.525 -55.568  0.00  0.00    +0.000 A 
ATOM     11  C   UNL     1     -22.154   6.759 -54.890  0.00  0.00    +0.000 A 
ATOM     12  C   UNL     1     -21.122   5.158 -56.359  0.00  0.00    +0.000 A 
ATOM     13  C   UNL     1     -21.034   7.587 -54.991  0.00  0.00    +0.000 A 
ATOM     14  C   UNL     1     -19.986   5.972 -56.443  0.00  0.00    +0.000 A 
ATOM     15  C   UNL     1     -19.948   7.189 -55.773  0.00  0.00    +0.000 A 
ENDBRANCH   5  10
BRANCH   4  16
ATOM     16  C   UNL     1     -23.302   2.928 -57.489  0.00  0.00    +0.000 C 
BRANCH  16  17
ATOM     17  N   UNL     1     -23.221   3.648 -58.778  0.00  0.00    +0.000 NA
BRANCH  17  18
ATOM     18  C   UNL     1     -23.590   2.788 -59.916  0.00  0.00    +0.000 C 
ATOM     19  C   UNL     1     -24.848   1.941 -59.730  0.00  0.00    +0.000 C 
ENDBRANCH  17  18
BRANCH  17  20
ATOM     20  C   UNL     1     -23.839   4.980 -58.822  0.00  0.00    +0.000 C 
BRANCH  20  21
ATOM     21  C   UNL     1     -23.108   6.123 -59.562  0.00  0.00    +0.000 C 
BRANCH  21  24
ATOM     22 CL   UNL     1     -19.923  10.141 -58.482  0.00  0.00    +0.000 Cl
ATOM     23 CL   UNL     1     -22.155  11.136 -56.333  0.00  0.00    +0.000 Cl
ATOM     24  C   UNL     1     -22.878   7.485 -58.945  0.00  0.00    +0.000 A 
ATOM     25  C   UNL     1     -21.682   8.201 -59.069  0.00  0.00    +0.000 A 
ATOM     26  C   UNL     1     -23.860   7.978 -58.064  0.00  0.00    +0.000 A 
ATOM     27  C   UNL     1     -21.449   9.348 -58.296  0.00  0.00    +0.000 A 
ATOM     28  C   UNL     1     -23.633   9.120 -57.295  0.00  0.00    +0.000 A 
ATOM     29  C   UNL     1     -22.417   9.794 -57.391  0.00  0.00    +0.000 A 
ENDBRANCH  21  24
ENDBRANCH  20  21
ENDBRANCH  17  20
ENDBRANCH  16  17
ENDBRANCH   4  16
TORSDOF 7
ENDMDL
MODEL 3
REMARK VINA RESULT:      -5.8     20.258     23.341
REMARK  Name = 142505466
REMARK  8 active torsions:
REMARK  status: ('A' for Active; 'I' for Inactive)
REMARK    1  A    between atoms: N_5  and  C_8
REMARK    2  A    between atoms: N_5  and  C_10
REMARK    3  A    between atoms: N_5  and  C_11
REMARK    4  A    between atoms: C_8  and  C_9
REMARK    5  A    between atoms: C_10  and  C_12
REMARK    6  A    between atoms: C_11  and  C_17
REMARK    7  A    between atoms: C_12  and  C_15
REMARK    8  A    between atoms: C_13  and  C_16
REMARK                            x       y       z     vdW  Elec       q    Type
REMARK                         _______ _______ _______ _____ _____    ______ ____
ROOT
ATOM      1  S   UNL     1     -22.739  14.487 -51.313  0.00  0.00    +0.000 S 
ATOM      2  N   UNL     1     -23.780  12.138 -51.436  0.00  0.00    +0.000 N 
ATOM      3  N   UNL     1     -22.916  12.645 -53.423  0.00  0.00    +0.000 NA
ATOM      4  C   UNL     1     -23.954  10.991 -52.184  0.00  0.00    +0.000 A 
ATOM      5  C   UNL     1     -23.498  11.381 -53.457  0.00  0.00    +0.000 A 
ATOM      6  C   UNL     1     -23.096  13.035 -52.198  0.00  0.00    +0.000 A 
ATOM      7  C   UNL     1     -24.097  12.589 -50.169  0.00  0.00    +0.000 A 
ATOM      8  C   UNL     1     -23.593  13.808 -49.923  0.00  0.00    +0.000 A 
ENDROOT
BRANCH   5  10
ATOM      9 CL   UNL     1     -23.749   8.681 -58.810  0.00  0.00    +0.000 Cl
ATOM     10  C   UNL     1     -23.562  10.655 -54.727  0.00  0.00    +0.000 A 
ATOM     11  C   UNL     1     -22.481  10.742 -55.627  0.00  0.00    +0.000 A 
ATOM     12  C   UNL     1     -24.696   9.943 -55.136  0.00  0.00    +0.000 A 
ATOM     13  C   UNL     1     -22.529  10.129 -56.881  0.00  0.00    +0.000 A 
ATOM     14  C   UNL     1     -24.739   9.306 -56.382  0.00  0.00    +0.000 A 
ATOM     15  C   UNL     1     -23.664   9.411 -57.257  0.00  0.00    +0.000 A 
ENDBRANCH   5  10
BRANCH   4  16
ATOM     16  C   UNL     1     -24.559   9.756 -51.595  0.00  0.00    +0.000 C 
BRANCH  16  17
ATOM     17  N   UNL     1     -23.635   8.828 -50.909  0.00  0.00    +0.000 NA
BRANCH  17  18
ATOM     18  C   UNL     1     -24.331   7.983 -49.922  0.00  0.00    +0.000 C 
ATOM     19  C   UNL     1     -23.433   7.171 -48.990  0.00  0.00    +0.000 C 
ENDBRANCH  17  18
BRANCH  17  20
ATOM     20  C   UNL     1     -22.701   8.084 -51.766  0.00  0.00    +0.000 C 
BRANCH  20  21
ATOM     21  C   UNL     1     -23.247   7.344 -53.007  0.00  0.00    +0.000 C 
BRANCH  21  24
ATOM     22 CL   UNL     1     -18.966   8.209 -55.904  0.00  0.00    +0.000 Cl
ATOM     23 CL   UNL     1     -20.414   6.519 -58.277  0.00  0.00    +0.000 Cl
ATOM     24  C   UNL     1     -22.390   7.021 -54.213  0.00  0.00    +0.000 A 
ATOM     25  C   UNL     1     -21.136   7.593 -54.449  0.00  0.00    +0.000 A 
ATOM     26  C   UNL     1     -22.963   6.230 -55.227  0.00  0.00    +0.000 A 
ATOM     27  C   UNL     1     -20.492   7.426 -55.684  0.00  0.00    +0.000 A 
ATOM     28  C   UNL     1     -22.325   6.060 -56.458  0.00  0.00    +0.000 A 
ATOM     29  C   UNL     1     -21.100   6.678 -56.697  0.00  0.00    +0.000 A 
ENDBRANCH  21  24
ENDBRANCH  20  21
ENDBRANCH  17  20
ENDBRANCH  16  17
ENDBRANCH   4  16
TORSDOF 7
ENDMDL
MODEL 4
REMARK VINA RESULT:      -5.7     22.189     24.374
REMARK  Name = 142505466
REMARK  8 active torsions:
REMARK  status: ('A' for Active; 'I' for Inactive)
REMARK    1  A    between atoms: N_5  and  C_8
REMARK    2  A    between atoms: N_5  and  C_10
REMARK    3  A    between atoms: N_5  and  C_11
REMARK    4  A    between atoms: C_8  and  C_9
REMARK    5  A    between atoms: C_10  and  C_12
REMARK    6  A    between atoms: C_11  and  C_17
REMARK    7  A    between atoms: C_12  and  C_15
REMARK    8  A    between atoms: C_13  and  C_16
REMARK                            x       y       z     vdW  Elec       q    Type
REMARK                         _______ _______ _______ _____ _____    ______ ____
ROOT
ATOM      1  S   UNL     1     -25.096   6.987 -59.372  0.00  0.00    +0.000 S 
ATOM      2  N   UNL     1     -22.583   6.805 -58.856  0.00  0.00    +0.000 N 
ATOM      3  N   UNL     1     -23.201   8.936 -58.677  0.00  0.00    +0.000 NA
ATOM      4  C   UNL     1     -21.448   7.452 -58.412  0.00  0.00    +0.000 A 
ATOM      5  C   UNL     1     -21.840   8.803 -58.414  0.00  0.00    +0.000 A 
ATOM      6  C   UNL     1     -23.590   7.720 -58.912  0.00  0.00    +0.000 A 
ATOM      7  C   UNL     1     -22.951   5.527 -59.231  0.00  0.00    +0.000 A 
ATOM      8  C   UNL     1     -24.260   5.437 -59.509  0.00  0.00    +0.000 A 
ENDROOT
BRANCH   5  10
ATOM      9 CL   UNL     1     -18.278  13.551 -57.537  0.00  0.00    +0.000 Cl
ATOM     10  C   UNL     1     -21.033  10.003 -58.184  0.00  0.00    +0.000 A 
ATOM     11  C   UNL     1     -20.280  10.542 -59.246  0.00  0.00    +0.000 A 
ATOM     12  C   UNL     1     -20.901  10.596 -56.923  0.00  0.00    +0.000 A 
ATOM     13  C   UNL     1     -19.437  11.639 -59.055  0.00  0.00    +0.000 A 
ATOM     14  C   UNL     1     -20.077  11.712 -56.732  0.00  0.00    +0.000 A 
ATOM     15  C   UNL     1     -19.336  12.222 -57.792  0.00  0.00    +0.000 A 
ENDBRANCH   5  10
BRANCH   4  16
ATOM     16  C   UNL     1     -20.187   6.704 -58.113  0.00  0.00    +0.000 C 
BRANCH  16  17
ATOM     17  N   UNL     1     -19.812   6.577 -56.689  0.00  0.00    +0.000 NA
BRANCH  17  18
ATOM     18  C   UNL     1     -18.873   7.630 -56.267  0.00  0.00    +0.000 C 
ATOM     19  C   UNL     1     -17.989   8.213 -57.368  0.00  0.00    +0.000 C 
ENDBRANCH  17  18
BRANCH  17  20
ATOM     20  C   UNL     1     -20.914   6.356 -55.741  0.00  0.00    +0.000 C 
BRANCH  20  21
ATOM     21  C   UNL     1     -21.347   7.511 -54.811  0.00  0.00    +0.000 C 
BRANCH  21  24
ATOM     22 CL   UNL     1     -23.086   8.311 -49.932  0.00  0.00    +0.000 Cl
ATOM     23 CL   UNL     1     -25.372   6.078 -50.543  0.00  0.00    +0.000 Cl
ATOM     24  C   UNL     1     -22.426   7.359 -53.761  0.00  0.00    +0.000 A 
ATOM     25  C   UNL     1     -22.358   7.937 -52.489  0.00  0.00    +0.000 A 
ATOM     26  C   UNL     1     -23.471   6.452 -54.025  0.00  0.00    +0.000 A 
ATOM     27  C   UNL     1     -23.276   7.581 -51.489  0.00  0.00    +0.000 A 
ATOM     28  C   UNL     1     -24.386   6.096 -53.033  0.00  0.00    +0.000 A 
ATOM     29  C   UNL     1     -24.276   6.641 -51.756  0.00  0.00    +0.000 A 
ENDBRANCH  21  24
ENDBRANCH  20  21
ENDBRANCH  17  20
ENDBRANCH  16  17
ENDBRANCH   4  16
TORSDOF 7
ENDMDL
MODEL 5
REMARK VINA RESULT:      -5.7     20.483     22.915
REMARK  Name = 142505466
REMARK  8 active torsions:
REMARK  status: ('A' for Active; 'I' for Inactive)
REMARK    1  A    between atoms: N_5  and  C_8
REMARK    2  A    between atoms: N_5  and  C_10
REMARK    3  A    between atoms: N_5  and  C_11
REMARK    4  A    between atoms: C_8  and  C_9
REMARK    5  A    between atoms: C_10  and  C_12
REMARK    6  A    between atoms: C_11  and  C_17
REMARK    7  A    between atoms: C_12  and  C_15
REMARK    8  A    between atoms: C_13  and  C_16
REMARK                            x       y       z     vdW  Elec       q    Type
REMARK                         _______ _______ _______ _____ _____    ______ ____
ROOT
ATOM      1  S   UNL     1       1.166   1.828 -55.905  0.00  0.00    +0.000 S 
ATOM      2  N   UNL     1      -1.338   2.356 -56.159  0.00  0.00    +0.000 N 
ATOM      3  N   UNL     1      -1.110   0.221 -55.576  0.00  0.00    +0.000 NA
ATOM      4  C   UNL     1      -2.634   1.909 -55.993  0.00  0.00    +0.000 A 
ATOM      5  C   UNL     1      -2.456   0.538 -55.733  0.00  0.00    +0.000 A 
ATOM      6  C   UNL     1      -0.499   1.339 -55.822  0.00  0.00    +0.000 A 
ATOM      7  C   UNL     1      -0.701   3.517 -56.552  0.00  0.00    +0.000 A 
ATOM      8  C   UNL     1       0.633   3.423 -56.448  0.00  0.00    +0.000 A 
ENDROOT
BRANCH   5  10
ATOM      9 CL   UNL     1      -6.789  -3.578 -55.189  0.00  0.00    +0.000 Cl
ATOM     10  C   UNL     1      -3.461  -0.521 -55.614  0.00  0.00    +0.000 A 
ATOM     11  C   UNL     1      -4.537  -0.556 -56.523  0.00  0.00    +0.000 A 
ATOM     12  C   UNL     1      -3.454  -1.458 -54.574  0.00  0.00    +0.000 A 
ATOM     13  C   UNL     1      -5.560  -1.499 -56.403  0.00  0.00    +0.000 A 
ATOM     14  C   UNL     1      -4.464  -2.423 -54.464  0.00  0.00    +0.000 A 
ATOM     15  C   UNL     1      -5.520  -2.433 -55.367  0.00  0.00    +0.000 A 
ENDBRANCH   5  10
BRANCH   4  16
ATOM     16  C   UNL     1      -3.805   2.825 -56.156  0.00  0.00    +0.000 C 
BRANCH  16  17
ATOM     17  N   UNL     1      -3.947   3.904 -55.155  0.00  0.00    +0.000 NA
BRANCH  17  18
ATOM     18  C   UNL     1      -3.998   5.237 -55.781  0.00  0.00    +0.000 C 
ATOM     19  C   UNL     1      -3.996   6.424 -54.819  0.00  0.00    +0.000 C 
ENDBRANCH  17  18
BRANCH  17  20
ATOM     20  C   UNL     1      -4.968   3.702 -54.117  0.00  0.00    +0.000 C 
BRANCH  20  21
ATOM     21  C   UNL     1      -4.721   2.645 -53.017  0.00  0.00    +0.000 C 
BRANCH  21  24
ATOM     22 CL   UNL     1      -8.673  -0.399 -54.623  0.00  0.00    +0.000 Cl
ATOM     23 CL   UNL     1      -8.134  -2.230 -51.988  0.00  0.00    +0.000 Cl
ATOM     24  C   UNL     1      -5.488   1.342 -52.943  0.00  0.00    +0.000 A 
ATOM     25  C   UNL     1      -6.546   1.016 -53.797  0.00  0.00    +0.000 A 
ATOM     26  C   UNL     1      -5.227   0.492 -51.851  0.00  0.00    +0.000 A 
ATOM     27  C   UNL     1      -7.358  -0.100 -53.540  0.00  0.00    +0.000 A 
ATOM     28  C   UNL     1      -6.030  -0.620 -51.593  0.00  0.00    +0.000 A 
ATOM     29  C   UNL     1      -7.112  -0.904 -52.423  0.00  0.00    +0.000 A 
ENDBRANCH  21  24
ENDBRANCH  20  21
ENDBRANCH  17  20
ENDBRANCH  16  17
ENDBRANCH   4  16
TORSDOF 7
ENDMDL
MODEL 6
REMARK VINA RESULT:      -5.7     14.677     16.510
REMARK  Name = 142505466
REMARK  8 active torsions:
REMARK  status: ('A' for Active; 'I' for Inactive)
REMARK    1  A    between atoms: N_5  and  C_8
REMARK    2  A    between atoms: N_5  and  C_10
REMARK    3  A    between atoms: N_5  and  C_11
REMARK    4  A    between atoms: C_8  and  C_9
REMARK    5  A    between atoms: C_10  and  C_12
REMARK    6  A    between atoms: C_11  and  C_17
REMARK    7  A    between atoms: C_12  and  C_15
REMARK    8  A    between atoms: C_13  and  C_16
REMARK                            x       y       z     vdW  Elec       q    Type
REMARK                         _______ _______ _______ _____ _____    ______ ____
ROOT
ATOM      1  S   UNL     1     -12.266  20.524 -40.141  0.00  0.00    +0.000 S 
ATOM      2  N   UNL     1     -11.470  19.191 -42.192  0.00  0.00    +0.000 N 
ATOM      3  N   UNL     1     -13.645  18.822 -41.895  0.00  0.00    +0.000 NA
ATOM      4  C   UNL     1     -11.832  18.408 -43.269  0.00  0.00    +0.000 A 
ATOM      5  C   UNL     1     -13.178  18.106 -42.994  0.00  0.00    +0.000 A 
ATOM      6  C   UNL     1     -12.596  19.460 -41.474  0.00  0.00    +0.000 A 
ATOM      7  C   UNL     1     -10.318  19.756 -41.681  0.00  0.00    +0.000 A 
ATOM      8  C   UNL     1     -10.562  20.523 -40.608  0.00  0.00    +0.000 A 
ENDROOT
BRANCH   5  10
ATOM      9 CL   UNL     1     -16.995  14.248 -45.554  0.00  0.00    +0.000 Cl
ATOM     10  C   UNL     1     -14.083  17.186 -43.687  0.00  0.00    +0.000 A 
ATOM     11  C   UNL     1     -15.475  17.371 -43.574  0.00  0.00    +0.000 A 
ATOM     12  C   UNL     1     -13.628  16.065 -44.391  0.00  0.00    +0.000 A 
ATOM     13  C   UNL     1     -16.376  16.475 -44.153  0.00  0.00    +0.000 A 
ATOM     14  C   UNL     1     -14.528  15.178 -44.996  0.00  0.00    +0.000 A 
ATOM     15  C   UNL     1     -15.897  15.375 -44.864  0.00  0.00    +0.000 A 
ENDBRANCH   5  10
BRANCH   4  16
ATOM     16  C   UNL     1     -10.849  18.040 -44.335  0.00  0.00    +0.000 C 
BRANCH  16  17
ATOM     17  N   UNL     1     -10.766  18.943 -45.502  0.00  0.00    +0.000 NA
BRANCH  17  18
ATOM     18  C   UNL     1      -9.497  18.787 -46.235  0.00  0.00    +0.000 C 
ATOM     19  C   UNL     1      -8.503  17.792 -45.638  0.00  0.00    +0.000 C 
ENDBRANCH  17  18
BRANCH  17  20
ATOM     20  C   UNL     1     -11.948  18.991 -46.375  0.00  0.00    +0.000 C 
BRANCH  20  21
ATOM     21  C   UNL     1     -12.218  17.815 -47.340  0.00  0.00    +0.000 C 
BRANCH  21  24
ATOM     22 CL   UNL     1     -17.417  18.417 -47.088  0.00  0.00    +0.000 Cl
ATOM     23 CL   UNL     1     -17.669  15.626 -48.742  0.00  0.00    +0.000 Cl
ATOM     24  C   UNL     1     -13.606  17.446 -47.816  0.00  0.00    +0.000 A 
ATOM     25  C   UNL     1     -14.769  18.097 -47.393  0.00  0.00    +0.000 A 
ATOM     26  C   UNL     1     -13.741  16.281 -48.595  0.00  0.00    +0.000 A 
ATOM     27  C   UNL     1     -16.036  17.571 -47.693  0.00  0.00    +0.000 A 
ATOM     28  C   UNL     1     -14.998  15.755 -48.898  0.00  0.00    +0.000 A 
ATOM     29  C   UNL     1     -16.148  16.386 -48.427  0.00  0.00    +0.000 A 
ENDBRANCH  21  24
ENDBRANCH  20  21
ENDBRANCH  17  20
ENDBRANCH  16  17
ENDBRANCH   4  16
TORSDOF 7
ENDMDL
MODEL 7
REMARK VINA RESULT:      -5.6     20.523     23.389
REMARK  Name = 142505466
REMARK  8 active torsions:
REMARK  status: ('A' for Active; 'I' for Inactive)
REMARK    1  A    between atoms: N_5  and  C_8
REMARK    2  A    between atoms: N_5  and  C_10
REMARK    3  A    between atoms: N_5  and  C_11
REMARK    4  A    between atoms: C_8  and  C_9
REMARK    5  A    between atoms: C_10  and  C_12
REMARK    6  A    between atoms: C_11  and  C_17
REMARK    7  A    between atoms: C_12  and  C_15
REMARK    8  A    between atoms: C_13  and  C_16
REMARK                            x       y       z     vdW  Elec       q    Type
REMARK                         _______ _______ _______ _____ _____    ______ ____
ROOT
ATOM      1  S   UNL     1      -6.553  -3.959 -59.098  0.00  0.00    +0.000 S 
ATOM      2  N   UNL     1      -6.093  -1.973 -57.530  0.00  0.00    +0.000 N 
ATOM      3  N   UNL     1      -6.974  -3.636 -56.343  0.00  0.00    +0.000 NA
ATOM      4  C   UNL     1      -6.063  -1.514 -56.229  0.00  0.00    +0.000 A 
ATOM      5  C   UNL     1      -6.722  -2.539 -55.524  0.00  0.00    +0.000 A 
ATOM      6  C   UNL     1      -6.564  -3.250 -57.512  0.00  0.00    +0.000 A 
ATOM      7  C   UNL     1      -5.776  -1.499 -58.788  0.00  0.00    +0.000 A 
ATOM      8  C   UNL     1      -5.931  -2.434 -59.737  0.00  0.00    +0.000 A 
ENDROOT
BRANCH   5  10
ATOM      9 CL   UNL     1      -8.579  -2.977 -49.835  0.00  0.00    +0.000 Cl
ATOM     10  C   UNL     1      -7.142  -2.578 -54.122  0.00  0.00    +0.000 A 
ATOM     11  C   UNL     1      -6.658  -3.604 -53.285  0.00  0.00    +0.000 A 
ATOM     12  C   UNL     1      -8.082  -1.689 -53.588  0.00  0.00    +0.000 A 
ATOM     13  C   UNL     1      -7.091  -3.727 -51.963  0.00  0.00    +0.000 A 
ATOM     14  C   UNL     1      -8.499  -1.793 -52.255  0.00  0.00    +0.000 A 
ATOM     15  C   UNL     1      -8.015  -2.817 -51.450  0.00  0.00    +0.000 A 
ENDBRANCH   5  10
BRANCH   4  16
ATOM     16  C   UNL     1      -5.473  -0.184 -55.880  0.00  0.00    +0.000 C 
BRANCH  16  17
ATOM     17  N   UNL     1      -5.375   0.142 -54.442  0.00  0.00    +0.000 NA
BRANCH  17  18
ATOM     18  C   UNL     1      -4.004  -0.022 -53.928  0.00  0.00    +0.000 C 
ATOM     19  C   UNL     1      -2.883   0.198 -54.943  0.00  0.00    +0.000 C 
ENDBRANCH  17  18
BRANCH  17  20
ATOM     20  C   UNL     1      -6.021   1.390 -54.010  0.00  0.00    +0.000 C 
BRANCH  20  21
ATOM     21  C   UNL     1      -5.139   2.560 -53.519  0.00  0.00    +0.000 C 
BRANCH  21  24
ATOM     22 CL   UNL     1      -3.179   4.477 -57.985  0.00  0.00    +0.000 Cl
ATOM     23 CL   UNL     1      -3.003   7.362 -56.493  0.00  0.00    +0.000 Cl
ATOM     24  C   UNL     1      -4.780   3.741 -54.394  0.00  0.00    +0.000 A 
ATOM     25  C   UNL     1      -4.308   3.620 -55.705  0.00  0.00    +0.000 A 
ATOM     26  C   UNL     1      -4.763   5.016 -53.796  0.00  0.00    +0.000 A 
ATOM     27  C   UNL     1      -3.783   4.730 -56.384  0.00  0.00    +0.000 A 
ATOM     28  C   UNL     1      -4.244   6.124 -54.468  0.00  0.00    +0.000 A 
ATOM     29  C   UNL     1      -3.731   5.978 -55.755  0.00  0.00    +0.000 A 
ENDBRANCH  21  24
ENDBRANCH  20  21
ENDBRANCH  17  20
ENDBRANCH  16  17
ENDBRANCH   4  16
TORSDOF 7
ENDMDL
MODEL 8
REMARK VINA RESULT:      -5.4     24.209     26.244
REMARK  Name = 142505466
REMARK  8 active torsions:
REMARK  status: ('A' for Active; 'I' for Inactive)
REMARK    1  A    between atoms: N_5  and  C_8
REMARK    2  A    between atoms: N_5  and  C_10
REMARK    3  A    between atoms: N_5  and  C_11
REMARK    4  A    between atoms: C_8  and  C_9
REMARK    5  A    between atoms: C_10  and  C_12
REMARK    6  A    between atoms: C_11  and  C_17
REMARK    7  A    between atoms: C_12  and  C_15
REMARK    8  A    between atoms: C_13  and  C_16
REMARK                            x       y       z     vdW  Elec       q    Type
REMARK                         _______ _______ _______ _____ _____    ______ ____
ROOT
ATOM      1  S   UNL     1     -17.750  13.699 -59.241  0.00  0.00    +0.000 S 
ATOM      2  N   UNL     1     -15.796  12.189 -59.962  0.00  0.00    +0.000 N 
ATOM      3  N   UNL     1     -15.329  13.066 -57.971  0.00  0.00    +0.000 NA
ATOM      4  C   UNL     1     -14.603  11.596 -59.601  0.00  0.00    +0.000 A 
ATOM      5  C   UNL     1     -14.285  12.250 -58.396  0.00  0.00    +0.000 A 
ATOM      6  C   UNL     1     -16.202  12.975 -58.927  0.00  0.00    +0.000 A 
ATOM      7  C   UNL     1     -16.653  12.184 -61.046  0.00  0.00    +0.000 A 
ATOM      8  C   UNL     1     -17.758  12.910 -60.823  0.00  0.00    +0.000 A 
ENDROOT
BRANCH   5  10
ATOM      9 CL   UNL     1      -9.118  12.050 -55.352  0.00  0.00    +0.000 Cl
ATOM     10  C   UNL     1     -13.062  12.172 -57.594  0.00  0.00    +0.000 A 
ATOM     11  C   UNL     1     -12.378  13.358 -57.263  0.00  0.00    +0.000 A 
ATOM     12  C   UNL     1     -12.484  10.955 -57.212  0.00  0.00    +0.000 A 
ATOM     13  C   UNL     1     -11.168  13.327 -56.566  0.00  0.00    +0.000 A 
ATOM     14  C   UNL     1     -11.285  10.921 -56.490  0.00  0.00    +0.000 A 
ATOM     15  C   UNL     1     -10.622  12.102 -56.181  0.00  0.00    +0.000 A 
ENDBRANCH   5  10
BRANCH   4  16
ATOM     16  C   UNL     1     -13.948  10.565 -60.465  0.00  0.00    +0.000 C 
BRANCH  16  17
ATOM     17  N   UNL     1     -12.897  11.043 -61.388  0.00  0.00    +0.000 NA
BRANCH  17  18
ATOM     18  C   UNL     1     -13.436  11.949 -62.418  0.00  0.00    +0.000 C 
ATOM     19  C   UNL     1     -13.583  11.353 -63.817  0.00  0.00    +0.000 C 
ENDBRANCH  17  18
BRANCH  17  20
ATOM     20  C   UNL     1     -11.655  11.527 -60.769  0.00  0.00    +0.000 C 
BRANCH  20  21
ATOM     21  C   UNL     1     -11.078  12.891 -61.210  0.00  0.00    +0.000 C 
BRANCH  21  24
ATOM     22 CL   UNL     1      -7.005  13.139 -57.923  0.00  0.00    +0.000 Cl
ATOM     23 CL   UNL     1      -7.980  16.153 -57.182  0.00  0.00    +0.000 Cl
ATOM     24  C   UNL     1     -10.137  13.702 -60.346  0.00  0.00    +0.000 A 
ATOM     25  C   UNL     1      -9.031  13.159 -59.684  0.00  0.00    +0.000 A 
ATOM     26  C   UNL     1     -10.494  15.034 -60.064  0.00  0.00    +0.000 A 
ATOM     27  C   UNL     1      -8.330  13.908 -58.726  0.00  0.00    +0.000 A 
ATOM     28  C   UNL     1      -9.798  15.783 -59.113  0.00  0.00    +0.000 A 
ATOM     29  C   UNL     1      -8.730  15.213 -58.424  0.00  0.00    +0.000 A 
ENDBRANCH  21  24
ENDBRANCH  20  21
ENDBRANCH  17  20
ENDBRANCH  16  17
ENDBRANCH   4  16
TORSDOF 7
ENDMDL
MODEL 9
REMARK VINA RESULT:      -5.4     15.129     17.777
REMARK  Name = 142505466
REMARK  8 active torsions:
REMARK  status: ('A' for Active; 'I' for Inactive)
REMARK    1  A    between atoms: N_5  and  C_8
REMARK    2  A    between atoms: N_5  and  C_10
REMARK    3  A    between atoms: N_5  and  C_11
REMARK    4  A    between atoms: C_8  and  C_9
REMARK    5  A    between atoms: C_10  and  C_12
REMARK    6  A    between atoms: C_11  and  C_17
REMARK    7  A    between atoms: C_12  and  C_15
REMARK    8  A    between atoms: C_13  and  C_16
REMARK                            x       y       z     vdW  Elec       q    Type
REMARK                         _______ _______ _______ _____ _____    ______ ____
ROOT
ATOM      1  S   UNL     1     -22.801  15.840 -49.997  0.00  0.00    +0.000 S 
ATOM      2  N   UNL     1     -21.331  15.158 -48.000  0.00  0.00    +0.000 N 
ATOM      3  N   UNL     1     -20.090  16.309 -49.445  0.00  0.00    +0.000 NA
ATOM      4  C   UNL     1     -20.106  15.280 -47.374  0.00  0.00    +0.000 A 
ATOM      5  C   UNL     1     -19.320  15.914 -48.354  0.00  0.00    +0.000 A 
ATOM      6  C   UNL     1     -21.273  15.851 -49.170  0.00  0.00    +0.000 A 
ATOM      7  C   UNL     1     -22.547  14.551 -47.754  0.00  0.00    +0.000 A 
ATOM      8  C   UNL     1     -23.455  14.835 -48.700  0.00  0.00    +0.000 A 
ENDROOT
BRANCH   5  10
ATOM      9 CL   UNL     1     -13.481  17.284 -48.538  0.00  0.00    +0.000 Cl
ATOM     10  C   UNL     1     -17.881  16.187 -48.354  0.00  0.00    +0.000 A 
ATOM     11  C   UNL     1     -17.407  17.387 -47.788  0.00  0.00    +0.000 A 
ATOM     12  C   UNL     1     -16.952  15.347 -48.979  0.00  0.00    +0.000 A 
ATOM     13  C   UNL     1     -16.053  17.726 -47.834  0.00  0.00    +0.000 A 
ATOM     14  C   UNL     1     -15.589  15.671 -49.004  0.00  0.00    +0.000 A 
ATOM     15  C   UNL     1     -15.144  16.863 -48.446  0.00  0.00    +0.000 A 
ENDBRANCH   5  10
BRANCH   4  16
ATOM     16  C   UNL     1     -19.873  14.742 -45.997  0.00  0.00    +0.000 C 
BRANCH  16  17
ATOM     17  N   UNL     1     -19.243  15.660 -45.025  0.00  0.00    +0.000 NA
BRANCH  17  18
ATOM     18  C   UNL     1     -20.230  16.258 -44.108  0.00  0.00    +0.000 C 
ATOM     19  C   UNL     1     -21.335  15.323 -43.619  0.00  0.00    +0.000 C 
ENDBRANCH  17  18
BRANCH  17  20
ATOM     20  C   UNL     1     -18.035  15.165 -44.349  0.00  0.00    +0.000 C 
BRANCH  20  21
ATOM     21  C   UNL     1     -16.815  14.750 -45.200  0.00  0.00    +0.000 C 
BRANCH  21  24
ATOM     22 CL   UNL     1     -13.766  18.753 -43.736  0.00  0.00    +0.000 Cl
ATOM     23 CL   UNL     1     -11.330  17.276 -45.307  0.00  0.00    +0.000 Cl
ATOM     24  C   UNL     1     -15.438  15.350 -45.010  0.00  0.00    +0.000 A 
ATOM     25  C   UNL     1     -15.211  16.593 -44.411  0.00  0.00    +0.000 A 
ATOM     26  C   UNL     1     -14.350  14.695 -45.618  0.00  0.00    +0.000 A 
ATOM     27  C   UNL     1     -13.943  17.194 -44.462  0.00  0.00    +0.000 A 
ATOM     28  C   UNL     1     -13.088  15.288 -45.670  0.00  0.00    +0.000 A 
ATOM     29  C   UNL     1     -12.887  16.549 -45.114  0.00  0.00    +0.000 A 
ENDBRANCH  21  24
ENDBRANCH  20  21
ENDBRANCH  17  20
ENDBRANCH  16  17
ENDBRANCH   4  16
TORSDOF 7
ENDMDL
MODEL 10
REMARK VINA RESULT:      -5.4     23.257     26.344
REMARK  Name = 142505466
REMARK  8 active torsions:
REMARK  status: ('A' for Active; 'I' for Inactive)
REMARK    1  A    between atoms: N_5  and  C_8
REMARK    2  A    between atoms: N_5  and  C_10
REMARK    3  A    between atoms: N_5  and  C_11
REMARK    4  A    between atoms: C_8  and  C_9
REMARK    5  A    between atoms: C_10  and  C_12
REMARK    6  A    between atoms: C_11  and  C_17
REMARK    7  A    between atoms: C_12  and  C_15
REMARK    8  A    between atoms: C_13  and  C_16
REMARK                            x       y       z     vdW  Elec       q    Type
REMARK                         _______ _______ _______ _____ _____    ______ ____
ROOT
ATOM      1  S   UNL     1       1.371   8.826 -57.720  0.00  0.00    +0.000 S 
ATOM      2  N   UNL     1      -0.999   8.206 -58.500  0.00  0.00    +0.000 N 
ATOM      3  N   UNL     1      -0.689   7.411 -56.445  0.00  0.00    +0.000 NA
ATOM      4  C   UNL     1      -2.223   7.668 -58.156  0.00  0.00    +0.000 A 
ATOM      5  C   UNL     1      -1.962   7.083 -56.903  0.00  0.00    +0.000 A 
ATOM      6  C   UNL     1      -0.175   8.091 -57.424  0.00  0.00    +0.000 A 
ATOM      7  C   UNL     1      -0.423   8.812 -59.600  0.00  0.00    +0.000 A 
ATOM      8  C   UNL     1       0.826   9.232 -59.351  0.00  0.00    +0.000 A 
ENDROOT
BRANCH   5  10
ATOM      9 CL   UNL     1      -5.653   3.514 -53.798  0.00  0.00    +0.000 Cl
ATOM     10  C   UNL     1      -2.821   6.227 -56.082  0.00  0.00    +0.000 A 
ATOM     11  C   UNL     1      -2.892   4.848 -56.364  0.00  0.00    +0.000 A 
ATOM     12  C   UNL     1      -3.655   6.733 -55.078  0.00  0.00    +0.000 A 
ATOM     13  C   UNL     1      -3.755   4.007 -55.658  0.00  0.00    +0.000 A 
ATOM     14  C   UNL     1      -4.503   5.888 -54.351  0.00  0.00    +0.000 A 
ATOM     15  C   UNL     1      -4.563   4.533 -54.650  0.00  0.00    +0.000 A 
ENDBRANCH   5  10
BRANCH   4  16
ATOM     16  C   UNL     1      -3.402   7.752 -59.074  0.00  0.00    +0.000 C 
BRANCH  16  17
ATOM     17  N   UNL     1      -3.738   6.529 -59.834  0.00  0.00    +0.000 NA
BRANCH  17  18
ATOM     18  C   UNL     1      -2.548   5.911 -60.443  0.00  0.00    +0.000 C 
ATOM     19  C   UNL     1      -2.261   4.469 -60.028  0.00  0.00    +0.000 C 
ENDBRANCH  17  18
BRANCH  17  20
ATOM     20  C   UNL     1      -4.624   5.567 -59.164  0.00  0.00    +0.000 C 
BRANCH  20  21
ATOM     21  C   UNL     1      -5.977   5.209 -59.819  0.00  0.00    +0.000 C 
BRANCH  21  24
ATOM     22 CL   UNL     1      -5.742  -0.009 -60.249  0.00  0.00    +0.000 Cl
ATOM     23 CL   UNL     1      -6.073   0.392 -63.461  0.00  0.00    +0.000 Cl
ATOM     24  C   UNL     1      -6.188   3.948 -60.629  0.00  0.00    +0.000 A 
ATOM     25  C   UNL     1      -6.016   2.659 -60.116  0.00  0.00    +0.000 A 
ATOM     26  C   UNL     1      -6.405   4.090 -62.013  0.00  0.00    +0.000 A 
ATOM     27  C   UNL     1      -6.008   1.542 -60.967  0.00  0.00    +0.000 A 
ATOM     28  C   UNL     1      -6.400   2.982 -62.863  0.00  0.00    +0.000 A 
ATOM     29  C   UNL     1      -6.177   1.709 -62.345  0.00  0.00    +0.000 A 
ENDBRANCH  21  24
ENDBRANCH  20  21
ENDBRANCH  17  20
ENDBRANCH  16  17
ENDBRANCH   4  16
TORSDOF 7
ENDMDL
