REMARK  Name = 142505454
REMARK  6 active torsions:
REMARK  status: ('A' for Active; 'I' for Inactive)
REMARK    1  A    between atoms: O_5  and  C_10
REMARK    2  A    between atoms: O_5  and  C_13
REMARK    3  A    between atoms: C_8  and  C_10
REMARK    4  A    between atoms: C_9  and  C_12
REMARK    5  A    between atoms: C_13  and  C_14
REMARK    6  A    between atoms: C_14  and  C_16
REMARK                            x       y       z     vdW  Elec       q    Type
REMARK                         _______ _______ _______ _____ _____    ______ ____
ROOT
ATOM      1  S   UNL     1       7.704   0.820   1.410  0.00  0.00    +0.000 S 
ATOM      2  N   UNL     1       6.193  -0.119  -0.445  0.00  0.00    +0.000 N 
ATOM      3  N   UNL     1       4.922   0.872   1.088  0.00  0.00    +0.000 NA
ATOM      4  C   UNL     1       4.902  -0.291  -0.901  0.00  0.00    +0.000 A 
ATOM      5  C   UNL     1       4.119   0.323   0.088  0.00  0.00    +0.000 A 
ATOM      6  C   UNL     1       6.130   0.583   0.718  0.00  0.00    +0.000 A 
ATOM      7  C   UNL     1       7.467  -0.495  -0.826  0.00  0.00    +0.000 A 
ATOM      8  C   UNL     1       8.397  -0.079   0.052  0.00  0.00    +0.000 A 
ENDROOT
BRANCH   5  10
ATOM      9 CL   UNL     1      -1.832   0.706   0.863  0.00  0.00    +0.000 Cl
ATOM     10  C   UNL     1       2.665   0.416   0.218  0.00  0.00    +0.000 A 
ATOM     11  C   UNL     1       2.120   1.160   1.280  0.00  0.00    +0.000 A 
ATOM     12  C   UNL     1       1.762  -0.236  -0.638  0.00  0.00    +0.000 A 
ATOM     13  C   UNL     1       0.741   1.255   1.482  0.00  0.00    +0.000 A 
ATOM     14  C   UNL     1       0.370  -0.149  -0.440  0.00  0.00    +0.000 A 
ATOM     15  C   UNL     1      -0.131   0.600   0.620  0.00  0.00    +0.000 A 
ENDBRANCH   5  10
BRANCH   4  16
ATOM     16  C   UNL     1       4.627  -1.073  -2.131  0.00  0.00    +0.000 C 
BRANCH  16  17
ATOM     17  O   UNL     1       4.115  -0.191  -3.140  0.00  0.00    +0.000 OA
BRANCH  17  18
ATOM     18  C   UNL     1       4.010  -0.881  -4.390  0.00  0.00    +0.000 C 
BRANCH  18  19
ATOM     19  C   UNL     1       3.228  -0.138  -5.484  0.00  0.00    +0.000 C 
BRANCH  19  22
ATOM     20 CL   UNL     1       3.200   2.927  -9.651  0.00  0.00    +0.000 Cl
ATOM     21 CL   UNL     1       3.984   5.425  -7.719  0.00  0.00    +0.000 Cl
ATOM     22  C   UNL     1       3.673   1.192  -6.059  0.00  0.00    +0.000 A 
ATOM     23  C   UNL     1       3.458   1.440  -7.431  0.00  0.00    +0.000 A 
ATOM     24  C   UNL     1       4.067   2.266  -5.256  0.00  0.00    +0.000 A 
ATOM     25  C   UNL     1       3.572   2.725  -7.972  0.00  0.00    +0.000 A 
ATOM     26  C   UNL     1       4.193   3.555  -5.800  0.00  0.00    +0.000 A 
ATOM     27  C   UNL     1       3.922   3.793  -7.149  0.00  0.00    +0.000 A 
ENDBRANCH  19  22
ENDBRANCH  18  19
ENDBRANCH  17  18
ENDBRANCH  16  17
ENDBRANCH   4  16
TORSDOF 6
