REMARK  Name = 146929355
REMARK  5 active torsions:
REMARK  status: ('A' for Active; 'I' for Inactive)
REMARK    1  A    between atoms: O_5  and  N_8
REMARK    2  A    between atoms: O_5  and  C_21
REMARK    3  A    between atoms: C_9  and  C_14
REMARK    4  A    between atoms: C_10  and  C_12
REMARK    5  A    between atoms: C_20  and  C_21
REMARK                            x       y       z     vdW  Elec       q    Type
REMARK                         _______ _______ _______ _____ _____    ______ ____
ROOT
ATOM      1  S   UNL     1       8.080  -0.802  -1.313  0.00  0.00    +0.000 S 
ATOM      2  N   UNL     1       6.716   0.253   0.607  0.00  0.00    +0.000 N 
ATOM      3  N   UNL     1       5.321  -0.525  -0.961  0.00  0.00    +0.000 NA
ATOM      4  C   UNL     1       5.455   0.522   1.096  0.00  0.00    +0.000 A 
ATOM      5  C   UNL     1       4.612   0.043   0.081  0.00  0.00    +0.000 A 
ATOM      6  C   UNL     1       6.559  -0.356  -0.605  0.00  0.00    +0.000 A 
ATOM      7  C   UNL     1       8.033   0.369   1.011  0.00  0.00    +0.000 A 
ATOM      8  C   UNL     1       8.891  -0.126   0.101  0.00  0.00    +0.000 A 
ENDROOT
BRANCH   5  10
ATOM      9 BR   UNL     1      -1.538   0.000  -0.079  0.00  0.00    +0.000 Br
ATOM     10  C   UNL     1       3.155   0.057   0.065  0.00  0.00    +0.000 A 
ATOM     11  C   UNL     1       2.469  -1.019  -0.520  0.00  0.00    +0.000 A 
ATOM     12  C   UNL     1       2.413   1.132   0.575  0.00  0.00    +0.000 A 
ATOM     13  C   UNL     1       1.072  -1.039  -0.565  0.00  0.00    +0.000 A 
ATOM     14  C   UNL     1       1.015   1.110   0.539  0.00  0.00    +0.000 A 
ATOM     15  C   UNL     1       0.351   0.023  -0.027  0.00  0.00    +0.000 A 
ENDBRANCH   5  10
BRANCH   4  17
ATOM     16  N   UNL     1       5.668   1.924   3.135  0.00  0.00    +0.000 NA
ATOM     17  C   UNL     1       5.083   1.033   2.390  0.00  0.00    +0.000 C 
BRANCH  16  18
ATOM     18  O   UNL     1       6.754   2.531   2.505  0.00  0.00    +0.000 OA
BRANCH  18  19
ATOM     19  C   UNL     1       7.373   3.452   3.408  0.00  0.00    +0.000 C 
BRANCH  19  22
ATOM     20 CL   UNL     1       7.269   6.950  -0.411  0.00  0.00    +0.000 Cl
ATOM     21 CL   UNL     1      10.481   7.322  -0.034  0.00  0.00    +0.000 Cl
ATOM     22  C   UNL     1       8.150   4.436   2.573  0.00  0.00    +0.000 A 
ATOM     23  C   UNL     1       7.477   5.192   1.597  0.00  0.00    +0.000 A 
ATOM     24  C   UNL     1       9.529   4.608   2.735  0.00  0.00    +0.000 A 
ATOM     25  C   UNL     1       8.173   6.087   0.781  0.00  0.00    +0.000 A 
ATOM     26  C   UNL     1      10.224   5.505   1.923  0.00  0.00    +0.000 A 
ATOM     27  C   UNL     1       9.552   6.242   0.944  0.00  0.00    +0.000 A 
ENDBRANCH  19  22
ENDBRANCH  18  19
ENDBRANCH  16  18
ENDBRANCH   4  17
TORSDOF 5
