MODEL 1
REMARK VINA RESULT:      -5.9      0.000      0.000
REMARK  Name = 146929355
REMARK  5 active torsions:
REMARK  status: ('A' for Active; 'I' for Inactive)
REMARK    1  A    between atoms: O_5  and  N_8
REMARK    2  A    between atoms: O_5  and  C_21
REMARK    3  A    between atoms: C_9  and  C_14
REMARK    4  A    between atoms: C_10  and  C_12
REMARK    5  A    between atoms: C_20  and  C_21
REMARK                            x       y       z     vdW  Elec       q    Type
REMARK                         _______ _______ _______ _____ _____    ______ ____
ROOT
ATOM      1  S   UNL     1      -5.942 -10.208   9.485  0.00  0.00    +0.000 S 
ATOM      2  N   UNL     1      -3.948 -10.179  11.123  0.00  0.00    +0.000 N 
ATOM      3  N   UNL     1      -5.004 -12.148  11.265  0.00  0.00    +0.000 NA
ATOM      4  C   UNL     1      -3.227 -10.896  12.054  0.00  0.00    +0.000 A 
ATOM      5  C   UNL     1      -3.928 -12.109  12.132  0.00  0.00    +0.000 A 
ATOM      6  C   UNL     1      -4.978 -10.974  10.708  0.00  0.00    +0.000 A 
ATOM      7  C   UNL     1      -3.887  -8.957  10.478  0.00  0.00    +0.000 A 
ATOM      8  C   UNL     1      -4.882  -8.801   9.587  0.00  0.00    +0.000 A 
ENDROOT
BRANCH   5  10
ATOM      9 BR   UNL     1      -2.635 -16.920  15.744  0.00  0.00    +0.000 Br
ATOM     10  C   UNL     1      -3.605 -13.262  12.963  0.00  0.00    +0.000 A 
ATOM     11  C   UNL     1      -4.315 -13.462  14.158  0.00  0.00    +0.000 A 
ATOM     12  C   UNL     1      -2.576 -14.156  12.633  0.00  0.00    +0.000 A 
ATOM     13  C   UNL     1      -4.029 -14.550  14.988  0.00  0.00    +0.000 A 
ATOM     14  C   UNL     1      -2.294 -15.250  13.458  0.00  0.00    +0.000 A 
ATOM     15  C   UNL     1      -3.024 -15.444  14.629  0.00  0.00    +0.000 A 
ENDBRANCH   5  10
BRANCH   4  17
ATOM     16  N   UNL     1      -1.736 -10.190  13.910  0.00  0.00    +0.000 NA
ATOM     17  C   UNL     1      -1.979 -10.550  12.685  0.00  0.00    +0.000 C 
BRANCH  16  18
ATOM     18  O   UNL     1      -2.859 -10.268  14.733  0.00  0.00    +0.000 OA
BRANCH  18  19
ATOM     19  C   UNL     1      -2.493 -10.865  15.981  0.00  0.00    +0.000 C 
BRANCH  19  22
ATOM     20 CL   UNL     1      -7.412  -9.352  16.566  0.00  0.00    +0.000 Cl
ATOM     21 CL   UNL     1      -7.440 -10.868  19.447  0.00  0.00    +0.000 Cl
ATOM     22  C   UNL     1      -3.731 -10.894  16.838  0.00  0.00    +0.000 A 
ATOM     23  C   UNL     1      -4.891 -10.235  16.393  0.00  0.00    +0.000 A 
ATOM     24  C   UNL     1      -3.754 -11.551  18.073  0.00  0.00    +0.000 A 
ATOM     25  C   UNL     1      -6.046 -10.212  17.179  0.00  0.00    +0.000 A 
ATOM     26  C   UNL     1      -4.908 -11.532  18.856  0.00  0.00    +0.000 A 
ATOM     27  C   UNL     1      -6.053 -10.862  18.416  0.00  0.00    +0.000 A 
ENDBRANCH  19  22
ENDBRANCH  18  19
ENDBRANCH  16  18
ENDBRANCH   4  17
TORSDOF 5
ENDMDL
MODEL 2
REMARK VINA RESULT:      -5.9     28.143     30.127
REMARK  Name = 146929355
REMARK  5 active torsions:
REMARK  status: ('A' for Active; 'I' for Inactive)
REMARK    1  A    between atoms: O_5  and  N_8
REMARK    2  A    between atoms: O_5  and  C_21
REMARK    3  A    between atoms: C_9  and  C_14
REMARK    4  A    between atoms: C_10  and  C_12
REMARK    5  A    between atoms: C_20  and  C_21
REMARK                            x       y       z     vdW  Elec       q    Type
REMARK                         _______ _______ _______ _____ _____    ______ ____
ROOT
ATOM      1  S   UNL     1      15.616  12.805  21.777  0.00  0.00    +0.000 S 
ATOM      2  N   UNL     1      13.584  11.981  23.137  0.00  0.00    +0.000 N 
ATOM      3  N   UNL     1      13.134  13.994  22.268  0.00  0.00    +0.000 NA
ATOM      4  C   UNL     1      12.294  12.257  23.542  0.00  0.00    +0.000 A 
ATOM      5  C   UNL     1      12.057  13.529  23.000  0.00  0.00    +0.000 A 
ATOM      6  C   UNL     1      14.013  13.046  22.400  0.00  0.00    +0.000 A 
ATOM      7  C   UNL     1      14.498  10.947  23.217  0.00  0.00    +0.000 A 
ATOM      8  C   UNL     1      15.641  11.226  22.564  0.00  0.00    +0.000 A 
ENDROOT
BRANCH   5  10
ATOM      9 BR   UNL     1       6.875  16.831  23.309  0.00  0.00    +0.000 Br
ATOM     10  C   UNL     1      10.836  14.319  23.104  0.00  0.00    +0.000 A 
ATOM     11  C   UNL     1       9.857  14.195  22.106  0.00  0.00    +0.000 A 
ATOM     12  C   UNL     1      10.625  15.233  24.146  0.00  0.00    +0.000 A 
ATOM     13  C   UNL     1       8.677  14.942  22.164  0.00  0.00    +0.000 A 
ATOM     14  C   UNL     1       9.441  15.975  24.210  0.00  0.00    +0.000 A 
ATOM     15  C   UNL     1       8.471  15.823  23.221  0.00  0.00    +0.000 A 
ENDBRANCH   5  10
BRANCH   4  17
ATOM     16  N   UNL     1      10.672  10.391  23.777  0.00  0.00    +0.000 NA
ATOM     17  C   UNL     1      11.364  11.396  24.226  0.00  0.00    +0.000 C 
BRANCH  16  18
ATOM     18  O   UNL     1      10.987  10.059  22.460  0.00  0.00    +0.000 OA
BRANCH  18  19
ATOM     19  C   UNL     1      10.972   8.636  22.312  0.00  0.00    +0.000 C 
BRANCH  19  22
ATOM     20 CL   UNL     1      15.151   6.490  20.130  0.00  0.00    +0.000 Cl
ATOM     21 CL   UNL     1      14.012   7.437  17.232  0.00  0.00    +0.000 Cl
ATOM     22  C   UNL     1      11.710   8.316  21.038  0.00  0.00    +0.000 A 
ATOM     23  C   UNL     1      12.926   7.613  21.106  0.00  0.00    +0.000 A 
ATOM     24  C   UNL     1      11.223   8.712  19.788  0.00  0.00    +0.000 A 
ATOM     25  C   UNL     1      13.654   7.331  19.948  0.00  0.00    +0.000 A 
ATOM     26  C   UNL     1      11.947   8.427  18.630  0.00  0.00    +0.000 A 
ATOM     27  C   UNL     1      13.163   7.741  18.706  0.00  0.00    +0.000 A 
ENDBRANCH  19  22
ENDBRANCH  18  19
ENDBRANCH  16  18
ENDBRANCH   4  17
TORSDOF 5
ENDMDL
MODEL 3
REMARK VINA RESULT:      -5.5     28.856     30.816
REMARK  Name = 146929355
REMARK  5 active torsions:
REMARK  status: ('A' for Active; 'I' for Inactive)
REMARK    1  A    between atoms: O_5  and  N_8
REMARK    2  A    between atoms: O_5  and  C_21
REMARK    3  A    between atoms: C_9  and  C_14
REMARK    4  A    between atoms: C_10  and  C_12
REMARK    5  A    between atoms: C_20  and  C_21
REMARK                            x       y       z     vdW  Elec       q    Type
REMARK                         _______ _______ _______ _____ _____    ______ ____
ROOT
ATOM      1  S   UNL     1      14.318  16.064  25.592  0.00  0.00    +0.000 S 
ATOM      2  N   UNL     1      12.427  14.308  25.541  0.00  0.00    +0.000 N 
ATOM      3  N   UNL     1      12.030  15.880  23.997  0.00  0.00    +0.000 NA
ATOM      4  C   UNL     1      11.258  13.909  24.928  0.00  0.00    +0.000 A 
ATOM      5  C   UNL     1      11.030  14.925  23.987  0.00  0.00    +0.000 A 
ATOM      6  C   UNL     1      12.818  15.474  24.947  0.00  0.00    +0.000 A 
ATOM      7  C   UNL     1      13.305  13.846  26.504  0.00  0.00    +0.000 A 
ATOM      8  C   UNL     1      14.357  14.668  26.671  0.00  0.00    +0.000 A 
ENDROOT
BRANCH   5  10
ATOM      9 BR   UNL     1       6.461  15.346  19.888  0.00  0.00    +0.000 Br
ATOM     10  C   UNL     1       9.926  15.019  23.040  0.00  0.00    +0.000 A 
ATOM     11  C   UNL     1      10.204  14.993  21.664  0.00  0.00    +0.000 A 
ATOM     12  C   UNL     1       8.597  15.180  23.456  0.00  0.00    +0.000 A 
ATOM     13  C   UNL     1       9.175  15.090  20.723  0.00  0.00    +0.000 A 
ATOM     14  C   UNL     1       7.565  15.268  22.516  0.00  0.00    +0.000 A 
ATOM     15  C   UNL     1       7.858  15.219  21.154  0.00  0.00    +0.000 A 
ENDBRANCH   5  10
BRANCH   4  17
ATOM     16  N   UNL     1      10.626  11.552  24.465  0.00  0.00    +0.000 NA
ATOM     17  C   UNL     1      10.526  12.681  25.102  0.00  0.00    +0.000 C 
BRANCH  16  18
ATOM     18  O   UNL     1      11.685  11.532  23.558  0.00  0.00    +0.000 OA
BRANCH  18  19
ATOM     19  C   UNL     1      11.177  11.687  22.230  0.00  0.00    +0.000 C 
BRANCH  19  22
ATOM     20 CL   UNL     1      10.839   6.547  21.687  0.00  0.00    +0.000 Cl
ATOM     21 CL   UNL     1      12.926   6.764  19.198  0.00  0.00    +0.000 Cl
ATOM     22  C   UNL     1      11.596  10.467  21.451  0.00  0.00    +0.000 A 
ATOM     23  C   UNL     1      11.091   9.208  21.821  0.00  0.00    +0.000 A 
ATOM     24  C   UNL     1      12.486  10.554  20.375  0.00  0.00    +0.000 A 
ATOM     25  C   UNL     1      11.486   8.053  21.143  0.00  0.00    +0.000 A 
ATOM     26  C   UNL     1      12.877   9.400  19.695  0.00  0.00    +0.000 A 
ATOM     27  C   UNL     1      12.384   8.150  20.077  0.00  0.00    +0.000 A 
ENDBRANCH  19  22
ENDBRANCH  18  19
ENDBRANCH  16  18
ENDBRANCH   4  17
TORSDOF 5
ENDMDL
MODEL 4
REMARK VINA RESULT:      -5.4     28.509     30.182
REMARK  Name = 146929355
REMARK  5 active torsions:
REMARK  status: ('A' for Active; 'I' for Inactive)
REMARK    1  A    between atoms: O_5  and  N_8
REMARK    2  A    between atoms: O_5  and  C_21
REMARK    3  A    between atoms: C_9  and  C_14
REMARK    4  A    between atoms: C_10  and  C_12
REMARK    5  A    between atoms: C_20  and  C_21
REMARK                            x       y       z     vdW  Elec       q    Type
REMARK                         _______ _______ _______ _____ _____    ______ ____
ROOT
ATOM      1  S   UNL     1      14.601  14.921  21.478  0.00  0.00    +0.000 S 
ATOM      2  N   UNL     1      13.205  13.668  23.250  0.00  0.00    +0.000 N 
ATOM      3  N   UNL     1      13.560  12.328  21.492  0.00  0.00    +0.000 NA
ATOM      4  C   UNL     1      12.593  12.479  23.587  0.00  0.00    +0.000 A 
ATOM      5  C   UNL     1      12.816  11.676  22.458  0.00  0.00    +0.000 A 
ATOM      6  C   UNL     1      13.746  13.506  22.006  0.00  0.00    +0.000 A 
ATOM      7  C   UNL     1      13.464  14.901  23.819  0.00  0.00    +0.000 A 
ATOM      8  C   UNL     1      14.180  15.697  23.006  0.00  0.00    +0.000 A 
ENDROOT
BRANCH   5  10
ATOM      9 BR   UNL     1      11.152   5.820  21.566  0.00  0.00    +0.000 Br
ATOM     10  C   UNL     1      12.393  10.295  22.260  0.00  0.00    +0.000 A 
ATOM     11  C   UNL     1      13.354   9.328  21.929  0.00  0.00    +0.000 A 
ATOM     12  C   UNL     1      11.048   9.907  22.347  0.00  0.00    +0.000 A 
ATOM     13  C   UNL     1      12.988   7.995  21.721  0.00  0.00    +0.000 A 
ATOM     14  C   UNL     1      10.681   8.572  22.148  0.00  0.00    +0.000 A 
ATOM     15  C   UNL     1      11.653   7.622  21.840  0.00  0.00    +0.000 A 
ENDBRANCH   5  10
BRANCH   4  17
ATOM     16  N   UNL     1      10.774  12.232  25.259  0.00  0.00    +0.000 NA
ATOM     17  C   UNL     1      11.998  12.099  24.842  0.00  0.00    +0.000 C 
BRANCH  16  18
ATOM     18  O   UNL     1       9.914  12.719  24.275  0.00  0.00    +0.000 OA
BRANCH  18  19
ATOM     19  C   UNL     1       9.874  14.148  24.345  0.00  0.00    +0.000 C 
BRANCH  19  22
ATOM     20 CL   UNL     1       5.710  15.787  21.737  0.00  0.00    +0.000 Cl
ATOM     21 CL   UNL     1       7.576  16.012  19.079  0.00  0.00    +0.000 Cl
ATOM     22  C   UNL     1       9.315  14.639  23.035  0.00  0.00    +0.000 A 
ATOM     23  C   UNL     1       7.955  14.986  22.955  0.00  0.00    +0.000 A 
ATOM     24  C   UNL     1      10.113  14.747  21.891  0.00  0.00    +0.000 A 
ATOM     25  C   UNL     1       7.396  15.411  21.748  0.00  0.00    +0.000 A 
ATOM     26  C   UNL     1       9.556  15.176  20.686  0.00  0.00    +0.000 A 
ATOM     27  C   UNL     1       8.199  15.504  20.609  0.00  0.00    +0.000 A 
ENDBRANCH  19  22
ENDBRANCH  18  19
ENDBRANCH  16  18
ENDBRANCH   4  17
TORSDOF 5
ENDMDL
MODEL 5
REMARK VINA RESULT:      -5.4     29.407     31.053
REMARK  Name = 146929355
REMARK  5 active torsions:
REMARK  status: ('A' for Active; 'I' for Inactive)
REMARK    1  A    between atoms: O_5  and  N_8
REMARK    2  A    between atoms: O_5  and  C_21
REMARK    3  A    between atoms: C_9  and  C_14
REMARK    4  A    between atoms: C_10  and  C_12
REMARK    5  A    between atoms: C_20  and  C_21
REMARK                            x       y       z     vdW  Elec       q    Type
REMARK                         _______ _______ _______ _____ _____    ______ ____
ROOT
ATOM      1  S   UNL     1       2.560  18.181  19.063  0.00  0.00    +0.000 S 
ATOM      2  N   UNL     1       3.431  16.795  21.058  0.00  0.00    +0.000 N 
ATOM      3  N   UNL     1       2.647  18.757  21.797  0.00  0.00    +0.000 NA
ATOM      4  C   UNL     1       3.596  16.745  22.426  0.00  0.00    +0.000 A 
ATOM      5  C   UNL     1       3.117  17.994  22.850  0.00  0.00    +0.000 A 
ATOM      6  C   UNL     1       2.874  18.006  20.761  0.00  0.00    +0.000 A 
ATOM      7  C   UNL     1       3.608  15.974  19.960  0.00  0.00    +0.000 A 
ATOM      8  C   UNL     1       3.213  16.560  18.816  0.00  0.00    +0.000 A 
ENDROOT
BRANCH   5  10
ATOM      9 BR   UNL     1       2.660  20.112  28.608  0.00  0.00    +0.000 Br
ATOM     10  C   UNL     1       3.041  18.492  24.217  0.00  0.00    +0.000 A 
ATOM     11  C   UNL     1       1.787  18.584  24.841  0.00  0.00    +0.000 A 
ATOM     12  C   UNL     1       4.175  18.926  24.918  0.00  0.00    +0.000 A 
ATOM     13  C   UNL     1       1.670  19.066  26.148  0.00  0.00    +0.000 A 
ATOM     14  C   UNL     1       4.062  19.401  26.228  0.00  0.00    +0.000 A 
ATOM     15  C   UNL     1       2.810  19.465  26.839  0.00  0.00    +0.000 A 
ENDBRANCH   5  10
BRANCH   4  17
ATOM     16  N   UNL     1       3.321  14.854  24.013  0.00  0.00    +0.000 NA
ATOM     17  C   UNL     1       4.018  15.634  23.241  0.00  0.00    +0.000 C 
BRANCH  16  18
ATOM     18  O   UNL     1       1.949  15.091  23.930  0.00  0.00    +0.000 OA
BRANCH  18  19
ATOM     19  C   UNL     1       1.375  14.218  22.952  0.00  0.00    +0.000 C 
BRANCH  19  22
ATOM     20 CL   UNL     1      -1.465  18.542  22.673  0.00  0.00    +0.000 Cl
ATOM     21 CL   UNL     1      -2.685  17.449  19.860  0.00  0.00    +0.000 Cl
ATOM     22  C   UNL     1       0.384  15.031  22.161  0.00  0.00    +0.000 A 
ATOM     23  C   UNL     1      -0.038  16.277  22.660  0.00  0.00    +0.000 A 
ATOM     24  C   UNL     1      -0.138  14.573  20.947  0.00  0.00    +0.000 A 
ATOM     25  C   UNL     1      -0.983  17.040  21.970  0.00  0.00    +0.000 A 
ATOM     26  C   UNL     1      -1.079  15.337  20.255  0.00  0.00    +0.000 A 
ATOM     27  C   UNL     1      -1.506  16.566  20.764  0.00  0.00    +0.000 A 
ENDBRANCH  19  22
ENDBRANCH  18  19
ENDBRANCH  16  18
ENDBRANCH   4  17
TORSDOF 5
ENDMDL
MODEL 6
REMARK VINA RESULT:      -5.3      4.427      6.157
REMARK  Name = 146929355
REMARK  5 active torsions:
REMARK  status: ('A' for Active; 'I' for Inactive)
REMARK    1  A    between atoms: O_5  and  N_8
REMARK    2  A    between atoms: O_5  and  C_21
REMARK    3  A    between atoms: C_9  and  C_14
REMARK    4  A    between atoms: C_10  and  C_12
REMARK    5  A    between atoms: C_20  and  C_21
REMARK                            x       y       z     vdW  Elec       q    Type
REMARK                         _______ _______ _______ _____ _____    ______ ____
ROOT
ATOM      1  S   UNL     1     -11.928 -11.058  14.657  0.00  0.00    +0.000 S 
ATOM      2  N   UNL     1      -9.696 -10.251  15.671  0.00  0.00    +0.000 N 
ATOM      3  N   UNL     1      -9.424 -10.646  13.485  0.00  0.00    +0.000 NA
ATOM      4  C   UNL     1      -8.379  -9.929  15.419  0.00  0.00    +0.000 A 
ATOM      5  C   UNL     1      -8.240 -10.209  14.050  0.00  0.00    +0.000 A 
ATOM      6  C   UNL     1     -10.244 -10.669  14.492  0.00  0.00    +0.000 A 
ATOM      7  C   UNL     1     -10.591 -10.214  16.724  0.00  0.00    +0.000 A 
ATOM      8  C   UNL     1     -11.819 -10.627  16.365  0.00  0.00    +0.000 A 
ENDROOT
BRANCH   5  10
ATOM      9 BR   UNL     1      -3.268  -9.431  10.512  0.00  0.00    +0.000 Br
ATOM     10  C   UNL     1      -7.046 -10.043  13.233  0.00  0.00    +0.000 A 
ATOM     11  C   UNL     1      -7.031  -9.052  12.239  0.00  0.00    +0.000 A 
ATOM     12  C   UNL     1      -5.923 -10.871  13.375  0.00  0.00    +0.000 A 
ATOM     13  C   UNL     1      -5.909  -8.868  11.427  0.00  0.00    +0.000 A 
ATOM     14  C   UNL     1      -4.795 -10.682  12.570  0.00  0.00    +0.000 A 
ATOM     15  C   UNL     1      -4.792  -9.679  11.602  0.00  0.00    +0.000 A 
ENDBRANCH   5  10
BRANCH   4  17
ATOM     16  N   UNL     1      -6.615  -9.861  17.166  0.00  0.00    +0.000 NA
ATOM     17  C   UNL     1      -7.419  -9.317  16.300  0.00  0.00    +0.000 C 
BRANCH  16  18
ATOM     18  O   UNL     1      -6.638 -11.255  17.127  0.00  0.00    +0.000 OA
BRANCH  18  19
ATOM     19  C   UNL     1      -5.461 -11.767  17.759  0.00  0.00    +0.000 C 
BRANCH  19  22
ATOM     20 CL   UNL     1      -1.305 -10.094  15.158  0.00  0.00    +0.000 Cl
ATOM     21 CL   UNL     1      -1.490 -12.775  13.321  0.00  0.00    +0.000 Cl
ATOM     22  C   UNL     1      -4.457 -12.039  16.669  0.00  0.00    +0.000 A 
ATOM     23  C   UNL     1      -3.434 -11.105  16.428  0.00  0.00    +0.000 A 
ATOM     24  C   UNL     1      -4.525 -13.193  15.881  0.00  0.00    +0.000 A 
ATOM     25  C   UNL     1      -2.508 -11.309  15.401  0.00  0.00    +0.000 A 
ATOM     26  C   UNL     1      -3.598 -13.399  14.858  0.00  0.00    +0.000 A 
ATOM     27  C   UNL     1      -2.593 -12.460  14.613  0.00  0.00    +0.000 A 
ENDBRANCH  19  22
ENDBRANCH  18  19
ENDBRANCH  16  18
ENDBRANCH   4  17
TORSDOF 5
ENDMDL
MODEL 7
REMARK VINA RESULT:      -5.2     16.944     19.416
REMARK  Name = 146929355
REMARK  5 active torsions:
REMARK  status: ('A' for Active; 'I' for Inactive)
REMARK    1  A    between atoms: O_5  and  N_8
REMARK    2  A    between atoms: O_5  and  C_21
REMARK    3  A    between atoms: C_9  and  C_14
REMARK    4  A    between atoms: C_10  and  C_12
REMARK    5  A    between atoms: C_20  and  C_21
REMARK                            x       y       z     vdW  Elec       q    Type
REMARK                         _______ _______ _______ _____ _____    ______ ____
ROOT
ATOM      1  S   UNL     1       2.242 -18.664   2.738  0.00  0.00    +0.000 S 
ATOM      2  N   UNL     1       3.670 -16.923   1.477  0.00  0.00    +0.000 N 
ATOM      3  N   UNL     1       4.512 -18.969   1.136  0.00  0.00    +0.000 NA
ATOM      4  C   UNL     1       4.746 -16.724   0.639  0.00  0.00    +0.000 A 
ATOM      5  C   UNL     1       5.259 -18.019   0.467  0.00  0.00    +0.000 A 
ATOM      6  C   UNL     1       3.597 -18.263   1.731  0.00  0.00    +0.000 A 
ATOM      7  C   UNL     1       2.654 -16.186   2.057  0.00  0.00    +0.000 A 
ATOM      8  C   UNL     1       1.815 -16.952   2.777  0.00  0.00    +0.000 A 
ENDROOT
BRANCH   5  10
ATOM      9 BR   UNL     1      10.185 -19.603  -2.861  0.00  0.00    +0.000 Br
ATOM     10  C   UNL     1       6.407 -18.413  -0.340  0.00  0.00    +0.000 A 
ATOM     11  C   UNL     1       7.700 -18.156   0.142  0.00  0.00    +0.000 A 
ATOM     12  C   UNL     1       6.264 -18.999  -1.606  0.00  0.00    +0.000 A 
ATOM     13  C   UNL     1       8.827 -18.509  -0.606  0.00  0.00    +0.000 A 
ATOM     14  C   UNL     1       7.390 -19.361  -2.352  0.00  0.00    +0.000 A 
ATOM     15  C   UNL     1       8.666 -19.118  -1.847  0.00  0.00    +0.000 A 
ENDBRANCH   5  10
BRANCH   4  17
ATOM     16  N   UNL     1       4.721 -14.965  -1.115  0.00  0.00    +0.000 NA
ATOM     17  C   UNL     1       5.160 -15.511  -0.019  0.00  0.00    +0.000 C 
BRANCH  16  18
ATOM     18  O   UNL     1       3.611 -15.623  -1.644  0.00  0.00    +0.000 OA
BRANCH  18  19
ATOM     19  C   UNL     1       2.506 -14.716  -1.706  0.00  0.00    +0.000 C 
BRANCH  19  22
ATOM     20 CL   UNL     1       0.896 -10.850  -4.755  0.00  0.00    +0.000 Cl
ATOM     21 CL   UNL     1       2.424 -12.296  -7.240  0.00  0.00    +0.000 Cl
ATOM     22  C   UNL     1       2.514 -14.104  -3.083  0.00  0.00    +0.000 A 
ATOM     23  C   UNL     1       1.830 -12.895  -3.302  0.00  0.00    +0.000 A 
ATOM     24  C   UNL     1       3.176 -14.714  -4.154  0.00  0.00    +0.000 A 
ATOM     25  C   UNL     1       1.786 -12.319  -4.574  0.00  0.00    +0.000 A 
ATOM     26  C   UNL     1       3.137 -14.137  -5.423  0.00  0.00    +0.000 A 
ATOM     27  C   UNL     1       2.441 -12.944  -5.638  0.00  0.00    +0.000 A 
ENDBRANCH  19  22
ENDBRANCH  18  19
ENDBRANCH  16  18
ENDBRANCH   4  17
TORSDOF 5
ENDMDL
MODEL 8
REMARK VINA RESULT:      -5.1     29.149     30.817
REMARK  Name = 146929355
REMARK  5 active torsions:
REMARK  status: ('A' for Active; 'I' for Inactive)
REMARK    1  A    between atoms: O_5  and  N_8
REMARK    2  A    between atoms: O_5  and  C_21
REMARK    3  A    between atoms: C_9  and  C_14
REMARK    4  A    between atoms: C_10  and  C_12
REMARK    5  A    between atoms: C_20  and  C_21
REMARK                            x       y       z     vdW  Elec       q    Type
REMARK                         _______ _______ _______ _____ _____    ______ ____
ROOT
ATOM      1  S   UNL     1      10.168  15.570  21.535  0.00  0.00    +0.000 S 
ATOM      2  N   UNL     1      10.384  13.469  23.018  0.00  0.00    +0.000 N 
ATOM      3  N   UNL     1      11.413  13.113  21.062  0.00  0.00    +0.000 NA
ATOM      4  C   UNL     1      10.903  12.196  23.122  0.00  0.00    +0.000 A 
ATOM      5  C   UNL     1      11.518  12.000  21.876  0.00  0.00    +0.000 A 
ATOM      6  C   UNL     1      10.717  13.942  21.781  0.00  0.00    +0.000 A 
ATOM      7  C   UNL     1       9.702  14.380  23.803  0.00  0.00    +0.000 A 
ATOM      8  C   UNL     1       9.488  15.544  23.164  0.00  0.00    +0.000 A 
ENDROOT
BRANCH   5  10
ATOM      9 BR   UNL     1      14.462   6.943  19.978  0.00  0.00    +0.000 Br
ATOM     10  C   UNL     1      12.243  10.819  21.426  0.00  0.00    +0.000 A 
ATOM     11  C   UNL     1      11.520   9.720  20.937  0.00  0.00    +0.000 A 
ATOM     12  C   UNL     1      13.640  10.725  21.507  0.00  0.00    +0.000 A 
ATOM     13  C   UNL     1      12.177   8.564  20.506  0.00  0.00    +0.000 A 
ATOM     14  C   UNL     1      14.300   9.573  21.068  0.00  0.00    +0.000 A 
ATOM     15  C   UNL     1      13.567   8.500  20.565  0.00  0.00    +0.000 A 
ENDBRANCH   5  10
BRANCH   4  17
ATOM     16  N   UNL     1      11.638  11.422  25.365  0.00  0.00    +0.000 NA
ATOM     17  C   UNL     1      10.937  11.331  24.274  0.00  0.00    +0.000 C 
BRANCH  16  18
ATOM     18  O   UNL     1      12.373  12.605  25.442  0.00  0.00    +0.000 OA
BRANCH  18  19
ATOM     19  C   UNL     1      13.742  12.296  25.716  0.00  0.00    +0.000 C 
BRANCH  19  22
ATOM     20 CL   UNL     1      14.051  15.472  21.636  0.00  0.00    +0.000 Cl
ATOM     21 CL   UNL     1      16.883  14.062  20.868  0.00  0.00    +0.000 Cl
ATOM     22  C   UNL     1      14.545  12.751  24.525  0.00  0.00    +0.000 A 
ATOM     23  C   UNL     1      14.050  13.789  23.718  0.00  0.00    +0.000 A 
ATOM     24  C   UNL     1      15.768  12.156  24.194  0.00  0.00    +0.000 A 
ATOM     25  C   UNL     1      14.751  14.211  22.585  0.00  0.00    +0.000 A 
ATOM     26  C   UNL     1      16.471  12.579  23.066  0.00  0.00    +0.000 A 
ATOM     27  C   UNL     1      15.965  13.602  22.258  0.00  0.00    +0.000 A 
ENDBRANCH  19  22
ENDBRANCH  18  19
ENDBRANCH  16  18
ENDBRANCH   4  17
TORSDOF 5
ENDMDL
MODEL 9
REMARK VINA RESULT:      -5.1     28.897     30.515
REMARK  Name = 146929355
REMARK  5 active torsions:
REMARK  status: ('A' for Active; 'I' for Inactive)
REMARK    1  A    between atoms: O_5  and  N_8
REMARK    2  A    between atoms: O_5  and  C_21
REMARK    3  A    between atoms: C_9  and  C_14
REMARK    4  A    between atoms: C_10  and  C_12
REMARK    5  A    between atoms: C_20  and  C_21
REMARK                            x       y       z     vdW  Elec       q    Type
REMARK                         _______ _______ _______ _____ _____    ______ ____
ROOT
ATOM      1  S   UNL     1       6.239  16.280  20.699  0.00  0.00    +0.000 S 
ATOM      2  N   UNL     1       4.167  15.803  22.161  0.00  0.00    +0.000 N 
ATOM      3  N   UNL     1       3.522  16.179  20.051  0.00  0.00    +0.000 NA
ATOM      4  C   UNL     1       2.796  15.653  22.182  0.00  0.00    +0.000 A 
ATOM      5  C   UNL     1       2.427  15.917  20.854  0.00  0.00    +0.000 A 
ATOM      6  C   UNL     1       4.520  16.116  20.880  0.00  0.00    +0.000 A 
ATOM      7  C   UNL     1       5.239  15.672  23.024  0.00  0.00    +0.000 A 
ATOM      8  C   UNL     1       6.415  15.908  22.415  0.00  0.00    +0.000 A 
ENDROOT
BRANCH   5  10
ATOM      9 BR   UNL     1      -3.214  15.928  18.400  0.00  0.00    +0.000 Br
ATOM     10  C   UNL     1       1.084  15.893  20.290  0.00  0.00    +0.000 A 
ATOM     11  C   UNL     1       0.802  16.683  19.164  0.00  0.00    +0.000 A 
ATOM     12  C   UNL     1       0.048  15.141  20.861  0.00  0.00    +0.000 A 
ATOM     13  C   UNL     1      -0.476  16.696  18.599  0.00  0.00    +0.000 A 
ATOM     14  C   UNL     1      -1.230  15.146  20.293  0.00  0.00    +0.000 A 
ATOM     15  C   UNL     1      -1.485  15.920  19.162  0.00  0.00    +0.000 A 
ENDBRANCH   5  10
BRANCH   4  17
ATOM     16  N   UNL     1       1.185  15.870  24.060  0.00  0.00    +0.000 NA
ATOM     17  C   UNL     1       1.958  15.196  23.261  0.00  0.00    +0.000 C 
BRANCH  16  18
ATOM     18  O   UNL     1       1.098  17.220  23.722  0.00  0.00    +0.000 OA
BRANCH  18  19
ATOM     19  C   UNL     1      -0.274  17.626  23.739  0.00  0.00    +0.000 C 
BRANCH  19  22
ATOM     20 CL   UNL     1       1.739  20.841  20.212  0.00  0.00    +0.000 Cl
ATOM     21 CL   UNL     1      -1.205  21.029  18.836  0.00  0.00    +0.000 Cl
ATOM     22  C   UNL     1      -0.508  18.449  22.499  0.00  0.00    +0.000 A 
ATOM     23  C   UNL     1       0.563  19.168  21.940  0.00  0.00    +0.000 A 
ATOM     24  C   UNL     1      -1.768  18.528  21.897  0.00  0.00    +0.000 A 
ATOM     25  C   UNL     1       0.374  19.970  20.812  0.00  0.00    +0.000 A 
ATOM     26  C   UNL     1      -1.957  19.326  20.768  0.00  0.00    +0.000 A 
ATOM     27  C   UNL     1      -0.892  20.050  20.226  0.00  0.00    +0.000 A 
ENDBRANCH  19  22
ENDBRANCH  18  19
ENDBRANCH  16  18
ENDBRANCH   4  17
TORSDOF 5
ENDMDL
MODEL 10
REMARK VINA RESULT:      -5.1     29.572     31.497
REMARK  Name = 146929355
REMARK  5 active torsions:
REMARK  status: ('A' for Active; 'I' for Inactive)
REMARK    1  A    between atoms: O_5  and  N_8
REMARK    2  A    between atoms: O_5  and  C_21
REMARK    3  A    between atoms: C_9  and  C_14
REMARK    4  A    between atoms: C_10  and  C_12
REMARK    5  A    between atoms: C_20  and  C_21
REMARK                            x       y       z     vdW  Elec       q    Type
REMARK                         _______ _______ _______ _____ _____    ______ ____
ROOT
ATOM      1  S   UNL     1      15.500  14.100  22.446  0.00  0.00    +0.000 S 
ATOM      2  N   UNL     1      13.579  13.253  23.947  0.00  0.00    +0.000 N 
ATOM      3  N   UNL     1      12.873  15.007  22.750  0.00  0.00    +0.000 NA
ATOM      4  C   UNL     1      12.259  13.416  24.311  0.00  0.00    +0.000 A 
ATOM      5  C   UNL     1      11.859  14.533  23.561  0.00  0.00    +0.000 A 
ATOM      6  C   UNL     1      13.871  14.224  23.034  0.00  0.00    +0.000 A 
ATOM      7  C   UNL     1      14.624  12.382  24.194  0.00  0.00    +0.000 A 
ATOM      8  C   UNL     1      15.727  12.697  23.492  0.00  0.00    +0.000 A 
ENDROOT
BRANCH   5  10
ATOM      9 BR   UNL     1       6.263  17.081  23.365  0.00  0.00    +0.000 Br
ATOM     10  C   UNL     1      10.541  15.155  23.540  0.00  0.00    +0.000 A 
ATOM     11  C   UNL     1       9.520  14.564  22.779  0.00  0.00    +0.000 A 
ATOM     12  C   UNL     1      10.270  16.351  24.220  0.00  0.00    +0.000 A 
ATOM     13  C   UNL     1       8.246  15.135  22.725  0.00  0.00    +0.000 A 
ATOM     14  C   UNL     1       8.993  16.919  24.173  0.00  0.00    +0.000 A 
ATOM     15  C   UNL     1       7.986  16.307  23.430  0.00  0.00    +0.000 A 
ENDBRANCH   5  10
BRANCH   4  17
ATOM     16  N   UNL     1      10.577  11.658  24.808  0.00  0.00    +0.000 NA
ATOM     17  C   UNL     1      11.444  12.567  25.142  0.00  0.00    +0.000 C 
BRANCH  16  18
ATOM     18  O   UNL     1      10.538  11.422  23.434  0.00  0.00    +0.000 OA
BRANCH  18  19
ATOM     19  C   UNL     1      11.133  10.152  23.153  0.00  0.00    +0.000 C 
BRANCH  19  22
ATOM     20 CL   UNL     1      12.932  13.051  19.255  0.00  0.00    +0.000 Cl
ATOM     21 CL   UNL     1      15.517  11.078  19.102  0.00  0.00    +0.000 Cl
ATOM     22  C   UNL     1      12.244  10.393  22.164  0.00  0.00    +0.000 A 
ATOM     23  C   UNL     1      12.151  11.480  21.277  0.00  0.00    +0.000 A 
ATOM     24  C   UNL     1      13.363   9.555  22.098  0.00  0.00    +0.000 A 
ATOM     25  C   UNL     1      13.146  11.711  20.324  0.00  0.00    +0.000 A 
ATOM     26  C   UNL     1      14.359   9.788  21.149  0.00  0.00    +0.000 A 
ATOM     27  C   UNL     1      14.253  10.861  20.259  0.00  0.00    +0.000 A 
ENDBRANCH  19  22
ENDBRANCH  18  19
ENDBRANCH  16  18
ENDBRANCH   4  17
TORSDOF 5
ENDMDL
