MODEL 1
REMARK VINA RESULT:      -5.4      0.000      0.000
REMARK  Name = 146929355
REMARK  5 active torsions:
REMARK  status: ('A' for Active; 'I' for Inactive)
REMARK    1  A    between atoms: O_5  and  N_8
REMARK    2  A    between atoms: O_5  and  C_21
REMARK    3  A    between atoms: C_9  and  C_14
REMARK    4  A    between atoms: C_10  and  C_12
REMARK    5  A    between atoms: C_20  and  C_21
REMARK                            x       y       z     vdW  Elec       q    Type
REMARK                         _______ _______ _______ _____ _____    ______ ____
ROOT
ATOM      1  S   UNL     1      -4.340   2.008 -31.385  0.00  0.00    +0.000 S 
ATOM      2  N   UNL     1      -5.531   1.393 -33.590  0.00  0.00    +0.000 N 
ATOM      3  N   UNL     1      -7.033   2.161 -32.119  0.00  0.00    +0.000 NA
ATOM      4  C   UNL     1      -6.732   1.362 -34.268  0.00  0.00    +0.000 A 
ATOM      5  C   UNL     1      -7.648   1.827 -33.311  0.00  0.00    +0.000 A 
ATOM      6  C   UNL     1      -5.786   1.867 -32.335  0.00  0.00    +0.000 A 
ATOM      7  C   UNL     1      -4.194   1.146 -33.837  0.00  0.00    +0.000 A 
ATOM      8  C   UNL     1      -3.422   1.403 -32.765  0.00  0.00    +0.000 A 
ENDROOT
BRANCH   5  10
ATOM      9 BR   UNL     1     -13.697   2.736 -33.973  0.00  0.00    +0.000 Br
ATOM     10  C   UNL     1      -9.083   2.013 -33.482  0.00  0.00    +0.000 A 
ATOM     11  C   UNL     1      -9.630   3.295 -33.314  0.00  0.00    +0.000 A 
ATOM     12  C   UNL     1      -9.946   0.945 -33.765  0.00  0.00    +0.000 A 
ATOM     13  C   UNL     1     -11.003   3.514 -33.459  0.00  0.00    +0.000 A 
ATOM     14  C   UNL     1     -11.319   1.163 -33.919  0.00  0.00    +0.000 A 
ATOM     15  C   UNL     1     -11.840   2.447 -33.770  0.00  0.00    +0.000 A 
ENDBRANCH   5  10
BRANCH   4  17
ATOM     16  N   UNL     1      -7.147   1.875 -36.663  0.00  0.00    +0.000 NA
ATOM     17  C   UNL     1      -6.973   1.069 -35.657  0.00  0.00    +0.000 C 
BRANCH  16  18
ATOM     18  O   UNL     1      -6.955   3.214 -36.325  0.00  0.00    +0.000 OA
BRANCH  18  19
ATOM     19  C   UNL     1      -7.394   4.044 -37.405  0.00  0.00    +0.000 C 
BRANCH  19  22
ATOM     20 CL   UNL     1      -9.953   7.657 -34.716  0.00  0.00    +0.000 Cl
ATOM     21 CL   UNL     1     -12.737   6.291 -35.707  0.00  0.00    +0.000 Cl
ATOM     22  C   UNL     1      -8.730   4.615 -37.009  0.00  0.00    +0.000 A 
ATOM     23  C   UNL     1      -8.774   5.748 -36.177  0.00  0.00    +0.000 A 
ATOM     24  C   UNL     1      -9.931   4.040 -37.438  0.00  0.00    +0.000 A 
ATOM     25  C   UNL     1      -9.996   6.283 -35.762  0.00  0.00    +0.000 A 
ATOM     26  C   UNL     1     -11.152   4.575 -37.027  0.00  0.00    +0.000 A 
ATOM     27  C   UNL     1     -11.189   5.692 -36.187  0.00  0.00    +0.000 A 
ENDBRANCH  19  22
ENDBRANCH  18  19
ENDBRANCH  16  18
ENDBRANCH   4  17
TORSDOF 5
ENDMDL
MODEL 2
REMARK VINA RESULT:      -5.3     24.511     26.405
REMARK  Name = 146929355
REMARK  5 active torsions:
REMARK  status: ('A' for Active; 'I' for Inactive)
REMARK    1  A    between atoms: O_5  and  N_8
REMARK    2  A    between atoms: O_5  and  C_21
REMARK    3  A    between atoms: C_9  and  C_14
REMARK    4  A    between atoms: C_10  and  C_12
REMARK    5  A    between atoms: C_20  and  C_21
REMARK                            x       y       z     vdW  Elec       q    Type
REMARK                         _______ _______ _______ _____ _____    ______ ____
ROOT
ATOM      1  S   UNL     1     -22.758   9.833 -59.817  0.00  0.00    +0.000 S 
ATOM      2  N   UNL     1     -21.070   9.519 -57.890  0.00  0.00    +0.000 N 
ATOM      3  N   UNL     1     -23.100   8.853 -57.221  0.00  0.00    +0.000 NA
ATOM      4  C   UNL     1     -20.885   9.078 -56.597  0.00  0.00    +0.000 A 
ATOM      5  C   UNL     1     -22.176   8.692 -56.205  0.00  0.00    +0.000 A 
ATOM      6  C   UNL     1     -22.394   9.363 -58.186  0.00  0.00    +0.000 A 
ATOM      7  C   UNL     1     -20.312   9.998 -58.942  0.00  0.00    +0.000 A 
ATOM      8  C   UNL     1     -21.054  10.234 -60.039  0.00  0.00    +0.000 A 
ENDROOT
BRANCH   5  10
ATOM      9 BR   UNL     1     -23.933   6.227 -50.849  0.00  0.00    +0.000 Br
ATOM     10  C   UNL     1     -22.578   8.132 -54.921  0.00  0.00    +0.000 A 
ATOM     11  C   UNL     1     -23.040   6.808 -54.868  0.00  0.00    +0.000 A 
ATOM     12  C   UNL     1     -22.562   8.888 -53.739  0.00  0.00    +0.000 A 
ATOM     13  C   UNL     1     -23.445   6.238 -53.658  0.00  0.00    +0.000 A 
ATOM     14  C   UNL     1     -22.958   8.316 -52.526  0.00  0.00    +0.000 A 
ATOM     15  C   UNL     1     -23.393   6.993 -52.490  0.00  0.00    +0.000 A 
ENDBRANCH   5  10
BRANCH   4  17
ATOM     16  N   UNL     1     -18.806   7.926 -55.876  0.00  0.00    +0.000 NA
ATOM     17  C   UNL     1     -19.652   8.913 -55.871  0.00  0.00    +0.000 C 
BRANCH  16  18
ATOM     18  O   UNL     1     -19.119   6.947 -56.819  0.00  0.00    +0.000 OA
BRANCH  18  19
ATOM     19  C   UNL     1     -19.386   5.711 -56.150  0.00  0.00    +0.000 C 
BRANCH  19  22
ATOM     20 CL   UNL     1     -22.976   6.104 -59.864  0.00  0.00    +0.000 Cl
ATOM     21 CL   UNL     1     -24.378   3.421 -58.665  0.00  0.00    +0.000 Cl
ATOM     22  C   UNL     1     -20.614   5.118 -56.789  0.00  0.00    +0.000 A 
ATOM     23  C   UNL     1     -21.178   5.749 -57.912  0.00  0.00    +0.000 A 
ATOM     24  C   UNL     1     -21.218   3.960 -56.285  0.00  0.00    +0.000 A 
ATOM     25  C   UNL     1     -22.337   5.246 -58.507  0.00  0.00    +0.000 A 
ATOM     26  C   UNL     1     -22.373   3.455 -56.882  0.00  0.00    +0.000 A 
ATOM     27  C   UNL     1     -22.938   4.096 -57.988  0.00  0.00    +0.000 A 
ENDBRANCH  19  22
ENDBRANCH  18  19
ENDBRANCH  16  18
ENDBRANCH   4  17
TORSDOF 5
ENDMDL
MODEL 3
REMARK VINA RESULT:      -5.3     24.586     26.833
REMARK  Name = 146929355
REMARK  5 active torsions:
REMARK  status: ('A' for Active; 'I' for Inactive)
REMARK    1  A    between atoms: O_5  and  N_8
REMARK    2  A    between atoms: O_5  and  C_21
REMARK    3  A    between atoms: C_9  and  C_14
REMARK    4  A    between atoms: C_10  and  C_12
REMARK    5  A    between atoms: C_20  and  C_21
REMARK                            x       y       z     vdW  Elec       q    Type
REMARK                         _______ _______ _______ _____ _____    ______ ____
ROOT
ATOM      1  S   UNL     1     -24.237   9.174 -60.226  0.00  0.00    +0.000 S 
ATOM      2  N   UNL     1     -22.474  10.181 -58.633  0.00  0.00    +0.000 N 
ATOM      3  N   UNL     1     -23.824   8.814 -57.485  0.00  0.00    +0.000 NA
ATOM      4  C   UNL     1     -21.986  10.210 -57.343  0.00  0.00    +0.000 A 
ATOM      5  C   UNL     1     -22.867   9.364 -56.652  0.00  0.00    +0.000 A 
ATOM      6  C   UNL     1     -23.554   9.346 -58.639  0.00  0.00    +0.000 A 
ATOM      7  C   UNL     1     -22.151  10.691 -59.877  0.00  0.00    +0.000 A 
ATOM      8  C   UNL     1     -22.997  10.271 -60.835  0.00  0.00    +0.000 A 
ENDROOT
BRANCH   5  10
ATOM      9 BR   UNL     1     -22.657   7.747 -50.720  0.00  0.00    +0.000 Br
ATOM     10  C   UNL     1     -22.825   9.012 -55.239  0.00  0.00    +0.000 A 
ATOM     11  C   UNL     1     -22.248   7.790 -54.857  0.00  0.00    +0.000 A 
ATOM     12  C   UNL     1     -23.381   9.832 -54.248  0.00  0.00    +0.000 A 
ATOM     13  C   UNL     1     -22.196   7.410 -53.513  0.00  0.00    +0.000 A 
ATOM     14  C   UNL     1     -23.323   9.459 -52.901  0.00  0.00    +0.000 A 
ATOM     15  C   UNL     1     -22.728   8.251 -52.540  0.00  0.00    +0.000 A 
ENDBRANCH   5  10
BRANCH   4  17
ATOM     16  N   UNL     1     -19.540  10.514 -57.040  0.00  0.00    +0.000 NA
ATOM     17  C   UNL     1     -20.786  10.835 -56.850  0.00  0.00    +0.000 C 
BRANCH  16  18
ATOM     18  O   UNL     1     -19.380   9.470 -57.950  0.00  0.00    +0.000 OA
BRANCH  18  19
ATOM     19  C   UNL     1     -18.566   8.449 -57.365  0.00  0.00    +0.000 C 
BRANCH  19  22
ATOM     20 CL   UNL     1     -22.638   5.783 -59.137  0.00  0.00    +0.000 Cl
ATOM     21 CL   UNL     1     -22.093   3.578 -56.804  0.00  0.00    +0.000 Cl
ATOM     22  C   UNL     1     -19.423   7.218 -57.237  0.00  0.00    +0.000 A 
ATOM     23  C   UNL     1     -20.493   7.029 -58.129  0.00  0.00    +0.000 A 
ATOM     24  C   UNL     1     -19.190   6.261 -56.243  0.00  0.00    +0.000 A 
ATOM     25  C   UNL     1     -21.330   5.916 -58.016  0.00  0.00    +0.000 A 
ATOM     26  C   UNL     1     -20.023   5.148 -56.132  0.00  0.00    +0.000 A 
ATOM     27  C   UNL     1     -21.095   4.973 -57.012  0.00  0.00    +0.000 A 
ENDBRANCH  19  22
ENDBRANCH  18  19
ENDBRANCH  16  18
ENDBRANCH   4  17
TORSDOF 5
ENDMDL
MODEL 4
REMARK VINA RESULT:      -5.0      5.606      8.180
REMARK  Name = 146929355
REMARK  5 active torsions:
REMARK  status: ('A' for Active; 'I' for Inactive)
REMARK    1  A    between atoms: O_5  and  N_8
REMARK    2  A    between atoms: O_5  and  C_21
REMARK    3  A    between atoms: C_9  and  C_14
REMARK    4  A    between atoms: C_10  and  C_12
REMARK    5  A    between atoms: C_20  and  C_21
REMARK                            x       y       z     vdW  Elec       q    Type
REMARK                         _______ _______ _______ _____ _____    ______ ____
ROOT
ATOM      1  S   UNL     1     -15.454   7.778 -35.430  0.00  0.00    +0.000 S 
ATOM      2  N   UNL     1     -13.742   6.400 -34.078  0.00  0.00    +0.000 N 
ATOM      3  N   UNL     1     -12.768   7.190 -35.932  0.00  0.00    +0.000 NA
ATOM      4  C   UNL     1     -12.438   5.956 -34.005  0.00  0.00    +0.000 A 
ATOM      5  C   UNL     1     -11.868   6.449 -35.189  0.00  0.00    +0.000 A 
ATOM      6  C   UNL     1     -13.863   7.111 -35.237  0.00  0.00    +0.000 A 
ATOM      7  C   UNL     1     -14.891   6.376 -33.311  0.00  0.00    +0.000 A 
ATOM      8  C   UNL     1     -15.904   7.046 -33.889  0.00  0.00    +0.000 A 
ENDROOT
BRANCH   5  10
ATOM      9 BR   UNL     1      -6.074   5.642 -37.096  0.00  0.00    +0.000 Br
ATOM     10  C   UNL     1     -10.490   6.290 -35.637  0.00  0.00    +0.000 A 
ATOM     11  C   UNL     1     -10.112   5.094 -36.266  0.00  0.00    +0.000 A 
ATOM     12  C   UNL     1      -9.516   7.275 -35.421  0.00  0.00    +0.000 A 
ATOM     13  C   UNL     1      -8.798   4.897 -36.701  0.00  0.00    +0.000 A 
ATOM     14  C   UNL     1      -8.203   7.085 -35.863  0.00  0.00    +0.000 A 
ATOM     15  C   UNL     1      -7.851   5.898 -36.505  0.00  0.00    +0.000 A 
ENDBRANCH   5  10
BRANCH   4  17
ATOM     16  N   UNL     1     -11.218   5.767 -31.850  0.00  0.00    +0.000 NA
ATOM     17  C   UNL     1     -11.779   5.280 -32.917  0.00  0.00    +0.000 C 
BRANCH  16  18
ATOM     18  O   UNL     1     -11.397   7.143 -31.721  0.00  0.00    +0.000 OA
BRANCH  18  19
ATOM     19  C   UNL     1     -10.761   7.595 -30.522  0.00  0.00    +0.000 C 
BRANCH  19  22
ATOM     20 CL   UNL     1      -9.339  10.975 -34.180  0.00  0.00    +0.000 Cl
ATOM     21 CL   UNL     1      -8.027  12.818 -31.839  0.00  0.00    +0.000 Cl
ATOM     22  C   UNL     1     -10.103   8.913 -30.839  0.00  0.00    +0.000 A 
ATOM     23  C   UNL     1     -10.036   9.343 -32.176  0.00  0.00    +0.000 A 
ATOM     24  C   UNL     1      -9.545   9.714 -29.838  0.00  0.00    +0.000 A 
ATOM     25  C   UNL     1      -9.401  10.542 -32.510  0.00  0.00    +0.000 A 
ATOM     26  C   UNL     1      -8.914  10.914 -30.170  0.00  0.00    +0.000 A 
ATOM     27  C   UNL     1      -8.837  11.329 -31.502  0.00  0.00    +0.000 A 
ENDBRANCH  19  22
ENDBRANCH  18  19
ENDBRANCH  16  18
ENDBRANCH   4  17
TORSDOF 5
ENDMDL
MODEL 5
REMARK VINA RESULT:      -4.9     22.207     24.157
REMARK  Name = 146929355
REMARK  5 active torsions:
REMARK  status: ('A' for Active; 'I' for Inactive)
REMARK    1  A    between atoms: O_5  and  N_8
REMARK    2  A    between atoms: O_5  and  C_21
REMARK    3  A    between atoms: C_9  and  C_14
REMARK    4  A    between atoms: C_10  and  C_12
REMARK    5  A    between atoms: C_20  and  C_21
REMARK                            x       y       z     vdW  Elec       q    Type
REMARK                         _______ _______ _______ _____ _____    ______ ____
ROOT
ATOM      1  S   UNL     1     -14.517   9.940 -58.722  0.00  0.00    +0.000 S 
ATOM      2  N   UNL     1     -13.735  12.348 -58.221  0.00  0.00    +0.000 N 
ATOM      3  N   UNL     1     -12.514  10.902 -57.026  0.00  0.00    +0.000 NA
ATOM      4  C   UNL     1     -12.841  13.135 -57.528  0.00  0.00    +0.000 A 
ATOM      5  C   UNL     1     -12.111  12.200 -56.777  0.00  0.00    +0.000 A 
ATOM      6  C   UNL     1     -13.489  11.051 -57.873  0.00  0.00    +0.000 A 
ATOM      7  C   UNL     1     -14.728  12.495 -59.173  0.00  0.00    +0.000 A 
ATOM      8  C   UNL     1     -15.262  11.316 -59.538  0.00  0.00    +0.000 A 
ENDROOT
BRANCH   5  10
ATOM      9 BR   UNL     1      -7.562  13.413 -52.816  0.00  0.00    +0.000 Br
ATOM     10  C   UNL     1     -11.013  12.471 -55.858  0.00  0.00    +0.000 A 
ATOM     11  C   UNL     1     -11.304  12.935 -54.565  0.00  0.00    +0.000 A 
ATOM     12  C   UNL     1      -9.670  12.328 -56.236  0.00  0.00    +0.000 A 
ATOM     13  C   UNL     1     -10.279  13.216 -53.657  0.00  0.00    +0.000 A 
ATOM     14  C   UNL     1      -8.643  12.601 -55.326  0.00  0.00    +0.000 A 
ATOM     15  C   UNL     1      -8.953  13.040 -54.040  0.00  0.00    +0.000 A 
ENDBRANCH   5  10
BRANCH   4  17
ATOM     16  N   UNL     1     -13.065  15.536 -56.934  0.00  0.00    +0.000 NA
ATOM     17  C   UNL     1     -12.607  14.551 -57.649  0.00  0.00    +0.000 C 
BRANCH  16  18
ATOM     18  O   UNL     1     -13.800  15.110 -55.828  0.00  0.00    +0.000 OA
BRANCH  18  19
ATOM     19  C   UNL     1     -14.355  16.246 -55.160  0.00  0.00    +0.000 C 
BRANCH  19  22
ATOM     20 CL   UNL     1     -15.614  15.854 -50.151  0.00  0.00    +0.000 Cl
ATOM     21 CL   UNL     1     -12.458  16.181 -49.426  0.00  0.00    +0.000 Cl
ATOM     22  C   UNL     1     -13.871  16.202 -53.734  0.00  0.00    +0.000 A 
ATOM     23  C   UNL     1     -14.805  16.039 -52.696  0.00  0.00    +0.000 A 
ATOM     24  C   UNL     1     -12.515  16.333 -53.415  0.00  0.00    +0.000 A 
ATOM     25  C   UNL     1     -14.394  16.030 -51.361  0.00  0.00    +0.000 A 
ATOM     26  C   UNL     1     -12.104  16.320 -52.082  0.00  0.00    +0.000 A 
ATOM     27  C   UNL     1     -13.039  16.173 -51.053  0.00  0.00    +0.000 A 
ENDBRANCH  19  22
ENDBRANCH  18  19
ENDBRANCH  16  18
ENDBRANCH   4  17
TORSDOF 5
ENDMDL
MODEL 6
REMARK VINA RESULT:      -4.8     23.691     25.575
REMARK  Name = 146929355
REMARK  5 active torsions:
REMARK  status: ('A' for Active; 'I' for Inactive)
REMARK    1  A    between atoms: O_5  and  N_8
REMARK    2  A    between atoms: O_5  and  C_21
REMARK    3  A    between atoms: C_9  and  C_14
REMARK    4  A    between atoms: C_10  and  C_12
REMARK    5  A    between atoms: C_20  and  C_21
REMARK                            x       y       z     vdW  Elec       q    Type
REMARK                         _______ _______ _______ _____ _____    ______ ____
ROOT
ATOM      1  S   UNL     1     -18.606   8.089 -56.787  0.00  0.00    +0.000 S 
ATOM      2  N   UNL     1     -20.763   6.672 -56.756  0.00  0.00    +0.000 N 
ATOM      3  N   UNL     1     -20.601   7.829 -54.846  0.00  0.00    +0.000 NA
ATOM      4  C   UNL     1     -21.899   6.340 -56.048  0.00  0.00    +0.000 A 
ATOM      5  C   UNL     1     -21.752   7.063 -54.854  0.00  0.00    +0.000 A 
ATOM      6  C   UNL     1     -20.047   7.544 -55.986  0.00  0.00    +0.000 A 
ATOM      7  C   UNL     1     -20.202   6.425 -57.995  0.00  0.00    +0.000 A 
ATOM      8  C   UNL     1     -19.043   7.085 -58.171  0.00  0.00    +0.000 A 
ENDROOT
BRANCH   5  10
ATOM      9 BR   UNL     1     -25.551   7.290 -50.020  0.00  0.00    +0.000 Br
ATOM     10  C   UNL     1     -22.674   7.100 -53.726  0.00  0.00    +0.000 A 
ATOM     11  C   UNL     1     -22.418   7.982 -52.665  0.00  0.00    +0.000 A 
ATOM     12  C   UNL     1     -23.787   6.252 -53.644  0.00  0.00    +0.000 A 
ATOM     13  C   UNL     1     -23.272   8.041 -51.560  0.00  0.00    +0.000 A 
ATOM     14  C   UNL     1     -24.648   6.315 -52.543  0.00  0.00    +0.000 A 
ATOM     15  C   UNL     1     -24.389   7.212 -51.508  0.00  0.00    +0.000 A 
ENDBRANCH   5  10
BRANCH   4  17
ATOM     16  N   UNL     1     -24.037   5.899 -57.232  0.00  0.00    +0.000 NA
ATOM     17  C   UNL     1     -23.031   5.562 -56.480  0.00  0.00    +0.000 C 
BRANCH  16  18
ATOM     18  O   UNL     1     -23.909   7.179 -57.771  0.00  0.00    +0.000 OA
BRANCH  18  19
ATOM     19  C   UNL     1     -25.060   7.956 -57.430  0.00  0.00    +0.000 C 
BRANCH  19  22
ATOM     20 CL   UNL     1     -21.523  11.474 -56.035  0.00  0.00    +0.000 Cl
ATOM     21 CL   UNL     1     -23.216  11.956 -53.297  0.00  0.00    +0.000 Cl
ATOM     22  C   UNL     1     -24.622   8.972 -56.408  0.00  0.00    +0.000 A 
ATOM     23  C   UNL     1     -23.447   9.711 -56.632  0.00  0.00    +0.000 A 
ATOM     24  C   UNL     1     -25.349   9.192 -55.232  0.00  0.00    +0.000 A 
ATOM     25  C   UNL     1     -22.992  10.635 -55.689  0.00  0.00    +0.000 A 
ATOM     26  C   UNL     1     -24.898  10.118 -54.292  0.00  0.00    +0.000 A 
ATOM     27  C   UNL     1     -23.720  10.838 -54.513  0.00  0.00    +0.000 A 
ENDBRANCH  19  22
ENDBRANCH  18  19
ENDBRANCH  16  18
ENDBRANCH   4  17
TORSDOF 5
ENDMDL
MODEL 7
REMARK VINA RESULT:      -4.8     24.046     26.411
REMARK  Name = 146929355
REMARK  5 active torsions:
REMARK  status: ('A' for Active; 'I' for Inactive)
REMARK    1  A    between atoms: O_5  and  N_8
REMARK    2  A    between atoms: O_5  and  C_21
REMARK    3  A    between atoms: C_9  and  C_14
REMARK    4  A    between atoms: C_10  and  C_12
REMARK    5  A    between atoms: C_20  and  C_21
REMARK                            x       y       z     vdW  Elec       q    Type
REMARK                         _______ _______ _______ _____ _____    ______ ____
ROOT
ATOM      1  S   UNL     1     -22.309  10.483 -58.854  0.00  0.00    +0.000 S 
ATOM      2  N   UNL     1     -20.842   9.019 -57.317  0.00  0.00    +0.000 N 
ATOM      3  N   UNL     1     -22.908   9.158 -56.467  0.00  0.00    +0.000 NA
ATOM      4  C   UNL     1     -20.803   8.246 -56.176  0.00  0.00    +0.000 A 
ATOM      5  C   UNL     1     -22.103   8.374 -55.661  0.00  0.00    +0.000 A 
ATOM      6  C   UNL     1     -22.105   9.526 -57.420  0.00  0.00    +0.000 A 
ATOM      7  C   UNL     1     -20.012   9.360 -58.368  0.00  0.00    +0.000 A 
ATOM      8  C   UNL     1     -20.626  10.150 -59.268  0.00  0.00    +0.000 A 
ENDROOT
BRANCH   5  10
ATOM      9 BR   UNL     1     -24.272   5.817 -50.503  0.00  0.00    +0.000 Br
ATOM     10  C   UNL     1     -22.640   7.754 -54.457  0.00  0.00    +0.000 A 
ATOM     11  C   UNL     1     -22.221   8.225 -53.202  0.00  0.00    +0.000 A 
ATOM     12  C   UNL     1     -23.529   6.671 -54.508  0.00  0.00    +0.000 A 
ATOM     13  C   UNL     1     -22.704   7.650 -52.023  0.00  0.00    +0.000 A 
ATOM     14  C   UNL     1     -24.021   6.100 -53.329  0.00  0.00    +0.000 A 
ATOM     15  C   UNL     1     -23.609   6.595 -52.093  0.00  0.00    +0.000 A 
ENDBRANCH   5  10
BRANCH   4  17
ATOM     16  N   UNL     1     -19.496   6.145 -55.959  0.00  0.00    +0.000 NA
ATOM     17  C   UNL     1     -19.742   7.396 -55.701  0.00  0.00    +0.000 C 
BRANCH  16  18
ATOM     18  O   UNL     1     -20.346   5.613 -56.928  0.00  0.00    +0.000 OA
BRANCH  18  19
ATOM     19  C   UNL     1     -21.042   4.488 -56.383  0.00  0.00    +0.000 C 
BRANCH  19  22
ATOM     20 CL   UNL     1     -25.147   1.553 -57.553  0.00  0.00    +0.000 Cl
ATOM     21 CL   UNL     1     -26.257   3.999 -59.392  0.00  0.00    +0.000 Cl
ATOM     22  C   UNL     1     -22.356   4.385 -57.113  0.00  0.00    +0.000 A 
ATOM     23  C   UNL     1     -23.105   3.199 -57.015  0.00  0.00    +0.000 A 
ATOM     24  C   UNL     1     -22.844   5.435 -57.898  0.00  0.00    +0.000 A 
ATOM     25  C   UNL     1     -24.310   3.056 -57.708  0.00  0.00    +0.000 A 
ATOM     26  C   UNL     1     -24.049   5.294 -58.587  0.00  0.00    +0.000 A 
ATOM     27  C   UNL     1     -24.781   4.107 -58.499  0.00  0.00    +0.000 A 
ENDBRANCH  19  22
ENDBRANCH  18  19
ENDBRANCH  16  18
ENDBRANCH   4  17
TORSDOF 5
ENDMDL
MODEL 8
REMARK VINA RESULT:      -4.7     24.025     26.542
REMARK  Name = 146929355
REMARK  5 active torsions:
REMARK  status: ('A' for Active; 'I' for Inactive)
REMARK    1  A    between atoms: O_5  and  N_8
REMARK    2  A    between atoms: O_5  and  C_21
REMARK    3  A    between atoms: C_9  and  C_14
REMARK    4  A    between atoms: C_10  and  C_12
REMARK    5  A    between atoms: C_20  and  C_21
REMARK                            x       y       z     vdW  Elec       q    Type
REMARK                         _______ _______ _______ _____ _____    ______ ____
ROOT
ATOM      1  S   UNL     1     -25.065   7.055 -59.386  0.00  0.00    +0.000 S 
ATOM      2  N   UNL     1     -23.173   5.932 -58.036  0.00  0.00    +0.000 N 
ATOM      3  N   UNL     1     -24.386   7.237 -56.680  0.00  0.00    +0.000 NA
ATOM      4  C   UNL     1     -22.598   5.775 -56.792  0.00  0.00    +0.000 A 
ATOM      5  C   UNL     1     -23.367   6.621 -55.978  0.00  0.00    +0.000 A 
ATOM      6  C   UNL     1     -24.212   6.807 -57.894  0.00  0.00    +0.000 A 
ATOM      7  C   UNL     1     -23.035   5.427 -59.315  0.00  0.00    +0.000 A 
ATOM      8  C   UNL     1     -23.949   5.931 -60.164  0.00  0.00    +0.000 A 
ENDROOT
BRANCH   5  10
ATOM      9 BR   UNL     1     -22.834   7.514 -49.914  0.00  0.00    +0.000 Br
ATOM     10  C   UNL     1     -23.212   6.847 -54.547  0.00  0.00    +0.000 A 
ATOM     11  C   UNL     1     -24.054   6.167 -53.654  0.00  0.00    +0.000 A 
ATOM     12  C   UNL     1     -22.278   7.757 -54.031  0.00  0.00    +0.000 A 
ATOM     13  C   UNL     1     -23.945   6.363 -52.274  0.00  0.00    +0.000 A 
ATOM     14  C   UNL     1     -22.161   7.949 -52.651  0.00  0.00    +0.000 A 
ATOM     15  C   UNL     1     -22.992   7.248 -51.779  0.00  0.00    +0.000 A 
ENDBRANCH   5  10
BRANCH   4  17
ATOM     16  N   UNL     1     -20.308   5.086 -56.123  0.00  0.00    +0.000 NA
ATOM     17  C   UNL     1     -21.560   4.861 -56.391  0.00  0.00    +0.000 C 
BRANCH  16  18
ATOM     18  O   UNL     1     -19.985   6.443 -56.131  0.00  0.00    +0.000 OA
BRANCH  18  19
ATOM     19  C   UNL     1     -19.113   6.718 -57.231  0.00  0.00    +0.000 C 
BRANCH  19  22
ATOM     20 CL   UNL     1     -22.302   9.464 -60.252  0.00  0.00    +0.000 Cl
ATOM     21 CL   UNL     1     -20.585  12.123 -59.491  0.00  0.00    +0.000 Cl
ATOM     22  C   UNL     1     -19.491   8.074 -57.768  0.00  0.00    +0.000 A 
ATOM     23  C   UNL     1     -20.595   8.188 -58.632  0.00  0.00    +0.000 A 
ATOM     24  C   UNL     1     -18.764   9.223 -57.438  0.00  0.00    +0.000 A 
ATOM     25  C   UNL     1     -20.951   9.424 -59.176  0.00  0.00    +0.000 A 
ATOM     26  C   UNL     1     -19.122  10.458 -57.979  0.00  0.00    +0.000 A 
ATOM     27  C   UNL     1     -20.210  10.563 -58.849  0.00  0.00    +0.000 A 
ENDBRANCH  19  22
ENDBRANCH  18  19
ENDBRANCH  16  18
ENDBRANCH   4  17
TORSDOF 5
ENDMDL
MODEL 9
REMARK VINA RESULT:      -4.6     25.159     27.400
REMARK  Name = 146929355
REMARK  5 active torsions:
REMARK  status: ('A' for Active; 'I' for Inactive)
REMARK    1  A    between atoms: O_5  and  N_8
REMARK    2  A    between atoms: O_5  and  C_21
REMARK    3  A    between atoms: C_9  and  C_14
REMARK    4  A    between atoms: C_10  and  C_12
REMARK    5  A    between atoms: C_20  and  C_21
REMARK                            x       y       z     vdW  Elec       q    Type
REMARK                         _______ _______ _______ _____ _____    ______ ____
ROOT
ATOM      1  S   UNL     1     -24.377  12.546 -56.495  0.00  0.00    +0.000 S 
ATOM      2  N   UNL     1     -22.403  11.085 -57.289  0.00  0.00    +0.000 N 
ATOM      3  N   UNL     1     -24.300   9.902 -57.398  0.00  0.00    +0.000 NA
ATOM      4  C   UNL     1     -22.021   9.858 -57.789  0.00  0.00    +0.000 A 
ATOM      5  C   UNL     1     -23.227   9.140 -57.822  0.00  0.00    +0.000 A 
ATOM      6  C   UNL     1     -23.751  11.035 -57.078  0.00  0.00    +0.000 A 
ATOM      7  C   UNL     1     -21.837  12.315 -57.010  0.00  0.00    +0.000 A 
ATOM      8  C   UNL     1     -22.741  13.204 -56.561  0.00  0.00    +0.000 A 
ENDROOT
BRANCH   5  10
ATOM      9 BR   UNL     1     -23.959   3.373 -59.836  0.00  0.00    +0.000 Br
ATOM     10  C   UNL     1     -23.425   7.770 -58.278  0.00  0.00    +0.000 A 
ATOM     11  C   UNL     1     -22.428   7.159 -59.055  0.00  0.00    +0.000 A 
ATOM     12  C   UNL     1     -24.600   7.055 -58.005  0.00  0.00    +0.000 A 
ATOM     13  C   UNL     1     -22.584   5.850 -59.520  0.00  0.00    +0.000 A 
ATOM     14  C   UNL     1     -24.754   5.742 -58.462  0.00  0.00    +0.000 A 
ATOM     15  C   UNL     1     -23.744   5.145 -59.214  0.00  0.00    +0.000 A 
ENDBRANCH   5  10
BRANCH   4  17
ATOM     16  N   UNL     1     -19.658   9.106 -57.651  0.00  0.00    +0.000 NA
ATOM     17  C   UNL     1     -20.734   9.454 -58.293  0.00  0.00    +0.000 C 
BRANCH  16  18
ATOM     18  O   UNL     1     -19.852   9.019 -56.273  0.00  0.00    +0.000 OA
BRANCH  18  19
ATOM     19  C   UNL     1     -19.278   7.801 -55.789  0.00  0.00    +0.000 C 
BRANCH  19  22
ATOM     20 CL   UNL     1     -24.038   6.437 -54.269  0.00  0.00    +0.000 Cl
ATOM     21 CL   UNL     1     -23.607   3.589 -55.786  0.00  0.00    +0.000 Cl
ATOM     22  C   UNL     1     -20.364   6.758 -55.817  0.00  0.00    +0.000 A 
ATOM     23  C   UNL     1     -21.578   7.011 -55.156  0.00  0.00    +0.000 A 
ATOM     24  C   UNL     1     -20.189   5.535 -56.474  0.00  0.00    +0.000 A 
ATOM     25  C   UNL     1     -22.593   6.051 -55.131  0.00  0.00    +0.000 A 
ATOM     26  C   UNL     1     -21.204   4.577 -56.454  0.00  0.00    +0.000 A 
ATOM     27  C   UNL     1     -22.403   4.829 -55.781  0.00  0.00    +0.000 A 
ENDBRANCH  19  22
ENDBRANCH  18  19
ENDBRANCH  16  18
ENDBRANCH   4  17
TORSDOF 5
ENDMDL
MODEL 10
REMARK VINA RESULT:      -4.6     22.774     25.286
REMARK  Name = 146929355
REMARK  5 active torsions:
REMARK  status: ('A' for Active; 'I' for Inactive)
REMARK    1  A    between atoms: O_5  and  N_8
REMARK    2  A    between atoms: O_5  and  C_21
REMARK    3  A    between atoms: C_9  and  C_14
REMARK    4  A    between atoms: C_10  and  C_12
REMARK    5  A    between atoms: C_20  and  C_21
REMARK                            x       y       z     vdW  Elec       q    Type
REMARK                         _______ _______ _______ _____ _____    ______ ____
ROOT
ATOM      1  S   UNL     1     -14.319   9.826 -58.751  0.00  0.00    +0.000 S 
ATOM      2  N   UNL     1     -13.652  12.246 -58.151  0.00  0.00    +0.000 N 
ATOM      3  N   UNL     1     -12.351  10.812 -57.029  0.00  0.00    +0.000 NA
ATOM      4  C   UNL     1     -12.791  13.046 -57.430  0.00  0.00    +0.000 A 
ATOM      5  C   UNL     1     -12.010  12.117 -56.726  0.00  0.00    +0.000 A 
ATOM      6  C   UNL     1     -13.339  10.949 -57.861  0.00  0.00    +0.000 A 
ATOM      7  C   UNL     1     -14.659  12.384 -59.089  0.00  0.00    +0.000 A 
ATOM      8  C   UNL     1     -15.138  11.197 -59.502  0.00  0.00    +0.000 A 
ENDROOT
BRANCH   5  10
ATOM      9 BR   UNL     1      -7.487  13.402 -52.758  0.00  0.00    +0.000 Br
ATOM     10  C   UNL     1     -10.918  12.402 -55.803  0.00  0.00    +0.000 A 
ATOM     11  C   UNL     1     -11.210  12.991 -54.563  0.00  0.00    +0.000 A 
ATOM     12  C   UNL     1      -9.578  12.150 -56.131  0.00  0.00    +0.000 A 
ATOM     13  C   UNL     1     -10.191  13.290 -53.654  0.00  0.00    +0.000 A 
ATOM     14  C   UNL     1      -8.558  12.441 -55.220  0.00  0.00    +0.000 A 
ATOM     15  C   UNL     1      -8.869  13.005 -53.984  0.00  0.00    +0.000 A 
ENDBRANCH   5  10
BRANCH   4  17
ATOM     16  N   UNL     1     -11.648  15.185 -57.967  0.00  0.00    +0.000 NA
ATOM     17  C   UNL     1     -12.629  14.476 -57.491  0.00  0.00    +0.000 C 
BRANCH  16  18
ATOM     18  O   UNL     1     -10.677  14.412 -58.603  0.00  0.00    +0.000 OA
BRANCH  18  19
ATOM     19  C   UNL     1      -9.664  15.268 -59.138  0.00  0.00    +0.000 C 
BRANCH  19  22
ATOM     20 CL   UNL     1      -4.801  13.892 -58.003  0.00  0.00    +0.000 Cl
ATOM     21 CL   UNL     1      -5.179  15.299 -55.092  0.00  0.00    +0.000 Cl
ATOM     22  C   UNL     1      -8.540  15.305 -58.135  0.00  0.00    +0.000 A 
ATOM     23  C   UNL     1      -7.312  14.700 -58.455  0.00  0.00    +0.000 A 
ATOM     24  C   UNL     1      -8.692  15.915 -56.885  0.00  0.00    +0.000 A 
ATOM     25  C   UNL     1      -6.262  14.684 -57.534  0.00  0.00    +0.000 A 
ATOM     26  C   UNL     1      -7.642  15.904 -55.966  0.00  0.00    +0.000 A 
ATOM     27  C   UNL     1      -6.429  15.287 -56.285  0.00  0.00    +0.000 A 
ENDBRANCH  19  22
ENDBRANCH  18  19
ENDBRANCH  16  18
ENDBRANCH   4  17
TORSDOF 5
ENDMDL
