REMARK  Name = 1473296
REMARK  5 active torsions:
REMARK  status: ('A' for Active; 'I' for Inactive)
REMARK    1  A    between atoms: O_4  and  N_8
REMARK    2  A    between atoms: O_4  and  C_24
REMARK    3  A    between atoms: C_9  and  C_14
REMARK    4  A    between atoms: C_10  and  C_12
REMARK    5  A    between atoms: C_21  and  C_24
REMARK                            x       y       z     vdW  Elec       q    Type
REMARK                         _______ _______ _______ _____ _____    ______ ____
ROOT
ATOM      1  S   UNL     1     -11.143  -0.147   1.117  0.00  0.00    +0.000 S 
ATOM      2  N   UNL     1      -8.682  -0.794   0.756  0.00  0.00    +0.000 N 
ATOM      3  N   UNL     1      -9.230   0.807  -0.701  0.00  0.00    +0.000 NA
ATOM      4  C   UNL     1      -7.542  -0.591   0.012  0.00  0.00    +0.000 A 
ATOM      5  C   UNL     1      -7.910   0.423  -0.884  0.00  0.00    +0.000 A 
ATOM      6  C   UNL     1      -9.644   0.033   0.260  0.00  0.00    +0.000 A 
ATOM      7  C   UNL     1      -9.078  -1.557   1.838  0.00  0.00    +0.000 A 
ATOM      8  C   UNL     1     -10.368  -1.354   2.152  0.00  0.00    +0.000 A 
ENDROOT
BRANCH   5   9
ATOM      9  C   UNL     1      -7.054   1.066  -1.872  0.00  0.00    +0.000 A 
ATOM     10  C   UNL     1      -7.270   2.414  -2.191  0.00  0.00    +0.000 A 
ATOM     11  C   UNL     1      -6.008   0.390  -2.515  0.00  0.00    +0.000 A 
ATOM     12  C   UNL     1      -6.425   3.083  -3.080  0.00  0.00    +0.000 A 
ATOM     13  C   UNL     1      -5.151   1.061  -3.390  0.00  0.00    +0.000 A 
ATOM     14  C   UNL     1      -5.353   2.411  -3.664  0.00  0.00    +0.000 A 
ENDBRANCH   5   9
BRANCH   4  16
ATOM     15  N   UNL     1      -6.032  -2.492   0.384  0.00  0.00    +0.000 NA
ATOM     16  C   UNL     1      -6.267  -1.228   0.185  0.00  0.00    +0.000 C 
BRANCH  15  17
ATOM     17  O   UNL     1      -7.209  -3.241   0.413  0.00  0.00    +0.000 OA
BRANCH  17  19
ATOM     18  O   UNL     1      -7.992  -5.292   0.917  0.00  0.00    +0.000 OA
ATOM     19  C   UNL     1      -7.057  -4.593   0.534  0.00  0.00    +0.000 C 
BRANCH  19  22
ATOM     20 CL   UNL     1      -5.301  -8.489  -2.287  0.00  0.00    +0.000 Cl
ATOM     21 CL   UNL     1      -2.268  -7.483  -1.675  0.00  0.00    +0.000 Cl
ATOM     22  C   UNL     1      -5.840  -5.257   0.005  0.00  0.00    +0.000 A 
ATOM     23  C   UNL     1      -6.048  -6.389  -0.797  0.00  0.00    +0.000 A 
ATOM     24  C   UNL     1      -4.534  -4.871   0.318  0.00  0.00    +0.000 A 
ATOM     25  C   UNL     1      -4.963  -7.097  -1.319  0.00  0.00    +0.000 A 
ATOM     26  C   UNL     1      -3.448  -5.563  -0.225  0.00  0.00    +0.000 A 
ATOM     27  C   UNL     1      -3.658  -6.675  -1.045  0.00  0.00    +0.000 A 
ENDBRANCH  19  22
ENDBRANCH  17  19
ENDBRANCH  15  17
ENDBRANCH   4  16
TORSDOF 5
