MODEL 1
REMARK VINA RESULT:      -6.4      0.000      0.000
REMARK  Name = 1473296
REMARK  5 active torsions:
REMARK  status: ('A' for Active; 'I' for Inactive)
REMARK    1  A    between atoms: O_4  and  N_8
REMARK    2  A    between atoms: O_4  and  C_24
REMARK    3  A    between atoms: C_9  and  C_14
REMARK    4  A    between atoms: C_10  and  C_12
REMARK    5  A    between atoms: C_21  and  C_24
REMARK                            x       y       z     vdW  Elec       q    Type
REMARK                         _______ _______ _______ _____ _____    ______ ____
ROOT
ATOM      1  S   UNL     1      12.763  15.679  20.545  0.00  0.00    +0.000 S 
ATOM      2  N   UNL     1      11.699  15.090  22.810  0.00  0.00    +0.000 N 
ATOM      3  N   UNL     1      10.169  16.095  21.531  0.00  0.00    +0.000 NA
ATOM      4  C   UNL     1      10.573  15.158  23.598  0.00  0.00    +0.000 A 
ATOM      5  C   UNL     1       9.628  15.781  22.769  0.00  0.00    +0.000 A 
ATOM      6  C   UNL     1      11.403  15.691  21.624  0.00  0.00    +0.000 A 
ATOM      7  C   UNL     1      12.978  14.573  22.891  0.00  0.00    +0.000 A 
ATOM      8  C   UNL     1      13.691  14.816  21.779  0.00  0.00    +0.000 A 
ENDROOT
BRANCH   5   9
ATOM      9  C   UNL     1       8.233  16.050  23.088  0.00  0.00    +0.000 A 
ATOM     10  C   UNL     1       7.908  17.201  23.820  0.00  0.00    +0.000 A 
ATOM     11  C   UNL     1       7.191  15.205  22.681  0.00  0.00    +0.000 A 
ATOM     12  C   UNL     1       6.576  17.530  24.082  0.00  0.00    +0.000 A 
ATOM     13  C   UNL     1       5.858  15.541  22.926  0.00  0.00    +0.000 A 
ATOM     14  C   UNL     1       5.550  16.709  23.618  0.00  0.00    +0.000 A 
ENDBRANCH   5   9
BRANCH   4  16
ATOM     15  N   UNL     1      10.165  13.406  25.270  0.00  0.00    +0.000 NA
ATOM     16  C   UNL     1      10.409  14.637  24.925  0.00  0.00    +0.000 C 
BRANCH  15  17
ATOM     17  O   UNL     1      10.073  12.564  24.161  0.00  0.00    +0.000 OA
BRANCH  17  19
ATOM     18  O   UNL     1      11.209  10.962  25.264  0.00  0.00    +0.000 OA
ATOM     19  C   UNL     1      10.855  11.445  24.191  0.00  0.00    +0.000 C 
BRANCH  19  22
ATOM     20 CL   UNL     1      13.072  11.562  19.577  0.00  0.00    +0.000 Cl
ATOM     21 CL   UNL     1      11.959   8.552  19.036  0.00  0.00    +0.000 Cl
ATOM     22  C   UNL     1      11.108  10.678  22.946  0.00  0.00    +0.000 A 
ATOM     23  C   UNL     1      11.869  11.325  21.961  0.00  0.00    +0.000 A 
ATOM     24  C   UNL     1      10.578   9.413  22.680  0.00  0.00    +0.000 A 
ATOM     25  C   UNL     1      12.138  10.694  20.745  0.00  0.00    +0.000 A 
ATOM     26  C   UNL     1      10.867   8.770  21.473  0.00  0.00    +0.000 A 
ATOM     27  C   UNL     1      11.648   9.406  20.504  0.00  0.00    +0.000 A 
ENDBRANCH  19  22
ENDBRANCH  17  19
ENDBRANCH  15  17
ENDBRANCH   4  16
TORSDOF 5
ENDMDL
MODEL 2
REMARK VINA RESULT:      -6.4     29.005     30.730
REMARK  Name = 1473296
REMARK  5 active torsions:
REMARK  status: ('A' for Active; 'I' for Inactive)
REMARK    1  A    between atoms: O_4  and  N_8
REMARK    2  A    between atoms: O_4  and  C_24
REMARK    3  A    between atoms: C_9  and  C_14
REMARK    4  A    between atoms: C_10  and  C_12
REMARK    5  A    between atoms: C_21  and  C_24
REMARK                            x       y       z     vdW  Elec       q    Type
REMARK                         _______ _______ _______ _____ _____    ______ ____
ROOT
ATOM      1  S   UNL     1      -7.727 -13.203  14.995  0.00  0.00    +0.000 S 
ATOM      2  N   UNL     1      -5.320 -12.862  14.163  0.00  0.00    +0.000 N 
ATOM      3  N   UNL     1      -6.708 -11.696  12.859  0.00  0.00    +0.000 NA
ATOM      4  C   UNL     1      -4.507 -12.279  13.218  0.00  0.00    +0.000 A 
ATOM      5  C   UNL     1      -5.400 -11.547  12.422  0.00  0.00    +0.000 A 
ATOM      6  C   UNL     1      -6.602 -12.508  13.871  0.00  0.00    +0.000 A 
ATOM      7  C   UNL     1      -5.181 -13.649  15.290  0.00  0.00    +0.000 A 
ATOM      8  C   UNL     1      -6.367 -13.945  15.847  0.00  0.00    +0.000 A 
ENDROOT
BRANCH   5   9
ATOM      9  C   UNL     1      -5.060 -10.685  11.298  0.00  0.00    +0.000 A 
ATOM     10  C   UNL     1      -5.096  -9.294  11.466  0.00  0.00    +0.000 A 
ATOM     11  C   UNL     1      -4.686 -11.194  10.046  0.00  0.00    +0.000 A 
ATOM     12  C   UNL     1      -4.708  -8.438  10.433  0.00  0.00    +0.000 A 
ATOM     13  C   UNL     1      -4.280 -10.341   9.018  0.00  0.00    +0.000 A 
ATOM     14  C   UNL     1      -4.281  -8.963   9.215  0.00  0.00    +0.000 A 
ENDBRANCH   5   9
BRANCH   4  16
ATOM     15  N   UNL     1      -2.204 -11.590  13.723  0.00  0.00    +0.000 NA
ATOM     16  C   UNL     1      -3.075 -12.357  13.136  0.00  0.00    +0.000 C 
BRANCH  15  17
ATOM     17  O   UNL     1      -2.818 -10.611  14.506  0.00  0.00    +0.000 OA
BRANCH  17  19
ATOM     18  O   UNL     1      -1.526 -10.579  16.351  0.00  0.00    +0.000 OA
ATOM     19  C   UNL     1      -2.641 -10.724  15.856  0.00  0.00    +0.000 C 
BRANCH  19  22
ATOM     20 CL   UNL     1      -7.504  -9.277  16.546  0.00  0.00    +0.000 Cl
ATOM     21 CL   UNL     1      -7.514 -10.882  19.376  0.00  0.00    +0.000 Cl
ATOM     22  C   UNL     1      -3.817 -10.809  16.757  0.00  0.00    +0.000 A 
ATOM     23  C   UNL     1      -4.974 -10.138  16.335  0.00  0.00    +0.000 A 
ATOM     24  C   UNL     1      -3.808 -11.439  18.004  0.00  0.00    +0.000 A 
ATOM     25  C   UNL     1      -6.123 -10.138  17.129  0.00  0.00    +0.000 A 
ATOM     26  C   UNL     1      -4.965 -11.462  18.787  0.00  0.00    +0.000 A 
ATOM     27  C   UNL     1      -6.125 -10.815  18.353  0.00  0.00    +0.000 A 
ENDBRANCH  19  22
ENDBRANCH  17  19
ENDBRANCH  15  17
ENDBRANCH   4  16
TORSDOF 5
ENDMDL
MODEL 3
REMARK VINA RESULT:      -6.3     29.492     30.896
REMARK  Name = 1473296
REMARK  5 active torsions:
REMARK  status: ('A' for Active; 'I' for Inactive)
REMARK    1  A    between atoms: O_4  and  N_8
REMARK    2  A    between atoms: O_4  and  C_24
REMARK    3  A    between atoms: C_9  and  C_14
REMARK    4  A    between atoms: C_10  and  C_12
REMARK    5  A    between atoms: C_21  and  C_24
REMARK                            x       y       z     vdW  Elec       q    Type
REMARK                         _______ _______ _______ _____ _____    ______ ____
ROOT
ATOM      1  S   UNL     1      -4.395 -15.610  13.337  0.00  0.00    +0.000 S 
ATOM      2  N   UNL     1      -3.283 -13.456  14.190  0.00  0.00    +0.000 N 
ATOM      3  N   UNL     1      -5.083 -13.884  15.440  0.00  0.00    +0.000 NA
ATOM      4  C   UNL     1      -3.342 -12.415  15.089  0.00  0.00    +0.000 A 
ATOM      5  C   UNL     1      -4.471 -12.714  15.865  0.00  0.00    +0.000 A 
ATOM      6  C   UNL     1      -4.355 -14.261  14.429  0.00  0.00    +0.000 A 
ATOM      7  C   UNL     1      -2.447 -13.892  13.180  0.00  0.00    +0.000 A 
ATOM      8  C   UNL     1      -2.900 -15.016  12.601  0.00  0.00    +0.000 A 
ENDROOT
BRANCH   5   9
ATOM      9  C   UNL     1      -4.965 -11.963  17.011  0.00  0.00    +0.000 A 
ATOM     10  C   UNL     1      -5.849 -10.895  16.800  0.00  0.00    +0.000 A 
ATOM     11  C   UNL     1      -4.598 -12.271  18.328  0.00  0.00    +0.000 A 
ATOM     12  C   UNL     1      -6.399 -10.198  17.878  0.00  0.00    +0.000 A 
ATOM     13  C   UNL     1      -5.160 -11.588  19.408  0.00  0.00    +0.000 A 
ATOM     14  C   UNL     1      -6.069 -10.558  19.184  0.00  0.00    +0.000 A 
ENDBRANCH   5   9
BRANCH   4  16
ATOM     15  N   UNL     1      -2.215 -10.343  14.404  0.00  0.00    +0.000 NA
ATOM     16  C   UNL     1      -2.409 -11.332  15.227  0.00  0.00    +0.000 C 
BRANCH  15  17
ATOM     17  O   UNL     1      -3.054 -10.420  13.292  0.00  0.00    +0.000 OA
BRANCH  17  19
ATOM     18  O   UNL     1      -1.245 -10.662  11.972  0.00  0.00    +0.000 OA
ATOM     19  C   UNL     1      -2.438 -10.390  12.073  0.00  0.00    +0.000 C 
BRANCH  19  22
ATOM     20 CL   UNL     1      -5.003 -12.888   8.412  0.00  0.00    +0.000 Cl
ATOM     21 CL   UNL     1      -5.674 -10.027   7.016  0.00  0.00    +0.000 Cl
ATOM     22  C   UNL     1      -3.243 -10.239  10.835  0.00  0.00    +0.000 A 
ATOM     23  C   UNL     1      -3.719 -11.423  10.254  0.00  0.00    +0.000 A 
ATOM     24  C   UNL     1      -3.478  -9.020  10.193  0.00  0.00    +0.000 A 
ATOM     25  C   UNL     1      -4.463 -11.385   9.073  0.00  0.00    +0.000 A 
ATOM     26  C   UNL     1      -4.245  -8.977   9.025  0.00  0.00    +0.000 A 
ATOM     27  C   UNL     1      -4.740 -10.157   8.463  0.00  0.00    +0.000 A 
ENDBRANCH  19  22
ENDBRANCH  17  19
ENDBRANCH  15  17
ENDBRANCH   4  16
TORSDOF 5
ENDMDL
MODEL 4
REMARK VINA RESULT:      -6.1     20.506     23.060
REMARK  Name = 1473296
REMARK  5 active torsions:
REMARK  status: ('A' for Active; 'I' for Inactive)
REMARK    1  A    between atoms: O_4  and  N_8
REMARK    2  A    between atoms: O_4  and  C_24
REMARK    3  A    between atoms: C_9  and  C_14
REMARK    4  A    between atoms: C_10  and  C_12
REMARK    5  A    between atoms: C_21  and  C_24
REMARK                            x       y       z     vdW  Elec       q    Type
REMARK                         _______ _______ _______ _____ _____    ______ ____
ROOT
ATOM      1  S   UNL     1       9.767   8.441   0.103  0.00  0.00    +0.000 S 
ATOM      2  N   UNL     1      10.216   6.155   1.189  0.00  0.00    +0.000 N 
ATOM      3  N   UNL     1      10.044   7.697   2.794  0.00  0.00    +0.000 NA
ATOM      4  C   UNL     1      10.430   5.467   2.361  0.00  0.00    +0.000 A 
ATOM      5  C   UNL     1      10.305   6.454   3.350  0.00  0.00    +0.000 A 
ATOM      6  C   UNL     1      10.033   7.465   1.514  0.00  0.00    +0.000 A 
ATOM      7  C   UNL     1      10.116   5.876  -0.161  0.00  0.00    +0.000 A 
ATOM      8  C   UNL     1       9.899   6.983  -0.890  0.00  0.00    +0.000 A 
ENDROOT
BRANCH   5   9
ATOM      9  C   UNL     1      10.383   6.258   4.791  0.00  0.00    +0.000 A 
ATOM     10  C   UNL     1      11.567   6.590   5.464  0.00  0.00    +0.000 A 
ATOM     11  C   UNL     1       9.310   5.757   5.541  0.00  0.00    +0.000 A 
ATOM     12  C   UNL     1      11.654   6.484   6.854  0.00  0.00    +0.000 A 
ATOM     13  C   UNL     1       9.388   5.666   6.932  0.00  0.00    +0.000 A 
ATOM     14  C   UNL     1      10.556   6.040   7.590  0.00  0.00    +0.000 A 
ENDBRANCH   5   9
BRANCH   4  16
ATOM     15  N   UNL     1      11.775   3.413   2.403  0.00  0.00    +0.000 NA
ATOM     16  C   UNL     1      10.650   4.056   2.512  0.00  0.00    +0.000 C 
BRANCH  15  17
ATOM     17  O   UNL     1      12.837   4.269   2.109  0.00  0.00    +0.000 OA
BRANCH  17  19
ATOM     18  O   UNL     1      14.728   3.077   1.832  0.00  0.00    +0.000 OA
ATOM     19  C   UNL     1      13.830   3.748   1.329  0.00  0.00    +0.000 C 
BRANCH  19  22
ATOM     20 CL   UNL     1      11.096   2.250  -2.733  0.00  0.00    +0.000 Cl
ATOM     21 CL   UNL     1      13.225   3.789  -4.654  0.00  0.00    +0.000 Cl
ATOM     22  C   UNL     1      13.724   3.804  -0.150  0.00  0.00    +0.000 A 
ATOM     23  C   UNL     1      12.631   3.134  -0.720  0.00  0.00    +0.000 A 
ATOM     24  C   UNL     1      14.669   4.405  -0.985  0.00  0.00    +0.000 A 
ATOM     25  C   UNL     1      12.460   3.108  -2.106  0.00  0.00    +0.000 A 
ATOM     26  C   UNL     1      14.486   4.401  -2.370  0.00  0.00    +0.000 A 
ATOM     27  C   UNL     1      13.382   3.756  -2.935  0.00  0.00    +0.000 A 
ENDBRANCH  19  22
ENDBRANCH  17  19
ENDBRANCH  15  17
ENDBRANCH   4  16
TORSDOF 5
ENDMDL
MODEL 5
REMARK VINA RESULT:      -6.0      6.552      8.140
REMARK  Name = 1473296
REMARK  5 active torsions:
REMARK  status: ('A' for Active; 'I' for Inactive)
REMARK    1  A    between atoms: O_4  and  N_8
REMARK    2  A    between atoms: O_4  and  C_24
REMARK    3  A    between atoms: C_9  and  C_14
REMARK    4  A    between atoms: C_10  and  C_12
REMARK    5  A    between atoms: C_21  and  C_24
REMARK                            x       y       z     vdW  Elec       q    Type
REMARK                         _______ _______ _______ _____ _____    ______ ____
ROOT
ATOM      1  S   UNL     1      14.639  11.913  16.398  0.00  0.00    +0.000 S 
ATOM      2  N   UNL     1      14.693  11.501  18.935  0.00  0.00    +0.000 N 
ATOM      3  N   UNL     1      13.193  10.129  18.011  0.00  0.00    +0.000 NA
ATOM      4  C   UNL     1      14.159  10.801  19.992  0.00  0.00    +0.000 A 
ATOM      5  C   UNL     1      13.232   9.942  19.384  0.00  0.00    +0.000 A 
ATOM      6  C   UNL     1      14.055  11.083  17.806  0.00  0.00    +0.000 A 
ATOM      7  C   UNL     1      15.677  12.448  18.724  0.00  0.00    +0.000 A 
ATOM      8  C   UNL     1      15.769  12.800  17.431  0.00  0.00    +0.000 A 
ENDROOT
BRANCH   5   9
ATOM      9  C   UNL     1      12.417   8.931  20.044  0.00  0.00    +0.000 A 
ATOM     10  C   UNL     1      12.723   7.576  19.856  0.00  0.00    +0.000 A 
ATOM     11  C   UNL     1      11.337   9.260  20.875  0.00  0.00    +0.000 A 
ATOM     12  C   UNL     1      12.009   6.581  20.529  0.00  0.00    +0.000 A 
ATOM     13  C   UNL     1      10.633   8.269  21.563  0.00  0.00    +0.000 A 
ATOM     14  C   UNL     1      10.976   6.930  21.398  0.00  0.00    +0.000 A 
ENDBRANCH   5   9
BRANCH   4  16
ATOM     15  N   UNL     1      15.483  10.244  21.985  0.00  0.00    +0.000 NA
ATOM     16  C   UNL     1      14.535  10.895  21.375  0.00  0.00    +0.000 C 
BRANCH  15  17
ATOM     17  O   UNL     1      16.162   9.384  21.121  0.00  0.00    +0.000 OA
BRANCH  17  19
ATOM     18  O   UNL     1      15.144   7.537  21.912  0.00  0.00    +0.000 OA
ATOM     19  C   UNL     1      16.161   8.063  21.467  0.00  0.00    +0.000 C 
BRANCH  19  22
ATOM     20 CL   UNL     1      21.031   6.917  22.558  0.00  0.00    +0.000 Cl
ATOM     21 CL   UNL     1      20.981   4.709  20.169  0.00  0.00    +0.000 Cl
ATOM     22  C   UNL     1      17.314   7.198  21.112  0.00  0.00    +0.000 A 
ATOM     23  C   UNL     1      18.482   7.378  21.868  0.00  0.00    +0.000 A 
ATOM     24  C   UNL     1      17.321   6.296  20.045  0.00  0.00    +0.000 A 
ATOM     25  C   UNL     1      19.628   6.629  21.591  0.00  0.00    +0.000 A 
ATOM     26  C   UNL     1      18.459   5.527  19.783  0.00  0.00    +0.000 A 
ATOM     27  C   UNL     1      19.613   5.689  20.555  0.00  0.00    +0.000 A 
ENDBRANCH  19  22
ENDBRANCH  17  19
ENDBRANCH  15  17
ENDBRANCH   4  16
TORSDOF 5
ENDMDL
MODEL 6
REMARK VINA RESULT:      -5.9     29.479     30.669
REMARK  Name = 1473296
REMARK  5 active torsions:
REMARK  status: ('A' for Active; 'I' for Inactive)
REMARK    1  A    between atoms: O_4  and  N_8
REMARK    2  A    between atoms: O_4  and  C_24
REMARK    3  A    between atoms: C_9  and  C_14
REMARK    4  A    between atoms: C_10  and  C_12
REMARK    5  A    between atoms: C_21  and  C_24
REMARK                            x       y       z     vdW  Elec       q    Type
REMARK                         _______ _______ _______ _____ _____    ______ ____
ROOT
ATOM      1  S   UNL     1     -10.311  -7.400  16.309  0.00  0.00    +0.000 S 
ATOM      2  N   UNL     1      -9.013  -9.454  15.472  0.00  0.00    +0.000 N 
ATOM      3  N   UNL     1      -8.126  -8.777  17.407  0.00  0.00    +0.000 NA
ATOM      4  C   UNL     1      -7.963 -10.315  15.698  0.00  0.00    +0.000 A 
ATOM      5  C   UNL     1      -7.433  -9.875  16.920  0.00  0.00    +0.000 A 
ATOM      6  C   UNL     1      -9.028  -8.554  16.495  0.00  0.00    +0.000 A 
ATOM      7  C   UNL     1     -10.022  -9.288  14.543  0.00  0.00    +0.000 A 
ATOM      8  C   UNL     1     -10.794  -8.226  14.822  0.00  0.00    +0.000 A 
ENDROOT
BRANCH   5   9
ATOM      9  C   UNL     1      -6.331 -10.476  17.659  0.00  0.00    +0.000 A 
ATOM     10  C   UNL     1      -6.573 -11.019  18.928  0.00  0.00    +0.000 A 
ATOM     11  C   UNL     1      -5.029 -10.544  17.144  0.00  0.00    +0.000 A 
ATOM     12  C   UNL     1      -5.557 -11.666  19.635  0.00  0.00    +0.000 A 
ATOM     13  C   UNL     1      -4.016 -11.207  17.840  0.00  0.00    +0.000 A 
ATOM     14  C   UNL     1      -4.283 -11.778  19.082  0.00  0.00    +0.000 A 
ENDBRANCH   5   9
BRANCH   4  16
ATOM     15  N   UNL     1      -6.665 -11.469  13.961  0.00  0.00    +0.000 NA
ATOM     16  C   UNL     1      -7.572 -11.438  14.893  0.00  0.00    +0.000 C 
BRANCH  15  17
ATOM     17  O   UNL     1      -6.047 -10.229  13.796  0.00  0.00    +0.000 OA
BRANCH  17  19
ATOM     18  O   UNL     1      -3.814 -10.452  13.613  0.00  0.00    +0.000 OA
ATOM     19  C   UNL     1      -4.891 -10.226  13.069  0.00  0.00    +0.000 C 
BRANCH  19  22
ATOM     20 CL   UNL     1      -7.255  -8.120   9.044  0.00  0.00    +0.000 Cl
ATOM     21 CL   UNL     1      -5.321  -9.851   7.082  0.00  0.00    +0.000 Cl
ATOM     22  C   UNL     1      -4.942 -10.163  11.587  0.00  0.00    +0.000 A 
ATOM     23  C   UNL     1      -5.901  -9.301  11.034  0.00  0.00    +0.000 A 
ATOM     24  C   UNL     1      -4.161 -10.952  10.739  0.00  0.00    +0.000 A 
ATOM     25  C   UNL     1      -6.043  -9.194   9.648  0.00  0.00    +0.000 A 
ATOM     26  C   UNL     1      -4.284 -10.827   9.352  0.00  0.00    +0.000 A 
ATOM     27  C   UNL     1      -5.222  -9.948   8.803  0.00  0.00    +0.000 A 
ENDBRANCH  19  22
ENDBRANCH  17  19
ENDBRANCH  15  17
ENDBRANCH   4  16
TORSDOF 5
ENDMDL
MODEL 7
REMARK VINA RESULT:      -5.7     29.688     31.349
REMARK  Name = 1473296
REMARK  5 active torsions:
REMARK  status: ('A' for Active; 'I' for Inactive)
REMARK    1  A    between atoms: O_4  and  N_8
REMARK    2  A    between atoms: O_4  and  C_24
REMARK    3  A    between atoms: C_9  and  C_14
REMARK    4  A    between atoms: C_10  and  C_12
REMARK    5  A    between atoms: C_21  and  C_24
REMARK                            x       y       z     vdW  Elec       q    Type
REMARK                         _______ _______ _______ _____ _____    ______ ____
ROOT
ATOM      1  S   UNL     1     -11.872 -11.312  20.070  0.00  0.00    +0.000 S 
ATOM      2  N   UNL     1     -10.409 -11.912  18.044  0.00  0.00    +0.000 N 
ATOM      3  N   UNL     1      -9.091 -11.588  19.818  0.00  0.00    +0.000 NA
ATOM      4  C   UNL     1      -9.130 -12.093  17.569  0.00  0.00    +0.000 A 
ATOM      5  C   UNL     1      -8.327 -11.896  18.702  0.00  0.00    +0.000 A 
ATOM      6  C   UNL     1     -10.310 -11.581  19.362  0.00  0.00    +0.000 A 
ATOM      7  C   UNL     1     -11.702 -12.000  17.566  0.00  0.00    +0.000 A 
ATOM      8  C   UNL     1     -12.609 -11.691  18.508  0.00  0.00    +0.000 A 
ENDROOT
BRANCH   5   9
ATOM      9  C   UNL     1      -6.878 -12.026  18.777  0.00  0.00    +0.000 A 
ATOM     10  C   UNL     1      -6.152 -11.144  19.589  0.00  0.00    +0.000 A 
ATOM     11  C   UNL     1      -6.174 -13.013  18.072  0.00  0.00    +0.000 A 
ATOM     12  C   UNL     1      -4.770 -11.283  19.741  0.00  0.00    +0.000 A 
ATOM     13  C   UNL     1      -4.796 -13.166  18.237  0.00  0.00    +0.000 A 
ATOM     14  C   UNL     1      -4.095 -12.308  19.080  0.00  0.00    +0.000 A 
ENDBRANCH   5   9
BRANCH   4  16
ATOM     15  N   UNL     1      -8.435 -11.685  15.249  0.00  0.00    +0.000 NA
ATOM     16  C   UNL     1      -8.742 -12.471  16.239  0.00  0.00    +0.000 C 
BRANCH  15  17
ATOM     17  O   UNL     1      -8.512 -10.339  15.610  0.00  0.00    +0.000 OA
BRANCH  17  19
ATOM     18  O   UNL     1      -7.209  -9.074  16.942  0.00  0.00    +0.000 OA
ATOM     19  C   UNL     1      -7.327  -9.730  15.910  0.00  0.00    +0.000 C 
BRANCH  19  22
ATOM     20 CL   UNL     1      -2.359 -10.949  16.133  0.00  0.00    +0.000 Cl
ATOM     21 CL   UNL     1      -2.268 -10.908  12.881  0.00  0.00    +0.000 Cl
ATOM     22  C   UNL     1      -6.113 -10.026  15.111  0.00  0.00    +0.000 A 
ATOM     23  C   UNL     1      -4.950 -10.330  15.834  0.00  0.00    +0.000 A 
ATOM     24  C   UNL     1      -6.049  -9.945  13.717  0.00  0.00    +0.000 A 
ATOM     25  C   UNL     1      -3.751 -10.596  15.170  0.00  0.00    +0.000 A 
ATOM     26  C   UNL     1      -4.856 -10.237  13.050  0.00  0.00    +0.000 A 
ATOM     27  C   UNL     1      -3.706 -10.565  13.772  0.00  0.00    +0.000 A 
ENDBRANCH  19  22
ENDBRANCH  17  19
ENDBRANCH  15  17
ENDBRANCH   4  16
TORSDOF 5
ENDMDL
MODEL 8
REMARK VINA RESULT:      -5.6      2.591      4.210
REMARK  Name = 1473296
REMARK  5 active torsions:
REMARK  status: ('A' for Active; 'I' for Inactive)
REMARK    1  A    between atoms: O_4  and  N_8
REMARK    2  A    between atoms: O_4  and  C_24
REMARK    3  A    between atoms: C_9  and  C_14
REMARK    4  A    between atoms: C_10  and  C_12
REMARK    5  A    between atoms: C_21  and  C_24
REMARK                            x       y       z     vdW  Elec       q    Type
REMARK                         _______ _______ _______ _____ _____    ______ ____
ROOT
ATOM      1  S   UNL     1       6.130  15.599  20.493  0.00  0.00    +0.000 S 
ATOM      2  N   UNL     1       8.686  15.744  20.726  0.00  0.00    +0.000 N 
ATOM      3  N   UNL     1       7.813  15.151  22.694  0.00  0.00    +0.000 NA
ATOM      4  C   UNL     1       9.766  15.639  21.572  0.00  0.00    +0.000 A 
ATOM      5  C   UNL     1       9.192  15.256  22.793  0.00  0.00    +0.000 A 
ATOM      6  C   UNL     1       7.568  15.480  21.459  0.00  0.00    +0.000 A 
ATOM      7  C   UNL     1       8.452  16.005  19.390  0.00  0.00    +0.000 A 
ATOM      8  C   UNL     1       7.141  15.990  19.096  0.00  0.00    +0.000 A 
ENDROOT
BRANCH   5   9
ATOM      9  C   UNL     1       9.898  14.948  24.030  0.00  0.00    +0.000 A 
ATOM     10  C   UNL     1      10.162  13.610  24.352  0.00  0.00    +0.000 A 
ATOM     11  C   UNL     1      10.337  15.944  24.913  0.00  0.00    +0.000 A 
ATOM     12  C   UNL     1      10.899  13.281  25.493  0.00  0.00    +0.000 A 
ATOM     13  C   UNL     1      11.089  15.619  26.044  0.00  0.00    +0.000 A 
ATOM     14  C   UNL     1      11.379  14.287  26.328  0.00  0.00    +0.000 A 
ENDBRANCH   5   9
BRANCH   4  16
ATOM     15  N   UNL     1      12.034  14.883  21.009  0.00  0.00    +0.000 NA
ATOM     16  C   UNL     1      11.152  15.811  21.237  0.00  0.00    +0.000 C 
BRANCH  15  17
ATOM     17  O   UNL     1      11.485  13.605  21.118  0.00  0.00    +0.000 OA
BRANCH  17  19
ATOM     18  O   UNL     1      13.438  12.786  20.353  0.00  0.00    +0.000 OA
ATOM     19  C   UNL     1      12.303  12.569  20.770  0.00  0.00    +0.000 C 
BRANCH  19  22
ATOM     20 CL   UNL     1      12.639   7.683  19.276  0.00  0.00    +0.000 Cl
ATOM     21 CL   UNL     1      10.805   6.841  21.828  0.00  0.00    +0.000 Cl
ATOM     22  C   UNL     1      11.914  11.172  21.088  0.00  0.00    +0.000 A 
ATOM     23  C   UNL     1      12.377  10.182  20.209  0.00  0.00    +0.000 A 
ATOM     24  C   UNL     1      11.072  10.811  22.143  0.00  0.00    +0.000 A 
ATOM     25  C   UNL     1      12.041   8.842  20.410  0.00  0.00    +0.000 A 
ATOM     26  C   UNL     1      10.757   9.467  22.361  0.00  0.00    +0.000 A 
ATOM     27  C   UNL     1      11.241   8.480  21.498  0.00  0.00    +0.000 A 
ENDBRANCH  19  22
ENDBRANCH  17  19
ENDBRANCH  15  17
ENDBRANCH   4  16
TORSDOF 5
ENDMDL
MODEL 9
REMARK VINA RESULT:      -5.6     29.624     31.341
REMARK  Name = 1473296
REMARK  5 active torsions:
REMARK  status: ('A' for Active; 'I' for Inactive)
REMARK    1  A    between atoms: O_4  and  N_8
REMARK    2  A    between atoms: O_4  and  C_24
REMARK    3  A    between atoms: C_9  and  C_14
REMARK    4  A    between atoms: C_10  and  C_12
REMARK    5  A    between atoms: C_21  and  C_24
REMARK                            x       y       z     vdW  Elec       q    Type
REMARK                         _______ _______ _______ _____ _____    ______ ____
ROOT
ATOM      1  S   UNL     1      -7.141 -15.209  12.997  0.00  0.00    +0.000 S 
ATOM      2  N   UNL     1      -4.685 -14.473  12.809  0.00  0.00    +0.000 N 
ATOM      3  N   UNL     1      -5.973 -12.966  11.780  0.00  0.00    +0.000 NA
ATOM      4  C   UNL     1      -3.804 -13.542  12.308  0.00  0.00    +0.000 A 
ATOM      5  C   UNL     1      -4.637 -12.606  11.679  0.00  0.00    +0.000 A 
ATOM      6  C   UNL     1      -5.937 -14.093  12.431  0.00  0.00    +0.000 A 
ATOM      7  C   UNL     1      -4.638 -15.619  13.580  0.00  0.00    +0.000 A 
ATOM      8  C   UNL     1      -5.856 -16.155  13.761  0.00  0.00    +0.000 A 
ENDROOT
BRANCH   5   9
ATOM      9  C   UNL     1      -4.223 -11.371  11.026  0.00  0.00    +0.000 A 
ATOM     10  C   UNL     1      -3.084 -10.699  11.491  0.00  0.00    +0.000 A 
ATOM     11  C   UNL     1      -4.917 -10.827   9.936  0.00  0.00    +0.000 A 
ATOM     12  C   UNL     1      -2.617  -9.552  10.846  0.00  0.00    +0.000 A 
ATOM     13  C   UNL     1      -4.442  -9.691   9.278  0.00  0.00    +0.000 A 
ATOM     14  C   UNL     1      -3.285  -9.059   9.727  0.00  0.00    +0.000 A 
ENDBRANCH   5   9
BRANCH   4  16
ATOM     15  N   UNL     1      -1.708 -13.245  13.552  0.00  0.00    +0.000 NA
ATOM     16  C   UNL     1      -2.378 -13.520  12.472  0.00  0.00    +0.000 C 
BRANCH  15  17
ATOM     17  O   UNL     1      -2.550 -12.955  14.626  0.00  0.00    +0.000 OA
BRANCH  17  19
ATOM     18  O   UNL     1      -1.541 -10.962  14.919  0.00  0.00    +0.000 OA
ATOM     19  C   UNL     1      -2.541 -11.661  15.064  0.00  0.00    +0.000 C 
BRANCH  19  22
ATOM     20 CL   UNL     1      -5.490 -10.645  19.124  0.00  0.00    +0.000 Cl
ATOM     21 CL   UNL     1      -7.610  -9.179  17.139  0.00  0.00    +0.000 Cl
ATOM     22  C   UNL     1      -3.799 -11.020  15.520  0.00  0.00    +0.000 A 
ATOM     23  C   UNL     1      -4.061 -11.076  16.897  0.00  0.00    +0.000 A 
ATOM     24  C   UNL     1      -4.746 -10.448  14.667  0.00  0.00    +0.000 A 
ATOM     25  C   UNL     1      -5.233 -10.524  17.419  0.00  0.00    +0.000 A 
ATOM     26  C   UNL     1      -5.906  -9.872  15.190  0.00  0.00    +0.000 A 
ATOM     27  C   UNL     1      -6.153  -9.906  16.566  0.00  0.00    +0.000 A 
ENDBRANCH  19  22
ENDBRANCH  17  19
ENDBRANCH  15  17
ENDBRANCH   4  16
TORSDOF 5
ENDMDL
MODEL 10
REMARK VINA RESULT:      -5.6      7.976     10.498
REMARK  Name = 1473296
REMARK  5 active torsions:
REMARK  status: ('A' for Active; 'I' for Inactive)
REMARK    1  A    between atoms: O_4  and  N_8
REMARK    2  A    between atoms: O_4  and  C_24
REMARK    3  A    between atoms: C_9  and  C_14
REMARK    4  A    between atoms: C_10  and  C_12
REMARK    5  A    between atoms: C_21  and  C_24
REMARK                            x       y       z     vdW  Elec       q    Type
REMARK                         _______ _______ _______ _____ _____    ______ ____
ROOT
ATOM      1  S   UNL     1      -1.922  19.213  19.487  0.00  0.00    +0.000 S 
ATOM      2  N   UNL     1      -0.870  16.915  19.952  0.00  0.00    +0.000 N 
ATOM      3  N   UNL     1       0.761  18.394  19.579  0.00  0.00    +0.000 NA
ATOM      4  C   UNL     1       0.294  16.185  20.042  0.00  0.00    +0.000 A 
ATOM      5  C   UNL     1       1.298  17.138  19.816  0.00  0.00    +0.000 A 
ATOM      6  C   UNL     1      -0.524  18.196  19.642  0.00  0.00    +0.000 A 
ATOM      7  C   UNL     1      -2.226  16.706  20.115  0.00  0.00    +0.000 A 
ATOM      8  C   UNL     1      -2.938  17.821  19.883  0.00  0.00    +0.000 A 
ENDROOT
BRANCH   5   9
ATOM      9  C   UNL     1       2.737  16.913  19.854  0.00  0.00    +0.000 A 
ATOM     10  C   UNL     1       3.570  17.906  20.389  0.00  0.00    +0.000 A 
ATOM     11  C   UNL     1       3.327  15.732  19.384  0.00  0.00    +0.000 A 
ATOM     12  C   UNL     1       4.946  17.697  20.508  0.00  0.00    +0.000 A 
ATOM     13  C   UNL     1       4.700  15.513  19.519  0.00  0.00    +0.000 A 
ATOM     14  C   UNL     1       5.508  16.492  20.091  0.00  0.00    +0.000 A 
ENDBRANCH   5   9
BRANCH   4  16
ATOM     15  N   UNL     1       0.759  14.274  21.513  0.00  0.00    +0.000 NA
ATOM     16  C   UNL     1       0.423  14.793  20.368  0.00  0.00    +0.000 C 
BRANCH  15  17
ATOM     17  O   UNL     1       0.997  15.254  22.478  0.00  0.00    +0.000 OA
BRANCH  17  19
ATOM     18  O   UNL     1       2.270  13.836  23.679  0.00  0.00    +0.000 OA
ATOM     19  C   UNL     1       2.006  14.993  23.361  0.00  0.00    +0.000 C 
BRANCH  19  22
ATOM     20 CL   UNL     1       6.900  16.487  23.554  0.00  0.00    +0.000 Cl
ATOM     21 CL   UNL     1       5.941  19.226  25.024  0.00  0.00    +0.000 Cl
ATOM     22  C   UNL     1       2.929  16.077  23.780  0.00  0.00    +0.000 A 
ATOM     23  C   UNL     1       4.291  15.870  23.518  0.00  0.00    +0.000 A 
ATOM     24  C   UNL     1       2.532  17.225  24.471  0.00  0.00    +0.000 A 
ATOM     25  C   UNL     1       5.239  16.821  23.900  0.00  0.00    +0.000 A 
ATOM     26  C   UNL     1       3.477  18.190  24.830  0.00  0.00    +0.000 A 
ATOM     27  C   UNL     1       4.831  17.993  24.545  0.00  0.00    +0.000 A 
ENDBRANCH  19  22
ENDBRANCH  17  19
ENDBRANCH  15  17
ENDBRANCH   4  16
TORSDOF 5
ENDMDL
