MODEL 1
REMARK VINA RESULT:      -5.6      0.000      0.000
REMARK  Name = 1473296
REMARK  5 active torsions:
REMARK  status: ('A' for Active; 'I' for Inactive)
REMARK    1  A    between atoms: O_4  and  N_8
REMARK    2  A    between atoms: O_4  and  C_24
REMARK    3  A    between atoms: C_9  and  C_14
REMARK    4  A    between atoms: C_10  and  C_12
REMARK    5  A    between atoms: C_21  and  C_24
REMARK                            x       y       z     vdW  Elec       q    Type
REMARK                         _______ _______ _______ _____ _____    ______ ____
ROOT
ATOM      1  S   UNL     1      -9.166   9.728 -32.007  0.00  0.00    +0.000 S 
ATOM      2  N   UNL     1     -10.789   9.326 -33.959  0.00  0.00    +0.000 N 
ATOM      3  N   UNL     1      -9.284   7.677 -33.919  0.00  0.00    +0.000 NA
ATOM      4  C   UNL     1     -11.115   8.527 -35.031  0.00  0.00    +0.000 A 
ATOM      5  C   UNL     1     -10.164   7.498 -34.975  0.00  0.00    +0.000 A 
ATOM      6  C   UNL     1      -9.683   8.789 -33.373  0.00  0.00    +0.000 A 
ATOM      7  C   UNL     1     -11.282  10.456 -33.335  0.00  0.00    +0.000 A 
ATOM      8  C   UNL     1     -10.526  10.824 -32.288  0.00  0.00    +0.000 A 
ENDROOT
BRANCH   5   9
ATOM      9  C   UNL     1     -10.083   6.338 -35.853  0.00  0.00    +0.000 A 
ATOM     10  C   UNL     1      -8.851   5.688 -36.016  0.00  0.00    +0.000 A 
ATOM     11  C   UNL     1     -11.196   5.834 -36.539  0.00  0.00    +0.000 A 
ATOM     12  C   UNL     1      -8.750   4.531 -36.793  0.00  0.00    +0.000 A 
ATOM     13  C   UNL     1     -11.102   4.667 -37.301  0.00  0.00    +0.000 A 
ATOM     14  C   UNL     1      -9.880   4.010 -37.419  0.00  0.00    +0.000 A 
ENDBRANCH   5   9
BRANCH   4  16
ATOM     15  N   UNL     1     -13.478   8.454 -35.696  0.00  0.00    +0.000 NA
ATOM     16  C   UNL     1     -12.221   8.691 -35.932  0.00  0.00    +0.000 C 
BRANCH  15  17
ATOM     17  O   UNL     1     -13.686   7.997 -34.394  0.00  0.00    +0.000 OA
BRANCH  17  19
ATOM     18  O   UNL     1     -15.676   7.046 -34.848  0.00  0.00    +0.000 OA
ATOM     19  C   UNL     1     -14.605   6.997 -34.248  0.00  0.00    +0.000 C 
BRANCH  19  22
ATOM     20 CL   UNL     1     -10.844   3.645 -33.336  0.00  0.00    +0.000 Cl
ATOM     21 CL   UNL     1     -12.912   1.916 -31.514  0.00  0.00    +0.000 Cl
ATOM     22  C   UNL     1     -14.240   5.746 -33.540  0.00  0.00    +0.000 A 
ATOM     23  C   UNL     1     -12.916   5.307 -33.694  0.00  0.00    +0.000 A 
ATOM     24  C   UNL     1     -15.139   4.963 -32.811  0.00  0.00    +0.000 A 
ATOM     25  C   UNL     1     -12.486   4.126 -33.087  0.00  0.00    +0.000 A 
ATOM     26  C   UNL     1     -14.703   3.794 -32.182  0.00  0.00    +0.000 A 
ATOM     27  C   UNL     1     -13.377   3.373 -32.316  0.00  0.00    +0.000 A 
ENDBRANCH  19  22
ENDBRANCH  17  19
ENDBRANCH  15  17
ENDBRANCH   4  16
TORSDOF 5
ENDMDL
MODEL 2
REMARK VINA RESULT:      -5.5     20.814     22.638
REMARK  Name = 1473296
REMARK  5 active torsions:
REMARK  status: ('A' for Active; 'I' for Inactive)
REMARK    1  A    between atoms: O_4  and  N_8
REMARK    2  A    between atoms: O_4  and  C_24
REMARK    3  A    between atoms: C_9  and  C_14
REMARK    4  A    between atoms: C_10  and  C_12
REMARK    5  A    between atoms: C_21  and  C_24
REMARK                            x       y       z     vdW  Elec       q    Type
REMARK                         _______ _______ _______ _____ _____    ______ ____
ROOT
ATOM      1  S   UNL     1      -1.084  -2.062 -54.267  0.00  0.00    +0.000 S 
ATOM      2  N   UNL     1      -2.568  -0.427 -52.952  0.00  0.00    +0.000 N 
ATOM      3  N   UNL     1      -3.872  -1.754 -54.186  0.00  0.00    +0.000 NA
ATOM      4  C   UNL     1      -3.850   0.009 -52.701  0.00  0.00    +0.000 A 
ATOM      5  C   UNL     1      -4.645  -0.846 -53.478  0.00  0.00    +0.000 A 
ATOM      6  C   UNL     1      -2.653  -1.439 -53.860  0.00  0.00    +0.000 A 
ATOM      7  C   UNL     1      -1.286  -0.140 -52.523  0.00  0.00    +0.000 A 
ATOM      8  C   UNL     1      -0.368  -0.903 -53.138  0.00  0.00    +0.000 A 
ENDROOT
BRANCH   5   9
ATOM      9  C   UNL     1      -6.101  -0.863 -53.543  0.00  0.00    +0.000 A 
ATOM     10  C   UNL     1      -6.808  -1.824 -52.806  0.00  0.00    +0.000 A 
ATOM     11  C   UNL     1      -6.830   0.056 -54.310  0.00  0.00    +0.000 A 
ATOM     12  C   UNL     1      -8.205  -1.825 -52.787  0.00  0.00    +0.000 A 
ATOM     13  C   UNL     1      -8.226   0.068 -54.278  0.00  0.00    +0.000 A 
ATOM     14  C   UNL     1      -8.914  -0.866 -53.508  0.00  0.00    +0.000 A 
ENDBRANCH   5   9
BRANCH   4  16
ATOM     15  N   UNL     1      -4.439   2.306 -52.063  0.00  0.00    +0.000 NA
ATOM     16  C   UNL     1      -4.253   1.046 -51.795  0.00  0.00    +0.000 C 
BRANCH  15  17
ATOM     17  O   UNL     1      -4.203   2.591 -53.408  0.00  0.00    +0.000 OA
BRANCH  17  19
ATOM     18  O   UNL     1      -6.230   3.524 -53.717  0.00  0.00    +0.000 OA
ATOM     19  C   UNL     1      -5.029   3.517 -53.979  0.00  0.00    +0.000 C 
BRANCH  19  22
ATOM     20 CL   UNL     1      -2.939   4.923 -58.437  0.00  0.00    +0.000 Cl
ATOM     21 CL   UNL     1      -2.634   7.944 -57.270  0.00  0.00    +0.000 Cl
ATOM     22  C   UNL     1      -4.460   4.651 -54.749  0.00  0.00    +0.000 A 
ATOM     23  C   UNL     1      -4.030   4.363 -56.053  0.00  0.00    +0.000 A 
ATOM     24  C   UNL     1      -4.264   5.934 -54.232  0.00  0.00    +0.000 A 
ATOM     25  C   UNL     1      -3.456   5.359 -56.846  0.00  0.00    +0.000 A 
ATOM     26  C   UNL     1      -3.714   6.938 -55.033  0.00  0.00    +0.000 A 
ATOM     27  C   UNL     1      -3.310   6.655 -56.341  0.00  0.00    +0.000 A 
ENDBRANCH  19  22
ENDBRANCH  17  19
ENDBRANCH  15  17
ENDBRANCH   4  16
TORSDOF 5
ENDMDL
MODEL 3
REMARK VINA RESULT:      -5.4      3.318      4.146
REMARK  Name = 1473296
REMARK  5 active torsions:
REMARK  status: ('A' for Active; 'I' for Inactive)
REMARK    1  A    between atoms: O_4  and  N_8
REMARK    2  A    between atoms: O_4  and  C_24
REMARK    3  A    between atoms: C_9  and  C_14
REMARK    4  A    between atoms: C_10  and  C_12
REMARK    5  A    between atoms: C_21  and  C_24
REMARK                            x       y       z     vdW  Elec       q    Type
REMARK                         _______ _______ _______ _____ _____    ______ ____
ROOT
ATOM      1  S   UNL     1      -9.392   9.935 -31.815  0.00  0.00    +0.000 S 
ATOM      2  N   UNL     1     -10.811   9.352 -33.877  0.00  0.00    +0.000 N 
ATOM      3  N   UNL     1      -9.140   7.881 -33.711  0.00  0.00    +0.000 NA
ATOM      4  C   UNL     1     -10.966   8.520 -34.962  0.00  0.00    +0.000 A 
ATOM      5  C   UNL     1      -9.914   7.603 -34.827  0.00  0.00    +0.000 A 
ATOM      6  C   UNL     1      -9.699   8.943 -33.206  0.00  0.00    +0.000 A 
ATOM      7  C   UNL     1     -11.471  10.422 -33.302  0.00  0.00    +0.000 A 
ATOM      8  C   UNL     1     -10.840  10.873 -32.206  0.00  0.00    +0.000 A 
ENDROOT
BRANCH   5   9
ATOM      9  C   UNL     1      -9.640   6.458 -35.685  0.00  0.00    +0.000 A 
ATOM     10  C   UNL     1      -8.317   6.185 -36.059  0.00  0.00    +0.000 A 
ATOM     11  C   UNL     1     -10.651   5.606 -36.148  0.00  0.00    +0.000 A 
ATOM     12  C   UNL     1      -8.008   5.055 -36.821  0.00  0.00    +0.000 A 
ATOM     13  C   UNL     1     -10.344   4.467 -36.894  0.00  0.00    +0.000 A 
ATOM     14  C   UNL     1      -9.020   4.185 -37.222  0.00  0.00    +0.000 A 
ENDBRANCH   5   9
BRANCH   4  16
ATOM     15  N   UNL     1     -13.210   8.057 -35.848  0.00  0.00    +0.000 NA
ATOM     16  C   UNL     1     -12.014   8.559 -35.944  0.00  0.00    +0.000 C 
BRANCH  15  17
ATOM     17  O   UNL     1     -13.414   7.433 -34.616  0.00  0.00    +0.000 OA
BRANCH  17  19
ATOM     18  O   UNL     1     -15.011   6.095 -33.760  0.00  0.00    +0.000 OA
ATOM     19  C   UNL     1     -14.713   7.163 -34.289  0.00  0.00    +0.000 C 
BRANCH  19  22
ATOM     20 CL   UNL     1     -16.608  11.332 -31.998  0.00  0.00    +0.000 Cl
ATOM     21 CL   UNL     1     -18.821  11.554 -34.373  0.00  0.00    +0.000 Cl
ATOM     22  C   UNL     1     -15.739   8.231 -34.369  0.00  0.00    +0.000 A 
ATOM     23  C   UNL     1     -15.731   9.181 -33.336  0.00  0.00    +0.000 A 
ATOM     24  C   UNL     1     -16.734   8.295 -35.348  0.00  0.00    +0.000 A 
ATOM     25  C   UNL     1     -16.676  10.209 -33.311  0.00  0.00    +0.000 A 
ATOM     26  C   UNL     1     -17.664   9.338 -35.338  0.00  0.00    +0.000 A 
ATOM     27  C   UNL     1     -17.637  10.298 -34.323  0.00  0.00    +0.000 A 
ENDBRANCH  19  22
ENDBRANCH  17  19
ENDBRANCH  15  17
ENDBRANCH   4  16
TORSDOF 5
ENDMDL
MODEL 4
REMARK VINA RESULT:      -5.4      3.062      4.171
REMARK  Name = 1473296
REMARK  5 active torsions:
REMARK  status: ('A' for Active; 'I' for Inactive)
REMARK    1  A    between atoms: O_4  and  N_8
REMARK    2  A    between atoms: O_4  and  C_24
REMARK    3  A    between atoms: C_9  and  C_14
REMARK    4  A    between atoms: C_10  and  C_12
REMARK    5  A    between atoms: C_21  and  C_24
REMARK                            x       y       z     vdW  Elec       q    Type
REMARK                         _______ _______ _______ _____ _____    ______ ____
ROOT
ATOM      1  S   UNL     1     -11.037  13.461 -34.011  0.00  0.00    +0.000 S 
ATOM      2  N   UNL     1      -9.889  11.442 -32.912  0.00  0.00    +0.000 N 
ATOM      3  N   UNL     1     -10.856  10.778 -34.812  0.00  0.00    +0.000 NA
ATOM      4  C   UNL     1      -9.635  10.091 -32.982  0.00  0.00    +0.000 A 
ATOM      5  C   UNL     1     -10.242   9.704 -34.186  0.00  0.00    +0.000 A 
ATOM      6  C   UNL     1     -10.640  11.771 -33.999  0.00  0.00    +0.000 A 
ATOM      7  C   UNL     1      -9.572  12.503 -32.086  0.00  0.00    +0.000 A 
ATOM      8  C   UNL     1     -10.121  13.653 -32.510  0.00  0.00    +0.000 A 
ENDROOT
BRANCH   5   9
ATOM      9  C   UNL     1     -10.228   8.374 -34.781  0.00  0.00    +0.000 A 
ATOM     10  C   UNL     1     -11.248   8.013 -35.673  0.00  0.00    +0.000 A 
ATOM     11  C   UNL     1      -9.224   7.437 -34.504  0.00  0.00    +0.000 A 
ATOM     12  C   UNL     1     -11.229   6.774 -36.317  0.00  0.00    +0.000 A 
ATOM     13  C   UNL     1      -9.192   6.204 -35.161  0.00  0.00    +0.000 A 
ATOM     14  C   UNL     1     -10.189   5.877 -36.076  0.00  0.00    +0.000 A 
ENDBRANCH   5   9
BRANCH   4  16
ATOM     15  N   UNL     1      -9.304   8.546 -31.101  0.00  0.00    +0.000 NA
ATOM     16  C   UNL     1      -8.863   9.303 -32.063  0.00  0.00    +0.000 C 
BRANCH  15  17
ATOM     17  O   UNL     1     -10.698   8.556 -31.030  0.00  0.00    +0.000 OA
BRANCH  17  19
ATOM     18  O   UNL     1     -11.042   6.376 -30.579  0.00  0.00    +0.000 OA
ATOM     19  C   UNL     1     -11.319   7.361 -31.259  0.00  0.00    +0.000 C 
BRANCH  19  22
ATOM     20 CL   UNL     1     -15.492   9.805 -32.940  0.00  0.00    +0.000 Cl
ATOM     21 CL   UNL     1     -16.126   7.265 -34.872  0.00  0.00    +0.000 Cl
ATOM     22  C   UNL     1     -12.480   7.288 -32.180  0.00  0.00    +0.000 A 
ATOM     23  C   UNL     1     -13.340   8.396 -32.185  0.00  0.00    +0.000 A 
ATOM     24  C   UNL     1     -12.795   6.174 -32.962  0.00  0.00    +0.000 A 
ATOM     25  C   UNL     1     -14.475   8.409 -33.000  0.00  0.00    +0.000 A 
ATOM     26  C   UNL     1     -13.916   6.196 -33.797  0.00  0.00    +0.000 A 
ATOM     27  C   UNL     1     -14.757   7.312 -33.820  0.00  0.00    +0.000 A 
ENDBRANCH  19  22
ENDBRANCH  17  19
ENDBRANCH  15  17
ENDBRANCH   4  16
TORSDOF 5
ENDMDL
MODEL 5
REMARK VINA RESULT:      -5.3     24.066     26.085
REMARK  Name = 1473296
REMARK  5 active torsions:
REMARK  status: ('A' for Active; 'I' for Inactive)
REMARK    1  A    between atoms: O_4  and  N_8
REMARK    2  A    between atoms: O_4  and  C_24
REMARK    3  A    between atoms: C_9  and  C_14
REMARK    4  A    between atoms: C_10  and  C_12
REMARK    5  A    between atoms: C_21  and  C_24
REMARK                            x       y       z     vdW  Elec       q    Type
REMARK                         _______ _______ _______ _____ _____    ______ ____
ROOT
ATOM      1  S   UNL     1     -25.038   3.632 -54.696  0.00  0.00    +0.000 S 
ATOM      2  N   UNL     1     -24.008   4.263 -56.964  0.00  0.00    +0.000 N 
ATOM      3  N   UNL     1     -22.812   5.215 -55.337  0.00  0.00    +0.000 NA
ATOM      4  C   UNL     1     -23.030   4.977 -57.619  0.00  0.00    +0.000 A 
ATOM      5  C   UNL     1     -22.290   5.553 -56.576  0.00  0.00    +0.000 A 
ATOM      6  C   UNL     1     -23.843   4.477 -55.629  0.00  0.00    +0.000 A 
ATOM      7  C   UNL     1     -25.042   3.406 -57.289  0.00  0.00    +0.000 A 
ATOM      8  C   UNL     1     -25.712   2.991 -56.201  0.00  0.00    +0.000 A 
ENDROOT
BRANCH   5   9
ATOM      9  C   UNL     1     -21.092   6.372 -56.707  0.00  0.00    +0.000 A 
ATOM     10  C   UNL     1     -20.650   7.119 -55.605  0.00  0.00    +0.000 A 
ATOM     11  C   UNL     1     -20.351   6.438 -57.895  0.00  0.00    +0.000 A 
ATOM     12  C   UNL     1     -19.467   7.859 -55.671  0.00  0.00    +0.000 A 
ATOM     13  C   UNL     1     -19.159   7.162 -57.958  0.00  0.00    +0.000 A 
ATOM     14  C   UNL     1     -18.711   7.864 -56.842  0.00  0.00    +0.000 A 
ENDBRANCH   5   9
BRANCH   4  16
ATOM     15  N   UNL     1     -23.294   5.890 -59.883  0.00  0.00    +0.000 NA
ATOM     16  C   UNL     1     -22.799   5.038 -59.035  0.00  0.00    +0.000 C 
BRANCH  15  17
ATOM     17  O   UNL     1     -24.130   6.818 -59.260  0.00  0.00    +0.000 OA
BRANCH  17  19
ATOM     18  O   UNL     1     -24.769   8.666 -60.378  0.00  0.00    +0.000 OA
ATOM     19  C   UNL     1     -23.960   8.122 -59.631  0.00  0.00    +0.000 C 
BRANCH  19  22
ATOM     20 CL   UNL     1     -22.600  10.448 -55.277  0.00  0.00    +0.000 Cl
ATOM     21 CL   UNL     1     -19.924  11.540 -56.769  0.00  0.00    +0.000 Cl
ATOM     22  C   UNL     1     -22.924   8.955 -58.972  0.00  0.00    +0.000 A 
ATOM     23  C   UNL     1     -23.150   9.279 -57.626  0.00  0.00    +0.000 A 
ATOM     24  C   UNL     1     -21.807   9.484 -59.625  0.00  0.00    +0.000 A 
ATOM     25  C   UNL     1     -22.245  10.082 -56.928  0.00  0.00    +0.000 A 
ATOM     26  C   UNL     1     -20.887  10.265 -58.920  0.00  0.00    +0.000 A 
ATOM     27  C   UNL     1     -21.101  10.565 -57.572  0.00  0.00    +0.000 A 
ENDBRANCH  19  22
ENDBRANCH  17  19
ENDBRANCH  15  17
ENDBRANCH   4  16
TORSDOF 5
ENDMDL
MODEL 6
REMARK VINA RESULT:      -5.3     20.910     22.571
REMARK  Name = 1473296
REMARK  5 active torsions:
REMARK  status: ('A' for Active; 'I' for Inactive)
REMARK    1  A    between atoms: O_4  and  N_8
REMARK    2  A    between atoms: O_4  and  C_24
REMARK    3  A    between atoms: C_9  and  C_14
REMARK    4  A    between atoms: C_10  and  C_12
REMARK    5  A    between atoms: C_21  and  C_24
REMARK                            x       y       z     vdW  Elec       q    Type
REMARK                         _______ _______ _______ _____ _____    ______ ____
ROOT
ATOM      1  S   UNL     1      -7.388  16.546 -57.157  0.00  0.00    +0.000 S 
ATOM      2  N   UNL     1      -8.843  15.701 -55.215  0.00  0.00    +0.000 N 
ATOM      3  N   UNL     1      -6.716  15.153 -54.816  0.00  0.00    +0.000 NA
ATOM      4  C   UNL     1      -8.875  15.014 -54.022  0.00  0.00    +0.000 A 
ATOM      5  C   UNL     1      -7.530  14.693 -53.792  0.00  0.00    +0.000 A 
ATOM      6  C   UNL     1      -7.550  15.713 -55.643  0.00  0.00    +0.000 A 
ATOM      7  C   UNL     1      -9.730  16.373 -56.035  0.00  0.00    +0.000 A 
ATOM      8  C   UNL     1      -9.127  16.868 -57.129  0.00  0.00    +0.000 A 
ENDROOT
BRANCH   5   9
ATOM      9  C   UNL     1      -6.984  14.008 -52.627  0.00  0.00    +0.000 A 
ATOM     10  C   UNL     1      -6.129  14.705 -51.762  0.00  0.00    +0.000 A 
ATOM     11  C   UNL     1      -7.290  12.673 -52.328  0.00  0.00    +0.000 A 
ATOM     12  C   UNL     1      -5.644  14.103 -50.598  0.00  0.00    +0.000 A 
ATOM     13  C   UNL     1      -6.821  12.076 -51.156  0.00  0.00    +0.000 A 
ATOM     14  C   UNL     1      -6.007  12.795 -50.285  0.00  0.00    +0.000 A 
ENDBRANCH   5   9
BRANCH   4  16
ATOM     15  N   UNL     1     -10.806  13.729 -53.214  0.00  0.00    +0.000 NA
ATOM     16  C   UNL     1     -10.021  14.766 -53.193  0.00  0.00    +0.000 C 
BRANCH  15  17
ATOM     17  O   UNL     1     -10.413  12.800 -54.178  0.00  0.00    +0.000 OA
BRANCH  17  19
ATOM     18  O   UNL     1     -12.376  11.702 -54.060  0.00  0.00    +0.000 OA
ATOM     19  C   UNL     1     -11.413  12.055 -54.736  0.00  0.00    +0.000 C 
BRANCH  19  22
ATOM     20 CL   UNL     1      -9.301  13.351 -59.217  0.00  0.00    +0.000 Cl
ATOM     21 CL   UNL     1     -11.439  11.410 -60.715  0.00  0.00    +0.000 Cl
ATOM     22  C   UNL     1     -11.457  11.846 -56.204  0.00  0.00    +0.000 A 
ATOM     23  C   UNL     1     -10.510  12.552 -56.961  0.00  0.00    +0.000 A 
ATOM     24  C   UNL     1     -12.415  11.068 -56.860  0.00  0.00    +0.000 A 
ATOM     25  C   UNL     1     -10.490  12.440 -58.353  0.00  0.00    +0.000 A 
ATOM     26  C   UNL     1     -12.379  10.935 -58.250  0.00  0.00    +0.000 A 
ATOM     27  C   UNL     1     -11.418  11.618 -59.001  0.00  0.00    +0.000 A 
ENDBRANCH  19  22
ENDBRANCH  17  19
ENDBRANCH  15  17
ENDBRANCH   4  16
TORSDOF 5
ENDMDL
MODEL 7
REMARK VINA RESULT:      -5.3     22.733     24.627
REMARK  Name = 1473296
REMARK  5 active torsions:
REMARK  status: ('A' for Active; 'I' for Inactive)
REMARK    1  A    between atoms: O_4  and  N_8
REMARK    2  A    between atoms: O_4  and  C_24
REMARK    3  A    between atoms: C_9  and  C_14
REMARK    4  A    between atoms: C_10  and  C_12
REMARK    5  A    between atoms: C_21  and  C_24
REMARK                            x       y       z     vdW  Elec       q    Type
REMARK                         _______ _______ _______ _____ _____    ______ ____
ROOT
ATOM      1  S   UNL     1     -25.490   4.000 -55.266  0.00  0.00    +0.000 S 
ATOM      2  N   UNL     1     -24.114   5.855 -54.138  0.00  0.00    +0.000 N 
ATOM      3  N   UNL     1     -23.036   5.165 -55.968  0.00  0.00    +0.000 NA
ATOM      4  C   UNL     1     -22.957   6.600 -54.166  0.00  0.00    +0.000 A 
ATOM      5  C   UNL     1     -22.307   6.156 -55.327  0.00  0.00    +0.000 A 
ATOM      6  C   UNL     1     -24.078   5.008 -55.205  0.00  0.00    +0.000 A 
ATOM      7  C   UNL     1     -25.258   5.766 -53.368  0.00  0.00    +0.000 A 
ATOM      8  C   UNL     1     -26.091   4.812 -53.814  0.00  0.00    +0.000 A 
ENDROOT
BRANCH   5   9
ATOM      9  C   UNL     1     -21.052   6.658 -55.870  0.00  0.00    +0.000 A 
ATOM     10  C   UNL     1     -20.530   6.080 -57.036  0.00  0.00    +0.000 A 
ATOM     11  C   UNL     1     -20.343   7.711 -55.275  0.00  0.00    +0.000 A 
ATOM     12  C   UNL     1     -19.367   6.582 -57.625  0.00  0.00    +0.000 A 
ATOM     13  C   UNL     1     -19.190   8.226 -55.872  0.00  0.00    +0.000 A 
ATOM     14  C   UNL     1     -18.709   7.669 -57.053  0.00  0.00    +0.000 A 
ENDBRANCH   5   9
BRANCH   4  16
ATOM     15  N   UNL     1     -23.083   8.824 -53.133  0.00  0.00    +0.000 NA
ATOM     16  C   UNL     1     -22.568   7.635 -53.251  0.00  0.00    +0.000 C 
BRANCH  15  17
ATOM     17  O   UNL     1     -24.129   9.029 -54.033  0.00  0.00    +0.000 OA
BRANCH  17  19
ATOM     18  O   UNL     1     -24.406  11.203 -54.556  0.00  0.00    +0.000 OA
ATOM     19  C   UNL     1     -23.992  10.092 -54.880  0.00  0.00    +0.000 C 
BRANCH  19  22
ATOM     20 CL   UNL     1     -20.010  12.039 -57.444  0.00  0.00    +0.000 Cl
ATOM     21 CL   UNL     1     -20.510   9.826 -59.776  0.00  0.00    +0.000 Cl
ATOM     22  C   UNL     1     -23.158   9.970 -56.101  0.00  0.00    +0.000 A 
ATOM     23  C   UNL     1     -22.103  10.887 -56.228  0.00  0.00    +0.000 A 
ATOM     24  C   UNL     1     -23.407   9.067 -57.138  0.00  0.00    +0.000 A 
ATOM     25  C   UNL     1     -21.279  10.868 -57.355  0.00  0.00    +0.000 A 
ATOM     26  C   UNL     1     -22.567   9.030 -58.254  0.00  0.00    +0.000 A 
ATOM     27  C   UNL     1     -21.501   9.927 -58.366  0.00  0.00    +0.000 A 
ENDBRANCH  19  22
ENDBRANCH  17  19
ENDBRANCH  15  17
ENDBRANCH   4  16
TORSDOF 5
ENDMDL
MODEL 8
REMARK VINA RESULT:      -5.2     20.631     22.210
REMARK  Name = 1473296
REMARK  5 active torsions:
REMARK  status: ('A' for Active; 'I' for Inactive)
REMARK    1  A    between atoms: O_4  and  N_8
REMARK    2  A    between atoms: O_4  and  C_24
REMARK    3  A    between atoms: C_9  and  C_14
REMARK    4  A    between atoms: C_10  and  C_12
REMARK    5  A    between atoms: C_21  and  C_24
REMARK                            x       y       z     vdW  Elec       q    Type
REMARK                         _______ _______ _______ _____ _____    ______ ____
ROOT
ATOM      1  S   UNL     1     -25.707   3.674 -54.992  0.00  0.00    +0.000 S 
ATOM      2  N   UNL     1     -24.665   5.915 -54.288  0.00  0.00    +0.000 N 
ATOM      3  N   UNL     1     -23.201   4.802 -55.555  0.00  0.00    +0.000 NA
ATOM      4  C   UNL     1     -23.554   6.726 -54.335  0.00  0.00    +0.000 A 
ATOM      5  C   UNL     1     -22.658   6.011 -55.143  0.00  0.00    +0.000 A 
ATOM      6  C   UNL     1     -24.375   4.787 -54.994  0.00  0.00    +0.000 A 
ATOM      7  C   UNL     1     -25.943   5.955 -53.763  0.00  0.00    +0.000 A 
ATOM      8  C   UNL     1     -26.630   4.832 -54.025  0.00  0.00    +0.000 A 
ENDROOT
BRANCH   5   9
ATOM      9  C   UNL     1     -21.334   6.442 -55.570  0.00  0.00    +0.000 A 
ATOM     10  C   UNL     1     -20.966   7.785 -55.405  0.00  0.00    +0.000 A 
ATOM     11  C   UNL     1     -20.402   5.562 -56.136  0.00  0.00    +0.000 A 
ATOM     12  C   UNL     1     -19.680   8.220 -55.736  0.00  0.00    +0.000 A 
ATOM     13  C   UNL     1     -19.111   5.990 -56.452  0.00  0.00    +0.000 A 
ATOM     14  C   UNL     1     -18.746   7.317 -56.241  0.00  0.00    +0.000 A 
ENDBRANCH   5   9
BRANCH   4  16
ATOM     15  N   UNL     1     -23.032   8.313 -52.535  0.00  0.00    +0.000 NA
ATOM     16  C   UNL     1     -23.404   8.028 -53.749  0.00  0.00    +0.000 C 
BRANCH  15  17
ATOM     17  O   UNL     1     -22.764   7.165 -51.790  0.00  0.00    +0.000 OA
BRANCH  17  19
ATOM     18  O   UNL     1     -22.513   8.256 -49.836  0.00  0.00    +0.000 OA
ATOM     19  C   UNL     1     -22.935   7.272 -50.439  0.00  0.00    +0.000 C 
BRANCH  19  22
ATOM     20 CL   UNL     1     -25.861   3.098 -50.915  0.00  0.00    +0.000 Cl
ATOM     21 CL   UNL     1     -26.566   3.307 -47.746  0.00  0.00    +0.000 Cl
ATOM     22  C   UNL     1     -23.811   6.316 -49.719  0.00  0.00    +0.000 A 
ATOM     23  C   UNL     1     -24.358   5.276 -50.486  0.00  0.00    +0.000 A 
ATOM     24  C   UNL     1     -24.172   6.438 -48.375  0.00  0.00    +0.000 A 
ATOM     25  C   UNL     1     -25.217   4.342 -49.902  0.00  0.00    +0.000 A 
ATOM     26  C   UNL     1     -25.010   5.489 -47.784  0.00  0.00    +0.000 A 
ATOM     27  C   UNL     1     -25.533   4.438 -48.543  0.00  0.00    +0.000 A 
ENDBRANCH  19  22
ENDBRANCH  17  19
ENDBRANCH  15  17
ENDBRANCH   4  16
TORSDOF 5
ENDMDL
MODEL 9
REMARK VINA RESULT:      -5.2     21.007     22.826
REMARK  Name = 1473296
REMARK  5 active torsions:
REMARK  status: ('A' for Active; 'I' for Inactive)
REMARK    1  A    between atoms: O_4  and  N_8
REMARK    2  A    between atoms: O_4  and  C_24
REMARK    3  A    between atoms: C_9  and  C_14
REMARK    4  A    between atoms: C_10  and  C_12
REMARK    5  A    between atoms: C_21  and  C_24
REMARK                            x       y       z     vdW  Elec       q    Type
REMARK                         _______ _______ _______ _____ _____    ______ ____
ROOT
ATOM      1  S   UNL     1      -8.096  13.621 -58.518  0.00  0.00    +0.000 S 
ATOM      2  N   UNL     1      -9.736  12.647 -56.797  0.00  0.00    +0.000 N 
ATOM      3  N   UNL     1     -10.741  12.725 -58.789  0.00  0.00    +0.000 NA
ATOM      4  C   UNL     1     -11.007  12.170 -56.568  0.00  0.00    +0.000 A 
ATOM      5  C   UNL     1     -11.609  12.219 -57.834  0.00  0.00    +0.000 A 
ATOM      6  C   UNL     1      -9.660  12.988 -58.113  0.00  0.00    +0.000 A 
ATOM      7  C   UNL     1      -8.568  12.834 -56.083  0.00  0.00    +0.000 A 
ATOM      8  C   UNL     1      -7.595  13.367 -56.841  0.00  0.00    +0.000 A 
ENDROOT
BRANCH   5   9
ATOM      9  C   UNL     1     -12.952  11.771 -58.178  0.00  0.00    +0.000 A 
ATOM     10  C   UNL     1     -13.178  10.409 -58.420  0.00  0.00    +0.000 A 
ATOM     11  C   UNL     1     -14.039  12.652 -58.267  0.00  0.00    +0.000 A 
ATOM     12  C   UNL     1     -14.465   9.933 -58.683  0.00  0.00    +0.000 A 
ATOM     13  C   UNL     1     -15.329  12.176 -58.511  0.00  0.00    +0.000 A 
ATOM     14  C   UNL     1     -15.544  10.815 -58.708  0.00  0.00    +0.000 A 
ENDBRANCH   5   9
BRANCH   4  16
ATOM     15  N   UNL     1     -12.154  12.349 -54.404  0.00  0.00    +0.000 NA
ATOM     16  C   UNL     1     -11.539  11.674 -55.330  0.00  0.00    +0.000 C 
BRANCH  15  17
ATOM     17  O   UNL     1     -12.270  13.700 -54.735  0.00  0.00    +0.000 OA
BRANCH  17  19
ATOM     18  O   UNL     1     -10.466  14.839 -54.012  0.00  0.00    +0.000 OA
ATOM     19  C   UNL     1     -11.661  14.580 -53.887  0.00  0.00    +0.000 C 
BRANCH  19  22
ATOM     20 CL   UNL     1     -11.547  17.402 -49.615  0.00  0.00    +0.000 Cl
ATOM     21 CL   UNL     1     -14.753  17.868 -49.913  0.00  0.00    +0.000 Cl
ATOM     22  C   UNL     1     -12.472  15.392 -52.946  0.00  0.00    +0.000 A 
ATOM     23  C   UNL     1     -11.782  15.972 -51.871  0.00  0.00    +0.000 A 
ATOM     24  C   UNL     1     -13.859  15.541 -53.030  0.00  0.00    +0.000 A 
ATOM     25  C   UNL     1     -12.465  16.732 -50.918  0.00  0.00    +0.000 A 
ATOM     26  C   UNL     1     -14.539  16.323 -52.092  0.00  0.00    +0.000 A 
ATOM     27  C   UNL     1     -13.846  16.921 -51.036  0.00  0.00    +0.000 A 
ENDBRANCH  19  22
ENDBRANCH  17  19
ENDBRANCH  15  17
ENDBRANCH   4  16
TORSDOF 5
ENDMDL
MODEL 10
REMARK VINA RESULT:      -5.2      2.300      2.699
REMARK  Name = 1473296
REMARK  5 active torsions:
REMARK  status: ('A' for Active; 'I' for Inactive)
REMARK    1  A    between atoms: O_4  and  N_8
REMARK    2  A    between atoms: O_4  and  C_24
REMARK    3  A    between atoms: C_9  and  C_14
REMARK    4  A    between atoms: C_10  and  C_12
REMARK    5  A    between atoms: C_21  and  C_24
REMARK                            x       y       z     vdW  Elec       q    Type
REMARK                         _______ _______ _______ _____ _____    ______ ____
ROOT
ATOM      1  S   UNL     1     -11.960   6.476 -30.312  0.00  0.00    +0.000 S 
ATOM      2  N   UNL     1     -12.130   7.509 -32.659  0.00  0.00    +0.000 N 
ATOM      3  N   UNL     1     -11.019   5.577 -32.798  0.00  0.00    +0.000 NA
ATOM      4  C   UNL     1     -11.796   7.391 -33.989  0.00  0.00    +0.000 A 
ATOM      5  C   UNL     1     -11.111   6.169 -34.049  0.00  0.00    +0.000 A 
ATOM      6  C   UNL     1     -11.612   6.428 -32.012  0.00  0.00    +0.000 A 
ATOM      7  C   UNL     1     -12.843   8.377 -31.854  0.00  0.00    +0.000 A 
ATOM      8  C   UNL     1     -12.836   7.991 -30.568  0.00  0.00    +0.000 A 
ENDROOT
BRANCH   5   9
ATOM      9  C   UNL     1     -10.581   5.525 -35.243  0.00  0.00    +0.000 A 
ATOM     10  C   UNL     1      -9.192   5.457 -35.425  0.00  0.00    +0.000 A 
ATOM     11  C   UNL     1     -11.408   4.957 -36.222  0.00  0.00    +0.000 A 
ATOM     12  C   UNL     1      -8.646   4.785 -36.521  0.00  0.00    +0.000 A 
ATOM     13  C   UNL     1     -10.865   4.269 -37.309  0.00  0.00    +0.000 A 
ATOM     14  C   UNL     1      -9.483   4.173 -37.453  0.00  0.00    +0.000 A 
ENDBRANCH   5   9
BRANCH   4  16
ATOM     15  N   UNL     1     -13.206   8.251 -35.807  0.00  0.00    +0.000 NA
ATOM     16  C   UNL     1     -12.145   8.287 -35.055  0.00  0.00    +0.000 C 
BRANCH  15  17
ATOM     17  O   UNL     1     -14.048   7.191 -35.466  0.00  0.00    +0.000 OA
BRANCH  17  19
ATOM     18  O   UNL     1     -15.993   8.309 -35.663  0.00  0.00    +0.000 OA
ATOM     19  C   UNL     1     -15.291   7.534 -35.018  0.00  0.00    +0.000 C 
BRANCH  19  22
ATOM     20 CL   UNL     1     -14.557   3.866 -31.521  0.00  0.00    +0.000 Cl
ATOM     21 CL   UNL     1     -17.544   4.452 -30.370  0.00  0.00    +0.000 Cl
ATOM     22  C   UNL     1     -15.893   6.816 -33.867  0.00  0.00    +0.000 A 
ATOM     23  C   UNL     1     -15.100   5.825 -33.268  0.00  0.00    +0.000 A 
ATOM     24  C   UNL     1     -17.198   7.016 -33.410  0.00  0.00    +0.000 A 
ATOM     25  C   UNL     1     -15.590   5.078 -32.195  0.00  0.00    +0.000 A 
ATOM     26  C   UNL     1     -17.680   6.286 -32.320  0.00  0.00    +0.000 A 
ATOM     27  C   UNL     1     -16.879   5.318 -31.708  0.00  0.00    +0.000 A 
ENDBRANCH  19  22
ENDBRANCH  17  19
ENDBRANCH  15  17
ENDBRANCH   4  16
TORSDOF 5
ENDMDL
