MODEL 1
REMARK VINA RESULT:      -7.3      0.000      0.000
REMARK  Name = 154040927
REMARK  5 active torsions:
REMARK  status: ('A' for Active; 'I' for Inactive)
REMARK    1  A    between atoms: O_4  and  N_7
REMARK    2  A    between atoms: O_4  and  C_24
REMARK    3  A    between atoms: C_8  and  C_9
REMARK    4  A    between atoms: C_10  and  C_20
REMARK    5  A    between atoms: C_24  and  C_25
REMARK                            x       y       z     vdW  Elec       q    Type
REMARK                         _______ _______ _______ _____ _____    ______ ____
ROOT
ATOM      1  S   UNL     1      -4.042 -15.433  13.051  0.00  0.00    +0.000 S 
ATOM      2  N   UNL     1      -3.008 -13.330  14.111  0.00  0.00    +0.000 N 
ATOM      3  N   UNL     1      -4.899 -13.824  15.178  0.00  0.00    +0.000 NA
ATOM      4  C   UNL     1      -4.322 -12.691  15.735  0.00  0.00    +0.000 A 
ATOM      5  C   UNL     1      -3.136 -12.345  15.064  0.00  0.00    +0.000 A 
ATOM      6  C   UNL     1      -4.081 -14.156  14.227  0.00  0.00    +0.000 A 
ATOM      7  C   UNL     1      -2.115 -13.690  13.119  0.00  0.00    +0.000 A 
ATOM      8  C   UNL     1      -2.529 -14.765  12.430  0.00  0.00    +0.000 A 
ENDROOT
BRANCH   4   9
ATOM      9  C   UNL     1      -4.977 -11.959  16.829  0.00  0.00    +0.000 A 
ATOM     10  C   UNL     1      -6.081 -11.072  16.607  0.00  0.00    +0.000 A 
ATOM     11  C   UNL     1      -6.609 -10.350  17.711  0.00  0.00    +0.000 A 
ATOM     12  C   UNL     1      -4.445 -12.080  18.129  0.00  0.00    +0.000 A 
ATOM     13  C   UNL     1      -6.708 -10.847  15.351  0.00  0.00    +0.000 A 
ATOM     14  C   UNL     1      -6.063 -10.521  18.990  0.00  0.00    +0.000 A 
ATOM     15  C   UNL     1      -4.993 -11.382  19.200  0.00  0.00    +0.000 A 
ATOM     16  C   UNL     1      -7.667  -9.442  17.536  0.00  0.00    +0.000 A 
ATOM     17  C   UNL     1      -7.755  -9.935  15.189  0.00  0.00    +0.000 A 
ATOM     18  C   UNL     1      -8.232  -9.230  16.281  0.00  0.00    +0.000 A 
ENDBRANCH   4   9
BRANCH   5  20
ATOM     19  N   UNL     1      -1.895 -10.306  14.471  0.00  0.00    +0.000 NA
ATOM     20  C   UNL     1      -2.210 -11.266  15.300  0.00  0.00    +0.000 C 
BRANCH  19  21
ATOM     21  O   UNL     1      -2.715 -10.322  13.337  0.00  0.00    +0.000 OA
BRANCH  21  22
ATOM     22  C   UNL     1      -1.929 -10.369  12.148  0.00  0.00    +0.000 C 
BRANCH  22  25
ATOM     23 CL   UNL     1      -5.029 -12.912   8.805  0.00  0.00    +0.000 Cl
ATOM     24 CL   UNL     1      -5.567 -10.062   7.331  0.00  0.00    +0.000 Cl
ATOM     25  C   UNL     1      -2.888 -10.330  10.984  0.00  0.00    +0.000 A 
ATOM     26  C   UNL     1      -3.494 -11.493  10.488  0.00  0.00    +0.000 A 
ATOM     27  C   UNL     1      -3.162  -9.104  10.358  0.00  0.00    +0.000 A 
ATOM     28  C   UNL     1      -4.334 -11.433   9.368  0.00  0.00    +0.000 A 
ATOM     29  C   UNL     1      -4.001  -9.041   9.247  0.00  0.00    +0.000 A 
ATOM     30  C   UNL     1      -4.580 -10.206   8.740  0.00  0.00    +0.000 A 
ENDBRANCH  22  25
ENDBRANCH  21  22
ENDBRANCH  19  21
ENDBRANCH   5  20
TORSDOF 5
ENDMDL
MODEL 2
REMARK VINA RESULT:      -7.0      0.721      2.098
REMARK  Name = 154040927
REMARK  5 active torsions:
REMARK  status: ('A' for Active; 'I' for Inactive)
REMARK    1  A    between atoms: O_4  and  N_7
REMARK    2  A    between atoms: O_4  and  C_24
REMARK    3  A    between atoms: C_8  and  C_9
REMARK    4  A    between atoms: C_10  and  C_20
REMARK    5  A    between atoms: C_24  and  C_25
REMARK                            x       y       z     vdW  Elec       q    Type
REMARK                         _______ _______ _______ _____ _____    ______ ____
ROOT
ATOM      1  S   UNL     1      -4.755 -15.209  12.074  0.00  0.00    +0.000 S 
ATOM      2  N   UNL     1      -3.474 -13.439  13.430  0.00  0.00    +0.000 N 
ATOM      3  N   UNL     1      -5.638 -13.315  13.939  0.00  0.00    +0.000 NA
ATOM      4  C   UNL     1      -4.926 -12.368  14.661  0.00  0.00    +0.000 A 
ATOM      5  C   UNL     1      -3.558 -12.411  14.341  0.00  0.00    +0.000 A 
ATOM      6  C   UNL     1      -4.731 -13.916  13.232  0.00  0.00    +0.000 A 
ATOM      7  C   UNL     1      -2.495 -14.091  12.703  0.00  0.00    +0.000 A 
ATOM      8  C   UNL     1      -3.006 -15.037  11.899  0.00  0.00    +0.000 A 
ENDROOT
BRANCH   4   9
ATOM      9  C   UNL     1      -5.605 -11.423  15.561  0.00  0.00    +0.000 A 
ATOM     10  C   UNL     1      -5.421 -11.448  16.982  0.00  0.00    +0.000 A 
ATOM     11  C   UNL     1      -6.171 -10.544  17.783  0.00  0.00    +0.000 A 
ATOM     12  C   UNL     1      -6.527 -10.513  15.004  0.00  0.00    +0.000 A 
ATOM     13  C   UNL     1      -4.534 -12.316  17.676  0.00  0.00    +0.000 A 
ATOM     14  C   UNL     1      -7.057  -9.642  17.183  0.00  0.00    +0.000 A 
ATOM     15  C   UNL     1      -7.232  -9.621  15.804  0.00  0.00    +0.000 A 
ATOM     16  C   UNL     1      -6.051 -10.557  19.183  0.00  0.00    +0.000 A 
ATOM     17  C   UNL     1      -4.430 -12.323  19.069  0.00  0.00    +0.000 A 
ATOM     18  C   UNL     1      -5.191 -11.445  19.824  0.00  0.00    +0.000 A 
ENDBRANCH   4   9
BRANCH   5  20
ATOM     19  N   UNL     1      -1.921 -10.576  14.291  0.00  0.00    +0.000 NA
ATOM     20  C   UNL     1      -2.455 -11.631  14.846  0.00  0.00    +0.000 C 
BRANCH  19  21
ATOM     21  O   UNL     1      -2.671 -10.143  13.192  0.00  0.00    +0.000 OA
BRANCH  21  22
ATOM     22  C   UNL     1      -1.921 -10.279  11.987  0.00  0.00    +0.000 C 
BRANCH  22  25
ATOM     23 CL   UNL     1      -5.195 -12.902   8.879  0.00  0.00    +0.000 Cl
ATOM     24 CL   UNL     1      -5.685 -10.123   7.260  0.00  0.00    +0.000 Cl
ATOM     25  C   UNL     1      -2.911 -10.274  10.848  0.00  0.00    +0.000 A 
ATOM     26  C   UNL     1      -3.568 -11.443  10.436  0.00  0.00    +0.000 A 
ATOM     27  C   UNL     1      -3.165  -9.077  10.162  0.00  0.00    +0.000 A 
ATOM     28  C   UNL     1      -4.438 -11.417   9.338  0.00  0.00    +0.000 A 
ATOM     29  C   UNL     1      -4.033  -9.049   9.071  0.00  0.00    +0.000 A 
ATOM     30  C   UNL     1      -4.662 -10.221   8.648  0.00  0.00    +0.000 A 
ENDBRANCH  22  25
ENDBRANCH  21  22
ENDBRANCH  19  21
ENDBRANCH   5  20
TORSDOF 5
ENDMDL
MODEL 3
REMARK VINA RESULT:      -6.6     29.651     31.224
REMARK  Name = 154040927
REMARK  5 active torsions:
REMARK  status: ('A' for Active; 'I' for Inactive)
REMARK    1  A    between atoms: O_4  and  N_7
REMARK    2  A    between atoms: O_4  and  C_24
REMARK    3  A    between atoms: C_8  and  C_9
REMARK    4  A    between atoms: C_10  and  C_20
REMARK    5  A    between atoms: C_24  and  C_25
REMARK                            x       y       z     vdW  Elec       q    Type
REMARK                         _______ _______ _______ _____ _____    ______ ____
ROOT
ATOM      1  S   UNL     1       2.151  19.543  20.169  0.00  0.00    +0.000 S 
ATOM      2  N   UNL     1       2.537  18.235  22.350  0.00  0.00    +0.000 N 
ATOM      3  N   UNL     1       4.424  18.245  21.167  0.00  0.00    +0.000 NA
ATOM      4  C   UNL     1       4.609  17.544  22.351  0.00  0.00    +0.000 A 
ATOM      5  C   UNL     1       3.425  17.504  23.107  0.00  0.00    +0.000 A 
ATOM      6  C   UNL     1       3.185  18.628  21.222  0.00  0.00    +0.000 A 
ATOM      7  C   UNL     1       1.225  18.661  22.432  0.00  0.00    +0.000 A 
ATOM      8  C   UNL     1       0.842  19.338  21.338  0.00  0.00    +0.000 A 
ENDROOT
BRANCH   4   9
ATOM      9  C   UNL     1       5.889  16.887  22.658  0.00  0.00    +0.000 A 
ATOM     10  C   UNL     1       6.878  17.487  23.505  0.00  0.00    +0.000 A 
ATOM     11  C   UNL     1       8.116  16.815  23.691  0.00  0.00    +0.000 A 
ATOM     12  C   UNL     1       6.178  15.657  22.031  0.00  0.00    +0.000 A 
ATOM     13  C   UNL     1       6.725  18.724  24.190  0.00  0.00    +0.000 A 
ATOM     14  C   UNL     1       8.347  15.583  23.066  0.00  0.00    +0.000 A 
ATOM     15  C   UNL     1       7.386  15.005  22.247  0.00  0.00    +0.000 A 
ATOM     16  C   UNL     1       9.129  17.382  24.483  0.00  0.00    +0.000 A 
ATOM     17  C   UNL     1       7.743  19.280  24.968  0.00  0.00    +0.000 A 
ATOM     18  C   UNL     1       8.947  18.610  25.113  0.00  0.00    +0.000 A 
ENDBRANCH   4   9
BRANCH   5  20
ATOM     19  N   UNL     1       2.593  15.747  24.614  0.00  0.00    +0.000 NA
ATOM     20  C   UNL     1       3.155  16.905  24.390  0.00  0.00    +0.000 C 
BRANCH  19  21
ATOM     21  O   UNL     1       2.427  15.024  23.427  0.00  0.00    +0.000 OA
BRANCH  21  22
ATOM     22  C   UNL     1       1.057  14.681  23.234  0.00  0.00    +0.000 C 
BRANCH  22  25
ATOM     23 CL   UNL     1       2.495  15.923  18.371  0.00  0.00    +0.000 Cl
ATOM     24 CL   UNL     1      -0.598  16.752  17.802  0.00  0.00    +0.000 Cl
ATOM     25  C   UNL     1       0.678  15.140  21.847  0.00  0.00    +0.000 A 
ATOM     26  C   UNL     1       1.632  15.278  20.829  0.00  0.00    +0.000 A 
ATOM     27  C   UNL     1      -0.659  15.467  21.572  0.00  0.00    +0.000 A 
ATOM     28  C   UNL     1       1.259  15.763  19.569  0.00  0.00    +0.000 A 
ATOM     29  C   UNL     1      -1.033  15.945  20.317  0.00  0.00    +0.000 A 
ATOM     30  C   UNL     1      -0.074  16.108  19.316  0.00  0.00    +0.000 A 
ENDBRANCH  22  25
ENDBRANCH  21  22
ENDBRANCH  19  21
ENDBRANCH   5  20
TORSDOF 5
ENDMDL
MODEL 4
REMARK VINA RESULT:      -6.5     28.842     30.546
REMARK  Name = 154040927
REMARK  5 active torsions:
REMARK  status: ('A' for Active; 'I' for Inactive)
REMARK    1  A    between atoms: O_4  and  N_7
REMARK    2  A    between atoms: O_4  and  C_24
REMARK    3  A    between atoms: C_8  and  C_9
REMARK    4  A    between atoms: C_10  and  C_20
REMARK    5  A    between atoms: C_24  and  C_25
REMARK                            x       y       z     vdW  Elec       q    Type
REMARK                         _______ _______ _______ _____ _____    ______ ____
ROOT
ATOM      1  S   UNL     1       2.012  20.305  23.553  0.00  0.00    +0.000 S 
ATOM      2  N   UNL     1       2.304  17.758  23.754  0.00  0.00    +0.000 N 
ATOM      3  N   UNL     1       3.652  18.518  22.152  0.00  0.00    +0.000 NA
ATOM      4  C   UNL     1       3.794  17.143  22.280  0.00  0.00    +0.000 A 
ATOM      5  C   UNL     1       2.936  16.635  23.271  0.00  0.00    +0.000 A 
ATOM      6  C   UNL     1       2.762  18.824  23.046  0.00  0.00    +0.000 A 
ATOM      7  C   UNL     1       1.376  18.076  24.728  0.00  0.00    +0.000 A 
ATOM      8  C   UNL     1       1.075  19.384  24.734  0.00  0.00    +0.000 A 
ENDROOT
BRANCH   4   9
ATOM      9  C   UNL     1       4.687  16.382  21.393  0.00  0.00    +0.000 A 
ATOM     10  C   UNL     1       6.028  16.036  21.766  0.00  0.00    +0.000 A 
ATOM     11  C   UNL     1       6.846  15.361  20.821  0.00  0.00    +0.000 A 
ATOM     12  C   UNL     1       4.227  16.051  20.102  0.00  0.00    +0.000 A 
ATOM     13  C   UNL     1       6.624  16.316  23.026  0.00  0.00    +0.000 A 
ATOM     14  C   UNL     1       6.337  15.031  19.558  0.00  0.00    +0.000 A 
ATOM     15  C   UNL     1       5.037  15.368  19.202  0.00  0.00    +0.000 A 
ATOM     16  C   UNL     1       8.178  15.033  21.128  0.00  0.00    +0.000 A 
ATOM     17  C   UNL     1       7.951  15.992  23.316  0.00  0.00    +0.000 A 
ATOM     18  C   UNL     1       8.730  15.353  22.365  0.00  0.00    +0.000 A 
ENDBRANCH   4   9
BRANCH   5  20
ATOM     19  N   UNL     1       1.670  14.561  23.656  0.00  0.00    +0.000 NA
ATOM     20  C   UNL     1       2.754  15.286  23.746  0.00  0.00    +0.000 C 
BRANCH  19  21
ATOM     21  O   UNL     1       0.706  15.185  22.856  0.00  0.00    +0.000 OA
BRANCH  21  22
ATOM     22  C   UNL     1       0.587  14.519  21.601  0.00  0.00    +0.000 C 
BRANCH  22  25
ATOM     23 CL   UNL     1      -3.345  15.736  18.390  0.00  0.00    +0.000 Cl
ATOM     24 CL   UNL     1      -1.706  18.436  17.609  0.00  0.00    +0.000 Cl
ATOM     25  C   UNL     1      -0.049  15.495  20.642  0.00  0.00    +0.000 A 
ATOM     26  C   UNL     1      -1.287  15.236  20.037  0.00  0.00    +0.000 A 
ATOM     27  C   UNL     1       0.626  16.684  20.321  0.00  0.00    +0.000 A 
ATOM     28  C   UNL     1      -1.824  16.135  19.106  0.00  0.00    +0.000 A 
ATOM     29  C   UNL     1       0.091  17.581  19.399  0.00  0.00    +0.000 A 
ATOM     30  C   UNL     1      -1.128  17.304  18.778  0.00  0.00    +0.000 A 
ENDBRANCH  22  25
ENDBRANCH  21  22
ENDBRANCH  19  21
ENDBRANCH   5  20
TORSDOF 5
ENDMDL
MODEL 5
REMARK VINA RESULT:      -6.5     29.323     31.067
REMARK  Name = 154040927
REMARK  5 active torsions:
REMARK  status: ('A' for Active; 'I' for Inactive)
REMARK    1  A    between atoms: O_4  and  N_7
REMARK    2  A    between atoms: O_4  and  C_24
REMARK    3  A    between atoms: C_8  and  C_9
REMARK    4  A    between atoms: C_10  and  C_20
REMARK    5  A    between atoms: C_24  and  C_25
REMARK                            x       y       z     vdW  Elec       q    Type
REMARK                         _______ _______ _______ _____ _____    ______ ____
ROOT
ATOM      1  S   UNL     1       2.135  21.186  23.324  0.00  0.00    +0.000 S 
ATOM      2  N   UNL     1       2.386  18.738  24.072  0.00  0.00    +0.000 N 
ATOM      3  N   UNL     1       4.031  19.236  22.656  0.00  0.00    +0.000 NA
ATOM      4  C   UNL     1       4.147  17.917  23.074  0.00  0.00    +0.000 A 
ATOM      5  C   UNL     1       3.106  17.571  23.953  0.00  0.00    +0.000 A 
ATOM      6  C   UNL     1       2.976  19.668  23.276  0.00  0.00    +0.000 A 
ATOM      7  C   UNL     1       1.277  19.196  24.759  0.00  0.00    +0.000 A 
ATOM      8  C   UNL     1       0.979  20.468  24.450  0.00  0.00    +0.000 A 
ENDROOT
BRANCH   4   9
ATOM      9  C   UNL     1       5.205  17.039  22.550  0.00  0.00    +0.000 A 
ATOM     10  C   UNL     1       5.139  16.453  21.244  0.00  0.00    +0.000 A 
ATOM     11  C   UNL     1       6.169  15.560  20.844  0.00  0.00    +0.000 A 
ATOM     12  C   UNL     1       6.281  16.707  23.398  0.00  0.00    +0.000 A 
ATOM     13  C   UNL     1       4.110  16.691  20.292  0.00  0.00    +0.000 A 
ATOM     14  C   UNL     1       7.232  15.278  21.713  0.00  0.00    +0.000 A 
ATOM     15  C   UNL     1       7.291  15.850  22.978  0.00  0.00    +0.000 A 
ATOM     16  C   UNL     1       6.129  14.932  19.587  0.00  0.00    +0.000 A 
ATOM     17  C   UNL     1       4.077  16.055  19.048  0.00  0.00    +0.000 A 
ATOM     18  C   UNL     1       5.085  15.172  18.697  0.00  0.00    +0.000 A 
ENDBRANCH   4   9
BRANCH   5  20
ATOM     19  N   UNL     1       2.216  15.286  24.150  0.00  0.00    +0.000 NA
ATOM     20  C   UNL     1       2.833  16.332  24.636  0.00  0.00    +0.000 C 
BRANCH  19  21
ATOM     21  O   UNL     1       1.988  15.423  22.776  0.00  0.00    +0.000 OA
BRANCH  21  22
ATOM     22  C   UNL     1       0.896  14.604  22.363  0.00  0.00    +0.000 C 
BRANCH  22  25
ATOM     23 CL   UNL     1      -1.666  19.147  22.143  0.00  0.00    +0.000 Cl
ATOM     24 CL   UNL     1      -3.244  17.988  19.546  0.00  0.00    +0.000 Cl
ATOM     25  C   UNL     1      -0.088  15.504  21.659  0.00  0.00    +0.000 A 
ATOM     26  C   UNL     1      -0.383  16.791  22.132  0.00  0.00    +0.000 A 
ATOM     27  C   UNL     1      -0.752  15.035  20.514  0.00  0.00    +0.000 A 
ATOM     28  C   UNL     1      -1.345  17.580  21.489  0.00  0.00    +0.000 A 
ATOM     29  C   UNL     1      -1.707  15.821  19.870  0.00  0.00    +0.000 A 
ATOM     30  C   UNL     1      -2.016  17.090  20.363  0.00  0.00    +0.000 A 
ENDBRANCH  22  25
ENDBRANCH  21  22
ENDBRANCH  19  21
ENDBRANCH   5  20
TORSDOF 5
ENDMDL
MODEL 6
REMARK VINA RESULT:      -6.3      3.894      7.242
REMARK  Name = 154040927
REMARK  5 active torsions:
REMARK  status: ('A' for Active; 'I' for Inactive)
REMARK    1  A    between atoms: O_4  and  N_7
REMARK    2  A    between atoms: O_4  and  C_24
REMARK    3  A    between atoms: C_8  and  C_9
REMARK    4  A    between atoms: C_10  and  C_20
REMARK    5  A    between atoms: C_24  and  C_25
REMARK                            x       y       z     vdW  Elec       q    Type
REMARK                         _______ _______ _______ _____ _____    ______ ____
ROOT
ATOM      1  S   UNL     1      -8.499 -12.555   8.895  0.00  0.00    +0.000 S 
ATOM      2  N   UNL     1      -7.724 -10.734  10.538  0.00  0.00    +0.000 N 
ATOM      3  N   UNL     1      -5.944 -11.848   9.799  0.00  0.00    +0.000 NA
ATOM      4  C   UNL     1      -5.549 -10.858  10.688  0.00  0.00    +0.000 A 
ATOM      5  C   UNL     1      -6.658 -10.154  11.187  0.00  0.00    +0.000 A 
ATOM      6  C   UNL     1      -7.235 -11.727   9.750  0.00  0.00    +0.000 A 
ATOM      7  C   UNL     1      -9.096 -10.578  10.473  0.00  0.00    +0.000 A 
ATOM      8  C   UNL     1      -9.673 -11.489   9.675  0.00  0.00    +0.000 A 
ENDROOT
BRANCH   4   9
ATOM      9  C   UNL     1      -4.138 -10.691  11.068  0.00  0.00    +0.000 A 
ATOM     10  C   UNL     1      -3.510 -11.507  12.066  0.00  0.00    +0.000 A 
ATOM     11  C   UNL     1      -2.162 -11.232  12.424  0.00  0.00    +0.000 A 
ATOM     12  C   UNL     1      -3.405  -9.639  10.482  0.00  0.00    +0.000 A 
ATOM     13  C   UNL     1      -4.131 -12.592  12.744  0.00  0.00    +0.000 A 
ATOM     14  C   UNL     1      -1.467 -10.190  11.795  0.00  0.00    +0.000 A 
ATOM     15  C   UNL     1      -2.080  -9.403  10.829  0.00  0.00    +0.000 A 
ATOM     16  C   UNL     1      -1.516 -11.981  13.422  0.00  0.00    +0.000 A 
ATOM     17  C   UNL     1      -3.480 -13.324  13.740  0.00  0.00    +0.000 A 
ATOM     18  C   UNL     1      -2.173 -13.016  14.082  0.00  0.00    +0.000 A 
ENDBRANCH   4   9
BRANCH   5  20
ATOM     19  N   UNL     1      -6.821  -9.123  13.414  0.00  0.00    +0.000 NA
ATOM     20  C   UNL     1      -6.725  -9.051  12.113  0.00  0.00    +0.000 C 
BRANCH  19  21
ATOM     21  O   UNL     1      -6.667 -10.439  13.864  0.00  0.00    +0.000 OA
BRANCH  21  22
ATOM     22  C   UNL     1      -7.358 -10.635  15.096  0.00  0.00    +0.000 C 
BRANCH  22  25
ATOM     23 CL   UNL     1      -2.351 -10.611  16.571  0.00  0.00    +0.000 Cl
ATOM     24 CL   UNL     1      -3.285 -12.071  19.324  0.00  0.00    +0.000 Cl
ATOM     25  C   UNL     1      -6.315 -10.924  16.147  0.00  0.00    +0.000 A 
ATOM     26  C   UNL     1      -4.958 -10.641  15.938  0.00  0.00    +0.000 A 
ATOM     27  C   UNL     1      -6.704 -11.520  17.357  0.00  0.00    +0.000 A 
ATOM     28  C   UNL     1      -4.006 -10.975  16.910  0.00  0.00    +0.000 A 
ATOM     29  C   UNL     1      -5.759 -11.850  18.326  0.00  0.00    +0.000 A 
ATOM     30  C   UNL     1      -4.406 -11.591  18.101  0.00  0.00    +0.000 A 
ENDBRANCH  22  25
ENDBRANCH  21  22
ENDBRANCH  19  21
ENDBRANCH   5  20
TORSDOF 5
ENDMDL
MODEL 7
REMARK VINA RESULT:      -6.3     20.515     22.859
REMARK  Name = 154040927
REMARK  5 active torsions:
REMARK  status: ('A' for Active; 'I' for Inactive)
REMARK    1  A    between atoms: O_4  and  N_7
REMARK    2  A    between atoms: O_4  and  C_24
REMARK    3  A    between atoms: C_8  and  C_9
REMARK    4  A    between atoms: C_10  and  C_20
REMARK    5  A    between atoms: C_24  and  C_25
REMARK                            x       y       z     vdW  Elec       q    Type
REMARK                         _______ _______ _______ _____ _____    ______ ____
ROOT
ATOM      1  S   UNL     1      11.080  -9.649  34.836  0.00  0.00    +0.000 S 
ATOM      2  N   UNL     1       9.022  -8.293  34.101  0.00  0.00    +0.000 N 
ATOM      3  N   UNL     1       8.351 -10.002  35.360  0.00  0.00    +0.000 NA
ATOM      4  C   UNL     1       7.255  -9.254  34.952  0.00  0.00    +0.000 A 
ATOM      5  C   UNL     1       7.651  -8.180  34.136  0.00  0.00    +0.000 A 
ATOM      6  C   UNL     1       9.364  -9.389  34.829  0.00  0.00    +0.000 A 
ATOM      7  C   UNL     1      10.096  -7.615  33.553  0.00  0.00    +0.000 A 
ATOM      8  C   UNL     1      11.264  -8.221  33.813  0.00  0.00    +0.000 A 
ENDROOT
BRANCH   4   9
ATOM      9  C   UNL     1       5.884  -9.653  35.303  0.00  0.00    +0.000 A 
ATOM     10  C   UNL     1       5.235 -10.782  34.703  0.00  0.00    +0.000 A 
ATOM     11  C   UNL     1       3.883 -11.055  35.047  0.00  0.00    +0.000 A 
ATOM     12  C   UNL     1       5.161  -8.846  36.205  0.00  0.00    +0.000 A 
ATOM     13  C   UNL     1       5.839 -11.673  33.773  0.00  0.00    +0.000 A 
ATOM     14  C   UNL     1       3.214 -10.238  35.968  0.00  0.00    +0.000 A 
ATOM     15  C   UNL     1       3.847  -9.145  36.546  0.00  0.00    +0.000 A 
ATOM     16  C   UNL     1       3.195 -12.129  34.458  0.00  0.00    +0.000 A 
ATOM     17  C   UNL     1       5.140 -12.733  33.189  0.00  0.00    +0.000 A 
ATOM     18  C   UNL     1       3.817 -12.959  33.529  0.00  0.00    +0.000 A 
ENDBRANCH   4   9
BRANCH   5  20
ATOM     19  N   UNL     1       6.159  -7.260  32.410  0.00  0.00    +0.000 NA
ATOM     20  C   UNL     1       6.867  -7.149  33.503  0.00  0.00    +0.000 C 
BRANCH  19  21
ATOM     21  O   UNL     1       6.086  -8.591  31.984  0.00  0.00    +0.000 OA
BRANCH  21  22
ATOM     22  C   UNL     1       6.781  -8.764  30.751  0.00  0.00    +0.000 C 
BRANCH  22  25
ATOM     23 CL   UNL     1       6.150 -13.730  29.270  0.00  0.00    +0.000 Cl
ATOM     24 CL   UNL     1       8.844 -14.442  30.948  0.00  0.00    +0.000 Cl
ATOM     25  C   UNL     1       7.290 -10.184  30.727  0.00  0.00    +0.000 A 
ATOM     26  C   UNL     1       6.599 -11.205  30.058  0.00  0.00    +0.000 A 
ATOM     27  C   UNL     1       8.472 -10.503  31.414  0.00  0.00    +0.000 A 
ATOM     28  C   UNL     1       7.067 -12.525  30.103  0.00  0.00    +0.000 A 
ATOM     29  C   UNL     1       8.941 -11.816  31.456  0.00  0.00    +0.000 A 
ATOM     30  C   UNL     1       8.233 -12.833  30.813  0.00  0.00    +0.000 A 
ENDBRANCH  22  25
ENDBRANCH  21  22
ENDBRANCH  19  21
ENDBRANCH   5  20
TORSDOF 5
ENDMDL
MODEL 8
REMARK VINA RESULT:      -6.2     24.342     26.729
REMARK  Name = 154040927
REMARK  5 active torsions:
REMARK  status: ('A' for Active; 'I' for Inactive)
REMARK    1  A    between atoms: O_4  and  N_7
REMARK    2  A    between atoms: O_4  and  C_24
REMARK    3  A    between atoms: C_8  and  C_9
REMARK    4  A    between atoms: C_10  and  C_20
REMARK    5  A    between atoms: C_24  and  C_25
REMARK                            x       y       z     vdW  Elec       q    Type
REMARK                         _______ _______ _______ _____ _____    ______ ____
ROOT
ATOM      1  S   UNL     1       9.822   8.051  -0.579  0.00  0.00    +0.000 S 
ATOM      2  N   UNL     1      10.221   5.894   0.763  0.00  0.00    +0.000 N 
ATOM      3  N   UNL     1       9.955   7.591   2.180  0.00  0.00    +0.000 NA
ATOM      4  C   UNL     1      10.171   6.414   2.884  0.00  0.00    +0.000 A 
ATOM      5  C   UNL     1      10.364   5.330   2.010  0.00  0.00    +0.000 A 
ATOM      6  C   UNL     1       9.995   7.223   0.936  0.00  0.00    +0.000 A 
ATOM      7  C   UNL     1      10.237   5.486  -0.558  0.00  0.00    +0.000 A 
ATOM      8  C   UNL     1      10.079   6.513  -1.408  0.00  0.00    +0.000 A 
ENDROOT
BRANCH   4   9
ATOM      9  C   UNL     1      10.257   6.406   4.352  0.00  0.00    +0.000 A 
ATOM     10  C   UNL     1      11.464   6.734   5.053  0.00  0.00    +0.000 A 
ATOM     11  C   UNL     1      11.479   6.632   6.470  0.00  0.00    +0.000 A 
ATOM     12  C   UNL     1       9.130   5.985   5.087  0.00  0.00    +0.000 A 
ATOM     13  C   UNL     1      12.674   7.162   4.441  0.00  0.00    +0.000 A 
ATOM     14  C   UNL     1      10.326   6.233   7.159  0.00  0.00    +0.000 A 
ATOM     15  C   UNL     1       9.159   5.916   6.475  0.00  0.00    +0.000 A 
ATOM     16  C   UNL     1      12.649   6.909   7.198  0.00  0.00    +0.000 A 
ATOM     17  C   UNL     1      13.832   7.427   5.175  0.00  0.00    +0.000 A 
ATOM     18  C   UNL     1      13.821   7.296   6.554  0.00  0.00    +0.000 A 
ENDBRANCH   4   9
BRANCH   5  20
ATOM     19  N   UNL     1      11.747   3.305   2.206  0.00  0.00    +0.000 NA
ATOM     20  C   UNL     1      10.606   3.937   2.289  0.00  0.00    +0.000 C 
BRANCH  19  21
ATOM     21  O   UNL     1      12.805   4.193   1.978  0.00  0.00    +0.000 OA
BRANCH  21  22
ATOM     22  C   UNL     1      13.843   3.558   1.236  0.00  0.00    +0.000 C 
BRANCH  22  25
ATOM     23 CL   UNL     1      14.304   6.777  -2.848  0.00  0.00    +0.000 Cl
ATOM     24 CL   UNL     1      12.520   4.661  -4.557  0.00  0.00    +0.000 Cl
ATOM     25  C   UNL     1      13.584   3.848  -0.222  0.00  0.00    +0.000 A 
ATOM     26  C   UNL     1      14.035   5.027  -0.832  0.00  0.00    +0.000 A 
ATOM     27  C   UNL     1      12.849   2.928  -0.986  0.00  0.00    +0.000 A 
ATOM     28  C   UNL     1      13.729   5.294  -2.172  0.00  0.00    +0.000 A 
ATOM     29  C   UNL     1      12.546   3.190  -2.321  0.00  0.00    +0.000 A 
ATOM     30  C   UNL     1      12.973   4.379  -2.915  0.00  0.00    +0.000 A 
ENDBRANCH  22  25
ENDBRANCH  21  22
ENDBRANCH  19  21
ENDBRANCH   5  20
TORSDOF 5
ENDMDL
MODEL 9
REMARK VINA RESULT:      -6.2     31.204     32.849
REMARK  Name = 154040927
REMARK  5 active torsions:
REMARK  status: ('A' for Active; 'I' for Inactive)
REMARK    1  A    between atoms: O_4  and  N_7
REMARK    2  A    between atoms: O_4  and  C_24
REMARK    3  A    between atoms: C_8  and  C_9
REMARK    4  A    between atoms: C_10  and  C_20
REMARK    5  A    between atoms: C_24  and  C_25
REMARK                            x       y       z     vdW  Elec       q    Type
REMARK                         _______ _______ _______ _____ _____    ______ ____
ROOT
ATOM      1  S   UNL     1      -8.283   8.949  37.027  0.00  0.00    +0.000 S 
ATOM      2  N   UNL     1      -6.501   9.301  38.849  0.00  0.00    +0.000 N 
ATOM      3  N   UNL     1      -5.485   8.883  36.912  0.00  0.00    +0.000 NA
ATOM      4  C   UNL     1      -4.541   9.078  37.911  0.00  0.00    +0.000 A 
ATOM      5  C   UNL     1      -5.159   9.322  39.150  0.00  0.00    +0.000 A 
ATOM      6  C   UNL     1      -6.621   9.027  37.523  0.00  0.00    +0.000 A 
ATOM      7  C   UNL     1      -7.705   9.484  39.504  0.00  0.00    +0.000 A 
ATOM      8  C   UNL     1      -8.758   9.295  38.693  0.00  0.00    +0.000 A 
ENDROOT
BRANCH   4   9
ATOM      9  C   UNL     1      -3.102   8.944  37.640  0.00  0.00    +0.000 A 
ATOM     10  C   UNL     1      -2.371   9.911  36.873  0.00  0.00    +0.000 A 
ATOM     11  C   UNL     1      -0.998   9.667  36.599  0.00  0.00    +0.000 A 
ATOM     12  C   UNL     1      -2.441   7.782  38.088  0.00  0.00    +0.000 A 
ATOM     13  C   UNL     1      -2.912  11.119  36.353  0.00  0.00    +0.000 A 
ATOM     14  C   UNL     1      -0.378   8.509  37.086  0.00  0.00    +0.000 A 
ATOM     15  C   UNL     1      -1.091   7.576  37.829  0.00  0.00    +0.000 A 
ATOM     16  C   UNL     1      -0.250  10.568  35.822  0.00  0.00    +0.000 A 
ATOM     17  C   UNL     1      -2.159  12.002  35.575  0.00  0.00    +0.000 A 
ATOM     18  C   UNL     1      -0.829  11.725  35.306  0.00  0.00    +0.000 A 
ENDBRANCH   4   9
BRANCH   5  20
ATOM     19  N   UNL     1      -4.310   8.714  41.377  0.00  0.00    +0.000 NA
ATOM     20  C   UNL     1      -4.583   9.588  40.445  0.00  0.00    +0.000 C 
BRANCH  19  21
ATOM     21  O   UNL     1      -4.473   7.404  40.912  0.00  0.00    +0.000 OA
BRANCH  21  22
ATOM     22  C   UNL     1      -4.411   6.475  41.990  0.00  0.00    +0.000 C 
BRANCH  22  25
ATOM     23 CL   UNL     1      -0.032   4.731  39.747  0.00  0.00    +0.000 Cl
ATOM     24 CL   UNL     1       1.277   4.563  42.720  0.00  0.00    +0.000 Cl
ATOM     25  C   UNL     1      -2.970   6.045  42.120  0.00  0.00    +0.000 A 
ATOM     26  C   UNL     1      -2.212   5.658  41.006  0.00  0.00    +0.000 A 
ATOM     27  C   UNL     1      -2.377   6.002  43.391  0.00  0.00    +0.000 A 
ATOM     28  C   UNL     1      -0.895   5.209  41.166  0.00  0.00    +0.000 A 
ATOM     29  C   UNL     1      -1.065   5.559  43.552  0.00  0.00    +0.000 A 
ATOM     30  C   UNL     1      -0.324   5.148  42.442  0.00  0.00    +0.000 A 
ENDBRANCH  22  25
ENDBRANCH  21  22
ENDBRANCH  19  21
ENDBRANCH   5  20
TORSDOF 5
ENDMDL
MODEL 10
REMARK VINA RESULT:      -6.1     21.743     23.863
REMARK  Name = 154040927
REMARK  5 active torsions:
REMARK  status: ('A' for Active; 'I' for Inactive)
REMARK    1  A    between atoms: O_4  and  N_7
REMARK    2  A    between atoms: O_4  and  C_24
REMARK    3  A    between atoms: C_8  and  C_9
REMARK    4  A    between atoms: C_10  and  C_20
REMARK    5  A    between atoms: C_24  and  C_25
REMARK                            x       y       z     vdW  Elec       q    Type
REMARK                         _______ _______ _______ _____ _____    ______ ____
ROOT
ATOM      1  S   UNL     1     -11.666  14.382  15.222  0.00  0.00    +0.000 S 
ATOM      2  N   UNL     1     -10.900  11.957  15.612  0.00  0.00    +0.000 N 
ATOM      3  N   UNL     1     -13.063  11.958  15.080  0.00  0.00    +0.000 NA
ATOM      4  C   UNL     1     -12.627  10.658  15.294  0.00  0.00    +0.000 A 
ATOM      5  C   UNL     1     -11.268  10.632  15.654  0.00  0.00    +0.000 A 
ATOM      6  C   UNL     1     -12.003  12.680  15.281  0.00  0.00    +0.000 A 
ATOM      7  C   UNL     1      -9.759  12.714  15.802  0.00  0.00    +0.000 A 
ATOM      8  C   UNL     1      -9.994  14.029  15.671  0.00  0.00    +0.000 A 
ENDROOT
BRANCH   4   9
ATOM      9  C   UNL     1     -13.554   9.518  15.217  0.00  0.00    +0.000 A 
ATOM     10  C   UNL     1     -14.315   9.070  16.346  0.00  0.00    +0.000 A 
ATOM     11  C   UNL     1     -15.133   7.917  16.203  0.00  0.00    +0.000 A 
ATOM     12  C   UNL     1     -13.633   8.799  14.007  0.00  0.00    +0.000 A 
ATOM     13  C   UNL     1     -14.323   9.691  17.626  0.00  0.00    +0.000 A 
ATOM     14  C   UNL     1     -15.198   7.249  14.973  0.00  0.00    +0.000 A 
ATOM     15  C   UNL     1     -14.459   7.689  13.882  0.00  0.00    +0.000 A 
ATOM     16  C   UNL     1     -15.870   7.419  17.292  0.00  0.00    +0.000 A 
ATOM     17  C   UNL     1     -15.054   9.181  18.702  0.00  0.00    +0.000 A 
ATOM     18  C   UNL     1     -15.825   8.042  18.536  0.00  0.00    +0.000 A 
ENDBRANCH   4   9
BRANCH   5  20
ATOM     19  N   UNL     1     -10.045   9.100  17.141  0.00  0.00    +0.000 NA
ATOM     20  C   UNL     1     -10.403   9.519  15.956  0.00  0.00    +0.000 C 
BRANCH  19  21
ATOM     21  O   UNL     1     -10.760   9.757  18.150  0.00  0.00    +0.000 OA
BRANCH  21  22
ATOM     22  C   UNL     1     -10.257   9.402  19.436  0.00  0.00    +0.000 C 
BRANCH  22  25
ATOM     23 CL   UNL     1     -14.331   9.753  22.681  0.00  0.00    +0.000 Cl
ATOM     24 CL   UNL     1     -14.572   6.512  22.528  0.00  0.00    +0.000 Cl
ATOM     25  C   UNL     1     -11.383   8.728  20.180  0.00  0.00    +0.000 A 
ATOM     26  C   UNL     1     -12.278   9.453  20.979  0.00  0.00    +0.000 A 
ATOM     27  C   UNL     1     -11.526   7.334  20.096  0.00  0.00    +0.000 A 
ATOM     28  C   UNL     1     -13.278   8.792  21.703  0.00  0.00    +0.000 A 
ATOM     29  C   UNL     1     -12.523   6.675  20.813  0.00  0.00    +0.000 A 
ATOM     30  C   UNL     1     -13.394   7.399  21.629  0.00  0.00    +0.000 A 
ENDBRANCH  22  25
ENDBRANCH  21  22
ENDBRANCH  19  21
ENDBRANCH   5  20
TORSDOF 5
ENDMDL
