MODEL 1
REMARK VINA RESULT:      -6.2      0.000      0.000
REMARK  Name = 154040918
REMARK  5 active torsions:
REMARK  status: ('A' for Active; 'I' for Inactive)
REMARK    1  A    between atoms: O_5  and  N_8
REMARK    2  A    between atoms: O_5  and  C_21
REMARK    3  A    between atoms: C_9  and  C_14
REMARK    4  A    between atoms: C_10  and  C_12
REMARK    5  A    between atoms: C_20  and  C_21
REMARK                            x       y       z     vdW  Elec       q    Type
REMARK                         _______ _______ _______ _____ _____    ______ ____
ROOT
ATOM      1  S   UNL     1       9.635  15.456  21.074  0.00  0.00    +0.000 S 
ATOM      2  N   UNL     1      10.488  13.488  22.492  0.00  0.00    +0.000 N 
ATOM      3  N   UNL     1      11.737  13.642  20.648  0.00  0.00    +0.000 NA
ATOM      4  C   UNL     1      11.393  12.457  22.599  0.00  0.00    +0.000 A 
ATOM      5  C   UNL     1      12.163  12.581  21.436  0.00  0.00    +0.000 A 
ATOM      6  C   UNL     1      10.726  14.121  21.310  0.00  0.00    +0.000 A 
ATOM      7  C   UNL     1       9.487  14.048  23.259  0.00  0.00    +0.000 A 
ATOM      8  C   UNL     1       8.907  15.096  22.646  0.00  0.00    +0.000 A 
ENDROOT
BRANCH   5  10
ATOM      9  F   UNL     1      16.467   9.286  20.058  0.00  0.00    +0.000 F 
ATOM     10  C   UNL     1      13.307  11.764  21.052  0.00  0.00    +0.000 A 
ATOM     11  C   UNL     1      14.090  11.165  22.053  0.00  0.00    +0.000 A 
ATOM     12  C   UNL     1      13.660  11.558  19.709  0.00  0.00    +0.000 A 
ATOM     13  C   UNL     1      15.160  10.330  21.721  0.00  0.00    +0.000 A 
ATOM     14  C   UNL     1      14.723  10.715  19.375  0.00  0.00    +0.000 A 
ATOM     15  C   UNL     1      15.456  10.103  20.384  0.00  0.00    +0.000 A 
ENDBRANCH   5  10
BRANCH   4  17
ATOM     16  N   UNL     1      11.076  10.343  23.806  0.00  0.00    +0.000 NA
ATOM     17  C   UNL     1      11.530  11.560  23.713  0.00  0.00    +0.000 C 
BRANCH  16  18
ATOM     18  O   UNL     1      10.543   9.896  22.592  0.00  0.00    +0.000 OA
BRANCH  18  19
ATOM     19  C   UNL     1      10.665   8.476  22.492  0.00  0.00    +0.000 C 
BRANCH  19  22
ATOM     20 CL   UNL     1      14.991   6.417  20.427  0.00  0.00    +0.000 Cl
ATOM     21 CL   UNL     1      13.954   7.460  17.525  0.00  0.00    +0.000 Cl
ATOM     22  C   UNL     1      11.498   8.174  21.274  0.00  0.00    +0.000 A 
ATOM     23  C   UNL     1      12.722   7.495  21.370  0.00  0.00    +0.000 A 
ATOM     24  C   UNL     1      11.056   8.599  20.012  0.00  0.00    +0.000 A 
ATOM     25  C   UNL     1      13.493   7.256  20.225  0.00  0.00    +0.000 A 
ATOM     26  C   UNL     1      11.822   8.358  18.872  0.00  0.00    +0.000 A 
ATOM     27  C   UNL     1      13.045   7.696  18.973  0.00  0.00    +0.000 A 
ENDBRANCH  19  22
ENDBRANCH  18  19
ENDBRANCH  16  18
ENDBRANCH   4  17
TORSDOF 5
ENDMDL
MODEL 2
REMARK VINA RESULT:      -5.3     27.991     29.859
REMARK  Name = 154040918
REMARK  5 active torsions:
REMARK  status: ('A' for Active; 'I' for Inactive)
REMARK    1  A    between atoms: O_5  and  N_8
REMARK    2  A    between atoms: O_5  and  C_21
REMARK    3  A    between atoms: C_9  and  C_14
REMARK    4  A    between atoms: C_10  and  C_12
REMARK    5  A    between atoms: C_20  and  C_21
REMARK                            x       y       z     vdW  Elec       q    Type
REMARK                         _______ _______ _______ _____ _____    ______ ____
ROOT
ATOM      1  S   UNL     1     -10.853  -8.375  17.334  0.00  0.00    +0.000 S 
ATOM      2  N   UNL     1      -9.576 -10.297  18.465  0.00  0.00    +0.000 N 
ATOM      3  N   UNL     1      -8.183  -9.213  17.098  0.00  0.00    +0.000 NA
ATOM      4  C   UNL     1      -8.381 -10.970  18.582  0.00  0.00    +0.000 A 
ATOM      5  C   UNL     1      -7.530 -10.267  17.721  0.00  0.00    +0.000 A 
ATOM      6  C   UNL     1      -9.398  -9.300  17.556  0.00  0.00    +0.000 A 
ATOM      7  C   UNL     1     -10.829 -10.339  19.041  0.00  0.00    +0.000 A 
ATOM      8  C   UNL     1     -11.648  -9.398  18.540  0.00  0.00    +0.000 A 
ENDROOT
BRANCH   5  10
ATOM      9  F   UNL     1      -2.064 -11.056  16.829  0.00  0.00    +0.000 F 
ATOM     10  C   UNL     1      -6.114 -10.526  17.486  0.00  0.00    +0.000 A 
ATOM     11  C   UNL     1      -5.494  -9.972  16.354  0.00  0.00    +0.000 A 
ATOM     12  C   UNL     1      -5.346 -11.317  18.354  0.00  0.00    +0.000 A 
ATOM     13  C   UNL     1      -4.127 -10.152  16.127  0.00  0.00    +0.000 A 
ATOM     14  C   UNL     1      -3.977 -11.490  18.135  0.00  0.00    +0.000 A 
ATOM     15  C   UNL     1      -3.380 -10.898  17.028  0.00  0.00    +0.000 A 
ENDBRANCH   5  10
BRANCH   4  17
ATOM     16  N   UNL     1      -8.360 -13.327  19.269  0.00  0.00    +0.000 NA
ATOM     17  C   UNL     1      -8.107 -12.066  19.470  0.00  0.00    +0.000 C 
BRANCH  16  18
ATOM     18  O   UNL     1      -8.810 -13.561  17.964  0.00  0.00    +0.000 OA
BRANCH  18  19
ATOM     19  C   UNL     1      -8.161 -14.711  17.418  0.00  0.00    +0.000 C 
BRANCH  19  22
ATOM     20 CL   UNL     1      -6.669 -11.885  13.295  0.00  0.00    +0.000 Cl
ATOM     21 CL   UNL     1      -3.642 -12.965  13.804  0.00  0.00    +0.000 Cl
ATOM     22  C   UNL     1      -7.057 -14.226  16.515  0.00  0.00    +0.000 A 
ATOM     23  C   UNL     1      -7.312 -13.359  15.442  0.00  0.00    +0.000 A 
ATOM     24  C   UNL     1      -5.742 -14.667  16.732  0.00  0.00    +0.000 A 
ATOM     25  C   UNL     1      -6.272 -12.950  14.597  0.00  0.00    +0.000 A 
ATOM     26  C   UNL     1      -4.707 -14.257  15.894  0.00  0.00    +0.000 A 
ATOM     27  C   UNL     1      -4.967 -13.407  14.819  0.00  0.00    +0.000 A 
ENDBRANCH  19  22
ENDBRANCH  18  19
ENDBRANCH  16  18
ENDBRANCH   4  17
TORSDOF 5
ENDMDL
MODEL 3
REMARK VINA RESULT:      -5.3     27.561     29.704
REMARK  Name = 154040918
REMARK  5 active torsions:
REMARK  status: ('A' for Active; 'I' for Inactive)
REMARK    1  A    between atoms: O_5  and  N_8
REMARK    2  A    between atoms: O_5  and  C_21
REMARK    3  A    between atoms: C_9  and  C_14
REMARK    4  A    between atoms: C_10  and  C_12
REMARK    5  A    between atoms: C_20  and  C_21
REMARK                            x       y       z     vdW  Elec       q    Type
REMARK                         _______ _______ _______ _____ _____    ______ ____
ROOT
ATOM      1  S   UNL     1      -8.332 -10.480  11.771  0.00  0.00    +0.000 S 
ATOM      2  N   UNL     1      -6.077  -9.738  10.784  0.00  0.00    +0.000 N 
ATOM      3  N   UNL     1      -6.987 -11.263   9.432  0.00  0.00    +0.000 NA
ATOM      4  C   UNL     1      -5.163  -9.890   9.767  0.00  0.00    +0.000 A 
ATOM      5  C   UNL     1      -5.761 -10.845   8.936  0.00  0.00    +0.000 A 
ATOM      6  C   UNL     1      -7.106 -10.596  10.542  0.00  0.00    +0.000 A 
ATOM      7  C   UNL     1      -6.235  -8.944  11.901  0.00  0.00    +0.000 A 
ATOM      8  C   UNL     1      -7.373  -9.221  12.561  0.00  0.00    +0.000 A 
ENDROOT
BRANCH   5  10
ATOM      9  F   UNL     1      -3.708 -12.610   4.041  0.00  0.00    +0.000 F 
ATOM     10  C   UNL     1      -5.241 -11.355   7.672  0.00  0.00    +0.000 A 
ATOM     11  C   UNL     1      -5.755 -10.851   6.466  0.00  0.00    +0.000 A 
ATOM     12  C   UNL     1      -4.244 -12.340   7.620  0.00  0.00    +0.000 A 
ATOM     13  C   UNL     1      -5.242 -11.275   5.237  0.00  0.00    +0.000 A 
ATOM     14  C   UNL     1      -3.722 -12.758   6.392  0.00  0.00    +0.000 A 
ATOM     15  C   UNL     1      -4.221 -12.215   5.214  0.00  0.00    +0.000 A 
ENDBRANCH   5  10
BRANCH   4  17
ATOM     16  N   UNL     1      -2.846  -9.266  10.286  0.00  0.00    +0.000 NA
ATOM     17  C   UNL     1      -3.946  -9.144   9.600  0.00  0.00    +0.000 C 
BRANCH  16  18
ATOM     18  O   UNL     1      -2.897 -10.363  11.153  0.00  0.00    +0.000 OA
BRANCH  18  19
ATOM     19  C   UNL     1      -1.840 -10.283  12.111  0.00  0.00    +0.000 C 
BRANCH  19  22
ATOM     20 CL   UNL     1      -5.993 -11.519  15.016  0.00  0.00    +0.000 Cl
ATOM     21 CL   UNL     1      -4.117 -11.129  17.645  0.00  0.00    +0.000 Cl
ATOM     22  C   UNL     1      -2.437 -10.536  13.472  0.00  0.00    +0.000 A 
ATOM     23  C   UNL     1      -3.784 -10.891  13.628  0.00  0.00    +0.000 A 
ATOM     24  C   UNL     1      -1.636 -10.391  14.615  0.00  0.00    +0.000 A 
ATOM     25  C   UNL     1      -4.322 -11.088  14.907  0.00  0.00    +0.000 A 
ATOM     26  C   UNL     1      -2.171 -10.589  15.887  0.00  0.00    +0.000 A 
ATOM     27  C   UNL     1      -3.515 -10.928  16.039  0.00  0.00    +0.000 A 
ENDBRANCH  19  22
ENDBRANCH  18  19
ENDBRANCH  16  18
ENDBRANCH   4  17
TORSDOF 5
ENDMDL
MODEL 4
REMARK VINA RESULT:      -5.1      8.874     11.639
REMARK  Name = 154040918
REMARK  5 active torsions:
REMARK  status: ('A' for Active; 'I' for Inactive)
REMARK    1  A    between atoms: O_5  and  N_8
REMARK    2  A    between atoms: O_5  and  C_21
REMARK    3  A    between atoms: C_9  and  C_14
REMARK    4  A    between atoms: C_10  and  C_12
REMARK    5  A    between atoms: C_20  and  C_21
REMARK                            x       y       z     vdW  Elec       q    Type
REMARK                         _______ _______ _______ _____ _____    ______ ____
ROOT
ATOM      1  S   UNL     1       1.689  19.772  20.444  0.00  0.00    +0.000 S 
ATOM      2  N   UNL     1       2.138  18.326  22.522  0.00  0.00    +0.000 N 
ATOM      3  N   UNL     1       4.007  18.440  21.307  0.00  0.00    +0.000 NA
ATOM      4  C   UNL     1       3.049  17.563  23.215  0.00  0.00    +0.000 A 
ATOM      5  C   UNL     1       4.209  17.658  22.435  0.00  0.00    +0.000 A 
ATOM      6  C   UNL     1       2.756  18.783  21.398  0.00  0.00    +0.000 A 
ATOM      7  C   UNL     1       0.841  18.766  22.690  0.00  0.00    +0.000 A 
ATOM      8  C   UNL     1       0.430  19.531  21.664  0.00  0.00    +0.000 A 
ENDROOT
BRANCH   5  10
ATOM      9  F   UNL     1       9.240  15.392  23.351  0.00  0.00    +0.000 F 
ATOM     10  C   UNL     1       5.511  17.069  22.726  0.00  0.00    +0.000 A 
ATOM     11  C   UNL     1       5.813  15.791  22.229  0.00  0.00    +0.000 A 
ATOM     12  C   UNL     1       6.476  17.738  23.495  0.00  0.00    +0.000 A 
ATOM     13  C   UNL     1       7.071  15.220  22.441  0.00  0.00    +0.000 A 
ATOM     14  C   UNL     1       7.737  17.173  23.699  0.00  0.00    +0.000 A 
ATOM     15  C   UNL     1       8.024  15.924  23.163  0.00  0.00    +0.000 A 
ENDBRANCH   5  10
BRANCH   4  17
ATOM     16  N   UNL     1       2.356  15.735  24.699  0.00  0.00    +0.000 NA
ATOM     17  C   UNL     1       2.833  16.927  24.485  0.00  0.00    +0.000 C 
BRANCH  16  18
ATOM     18  O   UNL     1       2.205  15.017  23.507  0.00  0.00    +0.000 OA
BRANCH  18  19
ATOM     19  C   UNL     1       0.826  14.716  23.283  0.00  0.00    +0.000 C 
BRANCH  19  22
ATOM     20 CL   UNL     1       2.328  15.801  18.407  0.00  0.00    +0.000 Cl
ATOM     21 CL   UNL     1      -0.717  16.782  17.817  0.00  0.00    +0.000 Cl
ATOM     22  C   UNL     1       0.474  15.193  21.898  0.00  0.00    +0.000 A 
ATOM     23  C   UNL     1       1.434  15.263  20.878  0.00  0.00    +0.000 A 
ATOM     24  C   UNL     1      -0.840  15.601  21.621  0.00  0.00    +0.000 A 
ATOM     25  C   UNL     1       1.087  15.742  19.608  0.00  0.00    +0.000 A 
ATOM     26  C   UNL     1      -1.186  16.075  20.357  0.00  0.00    +0.000 A 
ATOM     27  C   UNL     1      -0.225  16.157  19.350  0.00  0.00    +0.000 A 
ENDBRANCH  19  22
ENDBRANCH  18  19
ENDBRANCH  16  18
ENDBRANCH   4  17
TORSDOF 5
ENDMDL
MODEL 5
REMARK VINA RESULT:      -5.1      2.309      3.869
REMARK  Name = 154040918
REMARK  5 active torsions:
REMARK  status: ('A' for Active; 'I' for Inactive)
REMARK    1  A    between atoms: O_5  and  N_8
REMARK    2  A    between atoms: O_5  and  C_21
REMARK    3  A    between atoms: C_9  and  C_14
REMARK    4  A    between atoms: C_10  and  C_12
REMARK    5  A    between atoms: C_20  and  C_21
REMARK                            x       y       z     vdW  Elec       q    Type
REMARK                         _______ _______ _______ _____ _____    ______ ____
ROOT
ATOM      1  S   UNL     1      10.920  15.421  21.227  0.00  0.00    +0.000 S 
ATOM      2  N   UNL     1      11.044  13.670  23.105  0.00  0.00    +0.000 N 
ATOM      3  N   UNL     1      11.177  12.625  21.137  0.00  0.00    +0.000 NA
ATOM      4  C   UNL     1      11.145  12.337  23.426  0.00  0.00    +0.000 A 
ATOM      5  C   UNL     1      11.231  11.709  22.178  0.00  0.00    +0.000 A 
ATOM      6  C   UNL     1      11.037  13.766  21.747  0.00  0.00    +0.000 A 
ATOM      7  C   UNL     1      11.003  14.878  23.771  0.00  0.00    +0.000 A 
ATOM      8  C   UNL     1      10.914  15.919  22.924  0.00  0.00    +0.000 A 
ENDROOT
BRANCH   5  10
ATOM      9  F   UNL     1      12.063   6.251  21.277  0.00  0.00    +0.000 F 
ATOM     10  C   UNL     1      11.398  10.283  21.923  0.00  0.00    +0.000 A 
ATOM     11  C   UNL     1      12.415   9.856  21.053  0.00  0.00    +0.000 A 
ATOM     12  C   UNL     1      10.571   9.318  22.517  0.00  0.00    +0.000 A 
ATOM     13  C   UNL     1      12.639   8.495  20.830  0.00  0.00    +0.000 A 
ATOM     14  C   UNL     1      10.801   7.956  22.303  0.00  0.00    +0.000 A 
ATOM     15  C   UNL     1      11.838   7.559  21.468  0.00  0.00    +0.000 A 
ENDBRANCH   5  10
BRANCH   4  17
ATOM     16  N   UNL     1      12.292  11.726  25.509  0.00  0.00    +0.000 NA
ATOM     17  C   UNL     1      11.235  11.787  24.751  0.00  0.00    +0.000 C 
BRANCH  16  18
ATOM     18  O   UNL     1      13.368  12.425  24.952  0.00  0.00    +0.000 OA
BRANCH  18  19
ATOM     19  C   UNL     1      14.484  11.550  24.771  0.00  0.00    +0.000 C 
BRANCH  19  22
ATOM     20 CL   UNL     1      16.638   9.259  20.609  0.00  0.00    +0.000 Cl
ATOM     21 CL   UNL     1      16.168  12.040  18.987  0.00  0.00    +0.000 Cl
ATOM     22  C   UNL     1      14.888  11.621  23.321  0.00  0.00    +0.000 A 
ATOM     23  C   UNL     1      15.495  10.536  22.673  0.00  0.00    +0.000 A 
ATOM     24  C   UNL     1      14.674  12.807  22.601  0.00  0.00    +0.000 A 
ATOM     25  C   UNL     1      15.891  10.639  21.333  0.00  0.00    +0.000 A 
ATOM     26  C   UNL     1      15.065  12.909  21.267  0.00  0.00    +0.000 A 
ATOM     27  C   UNL     1      15.683  11.832  20.631  0.00  0.00    +0.000 A 
ENDBRANCH  19  22
ENDBRANCH  18  19
ENDBRANCH  16  18
ENDBRANCH   4  17
TORSDOF 5
ENDMDL
MODEL 6
REMARK VINA RESULT:      -5.0     27.408     29.289
REMARK  Name = 154040918
REMARK  5 active torsions:
REMARK  status: ('A' for Active; 'I' for Inactive)
REMARK    1  A    between atoms: O_5  and  N_8
REMARK    2  A    between atoms: O_5  and  C_21
REMARK    3  A    between atoms: C_9  and  C_14
REMARK    4  A    between atoms: C_10  and  C_12
REMARK    5  A    between atoms: C_20  and  C_21
REMARK                            x       y       z     vdW  Elec       q    Type
REMARK                         _______ _______ _______ _____ _____    ______ ____
ROOT
ATOM      1  S   UNL     1      -1.397 -10.477  15.317  0.00  0.00    +0.000 S 
ATOM      2  N   UNL     1      -3.746 -11.385  14.802  0.00  0.00    +0.000 N 
ATOM      3  N   UNL     1      -3.696 -10.676  16.918  0.00  0.00    +0.000 NA
ATOM      4  C   UNL     1      -5.008 -11.642  15.284  0.00  0.00    +0.000 A 
ATOM      5  C   UNL     1      -4.949 -11.184  16.606  0.00  0.00    +0.000 A 
ATOM      6  C   UNL     1      -3.019 -10.849  15.821  0.00  0.00    +0.000 A 
ATOM      7  C   UNL     1      -3.076 -11.479  13.599  0.00  0.00    +0.000 A 
ATOM      8  C   UNL     1      -1.802 -11.058  13.696  0.00  0.00    +0.000 A 
ENDROOT
BRANCH   5  10
ATOM      9  F   UNL     1      -9.250 -11.164  20.182  0.00  0.00    +0.000 F 
ATOM     10  C   UNL     1      -6.036 -11.171  17.578  0.00  0.00    +0.000 A 
ATOM     11  C   UNL     1      -7.043 -10.198  17.470  0.00  0.00    +0.000 A 
ATOM     12  C   UNL     1      -6.108 -12.100  18.628  0.00  0.00    +0.000 A 
ATOM     13  C   UNL     1      -8.128 -10.191  18.350  0.00  0.00    +0.000 A 
ATOM     14  C   UNL     1      -7.197 -12.101  19.502  0.00  0.00    +0.000 A 
ATOM     15  C   UNL     1      -8.201 -11.151  19.349  0.00  0.00    +0.000 A 
ENDBRANCH   5  10
BRANCH   4  17
ATOM     16  N   UNL     1      -7.037 -11.489  13.910  0.00  0.00    +0.000 NA
ATOM     17  C   UNL     1      -6.114 -12.166  14.530  0.00  0.00    +0.000 C 
BRANCH  16  18
ATOM     18  O   UNL     1      -6.759 -10.118  13.908  0.00  0.00    +0.000 OA
BRANCH  18  19
ATOM     19  C   UNL     1      -7.595  -9.446  12.963  0.00  0.00    +0.000 C 
BRANCH  19  22
ATOM     20 CL   UNL     1      -3.295  -9.123  10.028  0.00  0.00    +0.000 Cl
ATOM     21 CL   UNL     1      -5.152  -9.821   7.449  0.00  0.00    +0.000 Cl
ATOM     22  C   UNL     1      -6.942  -9.563  11.611  0.00  0.00    +0.000 A 
ATOM     23  C   UNL     1      -5.569  -9.337  11.435  0.00  0.00    +0.000 A 
ATOM     24  C   UNL     1      -7.725  -9.882  10.491  0.00  0.00    +0.000 A 
ATOM     25  C   UNL     1      -4.993  -9.420  10.161  0.00  0.00    +0.000 A 
ATOM     26  C   UNL     1      -7.151  -9.967   9.223  0.00  0.00    +0.000 A 
ATOM     27  C   UNL     1      -5.788  -9.727   9.051  0.00  0.00    +0.000 A 
ENDBRANCH  19  22
ENDBRANCH  18  19
ENDBRANCH  16  18
ENDBRANCH   4  17
TORSDOF 5
ENDMDL
MODEL 7
REMARK VINA RESULT:      -5.0     11.009     13.263
REMARK  Name = 154040918
REMARK  5 active torsions:
REMARK  status: ('A' for Active; 'I' for Inactive)
REMARK    1  A    between atoms: O_5  and  N_8
REMARK    2  A    between atoms: O_5  and  C_21
REMARK    3  A    between atoms: C_9  and  C_14
REMARK    4  A    between atoms: C_10  and  C_12
REMARK    5  A    between atoms: C_20  and  C_21
REMARK                            x       y       z     vdW  Elec       q    Type
REMARK                         _______ _______ _______ _____ _____    ______ ____
ROOT
ATOM      1  S   UNL     1      23.386   5.331  25.852  0.00  0.00    +0.000 S 
ATOM      2  N   UNL     1      23.587   5.434  23.291  0.00  0.00    +0.000 N 
ATOM      3  N   UNL     1      21.437   5.645  23.854  0.00  0.00    +0.000 NA
ATOM      4  C   UNL     1      22.924   5.550  22.092  0.00  0.00    +0.000 A 
ATOM      5  C   UNL     1      21.584   5.686  22.475  0.00  0.00    +0.000 A 
ATOM      6  C   UNL     1      22.652   5.465  24.281  0.00  0.00    +0.000 A 
ATOM      7  C   UNL     1      24.892   5.350  23.730  0.00  0.00    +0.000 A 
ATOM      8  C   UNL     1      24.971   5.265  25.070  0.00  0.00    +0.000 A 
ENDROOT
BRANCH   5  10
ATOM      9  F   UNL     1      17.117   6.278  19.161  0.00  0.00    +0.000 F 
ATOM     10  C   UNL     1      20.438   5.888  21.597  0.00  0.00    +0.000 A 
ATOM     11  C   UNL     1      20.213   4.987  20.543  0.00  0.00    +0.000 A 
ATOM     12  C   UNL     1      19.549   6.961  21.765  0.00  0.00    +0.000 A 
ATOM     13  C   UNL     1      19.094   5.118  19.716  0.00  0.00    +0.000 A 
ATOM     14  C   UNL     1      18.424   7.088  20.946  0.00  0.00    +0.000 A 
ATOM     15  C   UNL     1      18.204   6.159  19.936  0.00  0.00    +0.000 A 
ENDBRANCH   5  10
BRANCH   4  17
ATOM     16  N   UNL     1      23.873   4.611  20.032  0.00  0.00    +0.000 NA
ATOM     17  C   UNL     1      23.529   5.612  20.790  0.00  0.00    +0.000 C 
BRANCH  16  18
ATOM     18  O   UNL     1      23.434   3.391  20.557  0.00  0.00    +0.000 OA
BRANCH  18  19
ATOM     19  C   UNL     1      24.478   2.418  20.484  0.00  0.00    +0.000 C 
BRANCH  19  22
ATOM     20 CL   UNL     1      22.494   1.690  25.253  0.00  0.00    +0.000 Cl
ATOM     21 CL   UNL     1      24.798  -0.556  25.735  0.00  0.00    +0.000 Cl
ATOM     22  C   UNL     1      24.503   1.676  21.795  0.00  0.00    +0.000 A 
ATOM     23  C   UNL     1      23.588   1.960  22.819  0.00  0.00    +0.000 A 
ATOM     24  C   UNL     1      25.478   0.690  22.012  0.00  0.00    +0.000 A 
ATOM     25  C   UNL     1      23.655   1.278  24.040  0.00  0.00    +0.000 A 
ATOM     26  C   UNL     1      25.542   0.009  23.226  0.00  0.00    +0.000 A 
ATOM     27  C   UNL     1      24.640   0.305  24.247  0.00  0.00    +0.000 A 
ENDBRANCH  19  22
ENDBRANCH  18  19
ENDBRANCH  16  18
ENDBRANCH   4  17
TORSDOF 5
ENDMDL
MODEL 8
REMARK VINA RESULT:      -4.9     24.252     26.259
REMARK  Name = 154040918
REMARK  5 active torsions:
REMARK  status: ('A' for Active; 'I' for Inactive)
REMARK    1  A    between atoms: O_5  and  N_8
REMARK    2  A    between atoms: O_5  and  C_21
REMARK    3  A    between atoms: C_9  and  C_14
REMARK    4  A    between atoms: C_10  and  C_12
REMARK    5  A    between atoms: C_20  and  C_21
REMARK                            x       y       z     vdW  Elec       q    Type
REMARK                         _______ _______ _______ _____ _____    ______ ____
ROOT
ATOM      1  S   UNL     1     -18.189   9.757  20.304  0.00  0.00    +0.000 S 
ATOM      2  N   UNL     1     -16.458   8.219  21.422  0.00  0.00    +0.000 N 
ATOM      3  N   UNL     1     -16.081  10.321  22.072  0.00  0.00    +0.000 NA
ATOM      4  C   UNL     1     -15.367   8.134  22.255  0.00  0.00    +0.000 A 
ATOM      5  C   UNL     1     -15.157   9.461  22.649  0.00  0.00    +0.000 A 
ATOM      6  C   UNL     1     -16.806   9.533  21.334  0.00  0.00    +0.000 A 
ATOM      7  C   UNL     1     -17.282   7.355  20.729  0.00  0.00    +0.000 A 
ATOM      8  C   UNL     1     -18.247   8.006  20.057  0.00  0.00    +0.000 A 
ENDROOT
BRANCH   5  10
ATOM      9  F   UNL     1     -11.280  11.518  26.117  0.00  0.00    +0.000 F 
ATOM     10  C   UNL     1     -14.144   9.949  23.577  0.00  0.00    +0.000 A 
ATOM     11  C   UNL     1     -12.932  10.448  23.069  0.00  0.00    +0.000 A 
ATOM     12  C   UNL     1     -14.335   9.933  24.967  0.00  0.00    +0.000 A 
ATOM     13  C   UNL     1     -11.962  10.975  23.925  0.00  0.00    +0.000 A 
ATOM     14  C   UNL     1     -13.370  10.469  25.823  0.00  0.00    +0.000 A 
ATOM     15  C   UNL     1     -12.197  10.993  25.293  0.00  0.00    +0.000 A 
ENDBRANCH   5  10
BRANCH   4  17
ATOM     16  N   UNL     1     -13.774   6.280  22.020  0.00  0.00    +0.000 NA
ATOM     17  C   UNL     1     -14.703   6.926  22.664  0.00  0.00    +0.000 C 
BRANCH  16  18
ATOM     18  O   UNL     1     -13.336   6.989  20.896  0.00  0.00    +0.000 OA
BRANCH  18  19
ATOM     19  C   UNL     1     -11.960   6.703  20.638  0.00  0.00    +0.000 C 
BRANCH  19  22
ATOM     20 CL   UNL     1     -10.402   8.074  15.852  0.00  0.00    +0.000 Cl
ATOM     21 CL   UNL     1      -9.750  11.030  17.044  0.00  0.00    +0.000 Cl
ATOM     22  C   UNL     1     -11.441   7.764  19.701  0.00  0.00    +0.000 A 
ATOM     23  C   UNL     1     -11.196   7.493  18.347  0.00  0.00    +0.000 A 
ATOM     24  C   UNL     1     -11.173   9.050  20.195  0.00  0.00    +0.000 A 
ATOM     25  C   UNL     1     -10.682   8.488  17.507  0.00  0.00    +0.000 A 
ATOM     26  C   UNL     1     -10.665  10.041  19.358  0.00  0.00    +0.000 A 
ATOM     27  C   UNL     1     -10.408   9.763  18.015  0.00  0.00    +0.000 A 
ENDBRANCH  19  22
ENDBRANCH  18  19
ENDBRANCH  16  18
ENDBRANCH   4  17
TORSDOF 5
ENDMDL
MODEL 9
REMARK VINA RESULT:      -4.8     27.690     29.738
REMARK  Name = 154040918
REMARK  5 active torsions:
REMARK  status: ('A' for Active; 'I' for Inactive)
REMARK    1  A    between atoms: O_5  and  N_8
REMARK    2  A    between atoms: O_5  and  C_21
REMARK    3  A    between atoms: C_9  and  C_14
REMARK    4  A    between atoms: C_10  and  C_12
REMARK    5  A    between atoms: C_20  and  C_21
REMARK                            x       y       z     vdW  Elec       q    Type
REMARK                         _______ _______ _______ _____ _____    ______ ____
ROOT
ATOM      1  S   UNL     1      -1.072 -10.197  15.670  0.00  0.00    +0.000 S 
ATOM      2  N   UNL     1      -3.439 -10.857  14.915  0.00  0.00    +0.000 N 
ATOM      3  N   UNL     1      -3.334 -10.975  17.141  0.00  0.00    +0.000 NA
ATOM      4  C   UNL     1      -4.691 -11.275  15.299  0.00  0.00    +0.000 A 
ATOM      5  C   UNL     1      -4.598 -11.335  16.695  0.00  0.00    +0.000 A 
ATOM      6  C   UNL     1      -2.684 -10.732  16.041  0.00  0.00    +0.000 A 
ATOM      7  C   UNL     1      -2.797 -10.501  13.746  0.00  0.00    +0.000 A 
ATOM      8  C   UNL     1      -1.519 -10.143  13.959  0.00  0.00    +0.000 A 
ENDROOT
BRANCH   5  10
ATOM      9  F   UNL     1      -8.785 -12.509  20.214  0.00  0.00    +0.000 F 
ATOM     10  C   UNL     1      -5.661 -11.683  17.630  0.00  0.00    +0.000 A 
ATOM     11  C   UNL     1      -6.045 -10.753  18.610  0.00  0.00    +0.000 A 
ATOM     12  C   UNL     1      -6.315 -12.924  17.588  0.00  0.00    +0.000 A 
ATOM     13  C   UNL     1      -7.097 -11.030  19.487  0.00  0.00    +0.000 A 
ATOM     14  C   UNL     1      -7.374 -13.199  18.456  0.00  0.00    +0.000 A 
ATOM     15  C   UNL     1      -7.760 -12.246  19.391  0.00  0.00    +0.000 A 
ENDBRANCH   5  10
BRANCH   4  17
ATOM     16  N   UNL     1      -5.959 -12.421  13.536  0.00  0.00    +0.000 NA
ATOM     17  C   UNL     1      -5.818 -11.488  14.433  0.00  0.00    +0.000 C 
BRANCH  16  18
ATOM     18  O   UNL     1      -4.918 -13.356  13.596  0.00  0.00    +0.000 OA
BRANCH  18  19
ATOM     19  C   UNL     1      -5.321 -14.494  14.360  0.00  0.00    +0.000 C 
BRANCH  19  22
ATOM     20 CL   UNL     1      -0.313 -15.619  13.433  0.00  0.00    +0.000 Cl
ATOM     21 CL   UNL     1      -0.452 -17.720  15.914  0.00  0.00    +0.000 Cl
ATOM     22  C   UNL     1      -4.076 -15.255  14.737  0.00  0.00    +0.000 A 
ATOM     23  C   UNL     1      -2.880 -15.108  14.019  0.00  0.00    +0.000 A 
ATOM     24  C   UNL     1      -4.114 -16.150  15.816  0.00  0.00    +0.000 A 
ATOM     25  C   UNL     1      -1.747 -15.853  14.370  0.00  0.00    +0.000 A 
ATOM     26  C   UNL     1      -2.985 -16.889  16.167  0.00  0.00    +0.000 A 
ATOM     27  C   UNL     1      -1.802 -16.752  15.442  0.00  0.00    +0.000 A 
ENDBRANCH  19  22
ENDBRANCH  18  19
ENDBRANCH  16  18
ENDBRANCH   4  17
TORSDOF 5
ENDMDL
MODEL 10
REMARK VINA RESULT:      -4.8     22.902     25.274
REMARK  Name = 154040918
REMARK  5 active torsions:
REMARK  status: ('A' for Active; 'I' for Inactive)
REMARK    1  A    between atoms: O_5  and  N_8
REMARK    2  A    between atoms: O_5  and  C_21
REMARK    3  A    between atoms: C_9  and  C_14
REMARK    4  A    between atoms: C_10  and  C_12
REMARK    5  A    between atoms: C_20  and  C_21
REMARK                            x       y       z     vdW  Elec       q    Type
REMARK                         _______ _______ _______ _____ _____    ______ ____
ROOT
ATOM      1  S   UNL     1       9.370  -6.616  36.202  0.00  0.00    +0.000 S 
ATOM      2  N   UNL     1       7.738  -7.018  34.256  0.00  0.00    +0.000 N 
ATOM      3  N   UNL     1       7.344  -8.530  35.851  0.00  0.00    +0.000 NA
ATOM      4  C   UNL     1       6.715  -7.789  33.757  0.00  0.00    +0.000 A 
ATOM      5  C   UNL     1       6.487  -8.722  34.777  0.00  0.00    +0.000 A 
ATOM      6  C   UNL     1       8.081  -7.527  35.472  0.00  0.00    +0.000 A 
ATOM      7  C   UNL     1       8.437  -5.888  33.884  0.00  0.00    +0.000 A 
ATOM      8  C   UNL     1       9.365  -5.544  34.794  0.00  0.00    +0.000 A 
ENDROOT
BRANCH   5  10
ATOM      9  F   UNL     1       2.464 -12.608  34.738  0.00  0.00    +0.000 F 
ATOM     10  C   UNL     1       5.469  -9.766  34.797  0.00  0.00    +0.000 A 
ATOM     11  C   UNL     1       4.199  -9.476  35.325  0.00  0.00    +0.000 A 
ATOM     12  C   UNL     1       5.717 -11.058  34.311  0.00  0.00    +0.000 A 
ATOM     13  C   UNL     1       3.183 -10.436  35.310  0.00  0.00    +0.000 A 
ATOM     14  C   UNL     1       4.699 -12.015  34.285  0.00  0.00    +0.000 A 
ATOM     15  C   UNL     1       3.440 -11.691  34.777  0.00  0.00    +0.000 A 
ENDBRANCH   5  10
BRANCH   4  17
ATOM     16  N   UNL     1       6.259  -8.141  31.371  0.00  0.00    +0.000 NA
ATOM     17  C   UNL     1       6.018  -7.577  32.519  0.00  0.00    +0.000 C 
BRANCH  16  18
ATOM     18  O   UNL     1       7.218  -9.154  31.485  0.00  0.00    +0.000 OA
BRANCH  18  19
ATOM     19  C   UNL     1       7.196  -9.988  30.324  0.00  0.00    +0.000 C 
BRANCH  19  22
ATOM     20 CL   UNL     1       4.595 -14.507  30.468  0.00  0.00    +0.000 Cl
ATOM     21 CL   UNL     1       6.952 -15.662  32.389  0.00  0.00    +0.000 Cl
ATOM     22  C   UNL     1       7.115 -11.418  30.791  0.00  0.00    +0.000 A 
ATOM     23  C   UNL     1       6.032 -12.242  30.452  0.00  0.00    +0.000 A 
ATOM     24  C   UNL     1       8.133 -11.938  31.604  0.00  0.00    +0.000 A 
ATOM     25  C   UNL     1       5.965 -13.558  30.927  0.00  0.00    +0.000 A 
ATOM     26  C   UNL     1       8.068 -13.249  32.075  0.00  0.00    +0.000 A 
ATOM     27  C   UNL     1       6.982 -14.060  31.747  0.00  0.00    +0.000 A 
ENDBRANCH  19  22
ENDBRANCH  18  19
ENDBRANCH  16  18
ENDBRANCH   4  17
TORSDOF 5
ENDMDL
