MODEL 1
REMARK VINA RESULT:      -4.8      0.000      0.000
REMARK  Name = 154040928
REMARK  6 active torsions:
REMARK  status: ('A' for Active; 'I' for Inactive)
REMARK    1  A    between atoms: O_4  and  N_7
REMARK    2  A    between atoms: O_4  and  C_17
REMARK    3  A    between atoms: C_8  and  C_13
REMARK    4  A    between atoms: C_9  and  C_10
REMARK    5  A    between atoms: C_10  and  C_14
REMARK    6  A    between atoms: C_16  and  C_17
REMARK                            x       y       z     vdW  Elec       q    Type
REMARK                         _______ _______ _______ _____ _____    ______ ____
ROOT
ATOM      1  N   UNL     1     -12.993   6.549 -33.512  0.00  0.00    +0.000 NA
ATOM      2  C   UNL     1     -12.955   5.465 -32.796  0.00  0.00    +0.000 C 
ENDROOT
BRANCH   2   6
ATOM      3  S   UNL     1     -15.468   1.176 -33.679  0.00  0.00    +0.000 S 
ATOM      4  N   UNL     1     -14.279   3.403 -33.211  0.00  0.00    +0.000 N 
ATOM      5  N   UNL     1     -12.780   1.933 -33.955  0.00  0.00    +0.000 NA
ATOM      6  C   UNL     1     -13.095   4.099 -33.225  0.00  0.00    +0.000 A 
ATOM      7  C   UNL     1     -12.164   3.142 -33.652  0.00  0.00    +0.000 A 
ATOM      8  C   UNL     1     -14.029   2.148 -33.671  0.00  0.00    +0.000 A 
ATOM      9  C   UNL     1     -15.590   3.647 -32.857  0.00  0.00    +0.000 A 
ATOM     10  C   UNL     1     -16.362   2.560 -33.037  0.00  0.00    +0.000 A 
BRANCH   7  11
ATOM     11  C   UNL     1     -10.675   3.252 -33.741  0.00  0.00    +0.000 C 
ATOM     12  C   UNL     1     -10.011   2.038 -34.373  0.00  0.00    +0.000 C 
ENDBRANCH   7  11
ENDBRANCH   2   6
BRANCH   1  13
ATOM     13  O   UNL     1     -13.311   6.293 -34.853  0.00  0.00    +0.000 OA
BRANCH  13  14
ATOM     14  C   UNL     1     -12.417   6.998 -35.715  0.00  0.00    +0.000 C 
BRANCH  14  17
ATOM     15 CL   UNL     1      -7.326   5.983 -35.682  0.00  0.00    +0.000 Cl
ATOM     16 CL   UNL     1      -7.921   3.467 -37.657  0.00  0.00    +0.000 Cl
ATOM     17  C   UNL     1     -11.298   6.080 -36.133  0.00  0.00    +0.000 A 
ATOM     18  C   UNL     1      -9.979   6.358 -35.745  0.00  0.00    +0.000 A 
ATOM     19  C   UNL     1     -11.547   4.988 -36.974  0.00  0.00    +0.000 A 
ATOM     20  C   UNL     1      -8.922   5.561 -36.194  0.00  0.00    +0.000 A 
ATOM     21  C   UNL     1     -10.492   4.188 -37.421  0.00  0.00    +0.000 A 
ATOM     22  C   UNL     1      -9.179   4.476 -37.038  0.00  0.00    +0.000 A 
ENDBRANCH  14  17
ENDBRANCH  13  14
ENDBRANCH   1  13
TORSDOF 5
ENDMDL
MODEL 2
REMARK VINA RESULT:      -4.3     22.776     24.411
REMARK  Name = 154040928
REMARK  6 active torsions:
REMARK  status: ('A' for Active; 'I' for Inactive)
REMARK    1  A    between atoms: O_4  and  N_7
REMARK    2  A    between atoms: O_4  and  C_17
REMARK    3  A    between atoms: C_8  and  C_13
REMARK    4  A    between atoms: C_9  and  C_10
REMARK    5  A    between atoms: C_10  and  C_14
REMARK    6  A    between atoms: C_16  and  C_17
REMARK                            x       y       z     vdW  Elec       q    Type
REMARK                         _______ _______ _______ _____ _____    ______ ____
ROOT
ATOM      1  N   UNL     1     -22.689   6.824 -58.232  0.00  0.00    +0.000 NA
ATOM      2  C   UNL     1     -21.596   7.222 -58.813  0.00  0.00    +0.000 C 
ENDROOT
BRANCH   2   6
ATOM      3  S   UNL     1     -19.183  11.615 -58.208  0.00  0.00    +0.000 S 
ATOM      4  N   UNL     1     -20.486   9.431 -58.563  0.00  0.00    +0.000 N 
ATOM      5  N   UNL     1     -18.709   9.006 -57.288  0.00  0.00    +0.000 NA
ATOM      6  C   UNL     1     -20.568   8.085 -58.299  0.00  0.00    +0.000 A 
ATOM      7  C   UNL     1     -19.418   7.837 -57.536  0.00  0.00    +0.000 A 
ATOM      8  C   UNL     1     -19.387   9.915 -57.924  0.00  0.00    +0.000 A 
ATOM      9  C   UNL     1     -21.201  10.364 -59.285  0.00  0.00    +0.000 A 
ATOM     10  C   UNL     1     -20.640  11.584 -59.211  0.00  0.00    +0.000 A 
BRANCH   7  11
ATOM     11  C   UNL     1     -18.872   6.530 -57.056  0.00  0.00    +0.000 C 
ATOM     12  C   UNL     1     -19.814   5.782 -56.126  0.00  0.00    +0.000 C 
ENDBRANCH   7  11
ENDBRANCH   2   6
BRANCH   1  13
ATOM     13  O   UNL     1     -22.878   7.427 -56.980  0.00  0.00    +0.000 OA
BRANCH  13  14
ATOM     14  C   UNL     1     -23.679   6.589 -56.145  0.00  0.00    +0.000 C 
BRANCH  14  17
ATOM     15 CL   UNL     1     -24.715   5.643 -51.147  0.00  0.00    +0.000 Cl
ATOM     16 CL   UNL     1     -22.453   7.850 -50.369  0.00  0.00    +0.000 Cl
ATOM     17  C   UNL     1     -23.330   6.841 -54.702  0.00  0.00    +0.000 A 
ATOM     18  C   UNL     1     -24.040   6.191 -53.682  0.00  0.00    +0.000 A 
ATOM     19  C   UNL     1     -22.350   7.781 -54.358  0.00  0.00    +0.000 A 
ATOM     20  C   UNL     1     -23.782   6.477 -52.339  0.00  0.00    +0.000 A 
ATOM     21  C   UNL     1     -22.087   8.067 -53.016  0.00  0.00    +0.000 A 
ATOM     22  C   UNL     1     -22.805   7.422 -52.005  0.00  0.00    +0.000 A 
ENDBRANCH  14  17
ENDBRANCH  13  14
ENDBRANCH   1  13
TORSDOF 5
ENDMDL
MODEL 3
REMARK VINA RESULT:      -4.2     24.126     25.936
REMARK  Name = 154040928
REMARK  6 active torsions:
REMARK  status: ('A' for Active; 'I' for Inactive)
REMARK    1  A    between atoms: O_4  and  N_7
REMARK    2  A    between atoms: O_4  and  C_17
REMARK    3  A    between atoms: C_8  and  C_13
REMARK    4  A    between atoms: C_9  and  C_10
REMARK    5  A    between atoms: C_10  and  C_14
REMARK    6  A    between atoms: C_16  and  C_17
REMARK                            x       y       z     vdW  Elec       q    Type
REMARK                         _______ _______ _______ _____ _____    ______ ____
ROOT
ATOM      1  N   UNL     1     -10.693  12.370 -60.794  0.00  0.00    +0.000 NA
ATOM      2  C   UNL     1     -10.608  11.534 -59.801  0.00  0.00    +0.000 C 
ENDROOT
BRANCH   2   6
ATOM      3  S   UNL     1     -11.486  12.363 -54.899  0.00  0.00    +0.000 S 
ATOM      4  N   UNL     1     -10.954  11.998 -57.385  0.00  0.00    +0.000 N 
ATOM      5  N   UNL     1     -12.962  11.137 -56.947  0.00  0.00    +0.000 NA
ATOM      6  C   UNL     1     -11.381  11.496 -58.590  0.00  0.00    +0.000 A 
ATOM      7  C   UNL     1     -12.622  10.922 -58.278  0.00  0.00    +0.000 A 
ATOM      8  C   UNL     1     -11.936  11.775 -56.469  0.00  0.00    +0.000 A 
ATOM      9  C   UNL     1      -9.831  12.632 -56.896  0.00  0.00    +0.000 A 
ATOM     10  C   UNL     1      -9.943  12.895 -55.581  0.00  0.00    +0.000 A 
BRANCH   7  11
ATOM     11  C   UNL     1     -13.522  10.099 -59.143  0.00  0.00    +0.000 C 
ATOM     12  C   UNL     1     -14.886   9.834 -58.525  0.00  0.00    +0.000 C 
ENDBRANCH   7  11
ENDBRANCH   2   6
BRANCH   1  13
ATOM     13  O   UNL     1     -11.611  13.401 -60.546  0.00  0.00    +0.000 OA
BRANCH  13  14
ATOM     14  C   UNL     1     -12.559  13.483 -61.611  0.00  0.00    +0.000 C 
BRANCH  14  17
ATOM     15 CL   UNL     1     -15.899  14.298 -57.721  0.00  0.00    +0.000 Cl
ATOM     16 CL   UNL     1     -18.032  12.412 -59.296  0.00  0.00    +0.000 Cl
ATOM     17  C   UNL     1     -13.947  13.283 -61.061  0.00  0.00    +0.000 A 
ATOM     18  C   UNL     1     -14.298  13.837 -59.820  0.00  0.00    +0.000 A 
ATOM     19  C   UNL     1     -14.876  12.482 -61.737  0.00  0.00    +0.000 A 
ATOM     20  C   UNL     1     -15.555  13.591 -59.260  0.00  0.00    +0.000 A 
ATOM     21  C   UNL     1     -16.134  12.237 -61.180  0.00  0.00    +0.000 A 
ATOM     22  C   UNL     1     -16.473  12.785 -59.940  0.00  0.00    +0.000 A 
ENDBRANCH  14  17
ENDBRANCH  13  14
ENDBRANCH   1  13
TORSDOF 5
ENDMDL
MODEL 4
REMARK VINA RESULT:      -4.2     20.801     22.248
REMARK  Name = 154040928
REMARK  6 active torsions:
REMARK  status: ('A' for Active; 'I' for Inactive)
REMARK    1  A    between atoms: O_4  and  N_7
REMARK    2  A    between atoms: O_4  and  C_17
REMARK    3  A    between atoms: C_8  and  C_13
REMARK    4  A    between atoms: C_9  and  C_10
REMARK    5  A    between atoms: C_10  and  C_14
REMARK    6  A    between atoms: C_16  and  C_17
REMARK                            x       y       z     vdW  Elec       q    Type
REMARK                         _______ _______ _______ _____ _____    ______ ____
ROOT
ATOM      1  N   UNL     1     -22.877   8.676 -54.107  0.00  0.00    +0.000 NA
ATOM      2  C   UNL     1     -22.410   8.397 -55.288  0.00  0.00    +0.000 C 
ENDROOT
BRANCH   2   6
ATOM      3  S   UNL     1     -21.997   3.547 -56.626  0.00  0.00    +0.000 S 
ATOM      4  N   UNL     1     -22.309   6.003 -55.946  0.00  0.00    +0.000 N 
ATOM      5  N   UNL     1     -20.148   5.639 -56.349  0.00  0.00    +0.000 NA
ATOM      6  C   UNL     1     -21.710   7.219 -55.723  0.00  0.00    +0.000 A 
ATOM      7  C   UNL     1     -20.350   6.951 -55.938  0.00  0.00    +0.000 A 
ATOM      8  C   UNL     1     -21.342   5.127 -56.331  0.00  0.00    +0.000 A 
ATOM      9  C   UNL     1     -23.581   5.475 -55.873  0.00  0.00    +0.000 A 
ATOM     10  C   UNL     1     -23.596   4.170 -56.197  0.00  0.00    +0.000 A 
BRANCH   7  11
ATOM     11  C   UNL     1     -19.170   7.844 -55.718  0.00  0.00    +0.000 C 
ATOM     12  C   UNL     1     -18.316   8.041 -56.962  0.00  0.00    +0.000 C 
ENDBRANCH   7  11
ENDBRANCH   2   6
BRANCH   1  13
ATOM     13  O   UNL     1     -22.536   7.704 -53.155  0.00  0.00    +0.000 OA
BRANCH  13  14
ATOM     14  C   UNL     1     -23.706   7.012 -52.716  0.00  0.00    +0.000 C 
BRANCH  14  17
ATOM     15 CL   UNL     1     -25.268   4.641 -48.371  0.00  0.00    +0.000 Cl
ATOM     16 CL   UNL     1     -24.134   7.191 -46.696  0.00  0.00    +0.000 Cl
ATOM     17  C   UNL     1     -23.751   7.012 -51.211  0.00  0.00    +0.000 A 
ATOM     18  C   UNL     1     -24.363   5.952 -50.525  0.00  0.00    +0.000 A 
ATOM     19  C   UNL     1     -23.255   8.101 -50.481  0.00  0.00    +0.000 A 
ATOM     20  C   UNL     1     -24.485   5.980 -49.133  0.00  0.00    +0.000 A 
ATOM     21  C   UNL     1     -23.373   8.128 -49.089  0.00  0.00    +0.000 A 
ATOM     22  C   UNL     1     -23.992   7.073 -48.414  0.00  0.00    +0.000 A 
ENDBRANCH  14  17
ENDBRANCH  13  14
ENDBRANCH   1  13
TORSDOF 5
ENDMDL
MODEL 5
REMARK VINA RESULT:      -4.2     19.039     21.077
REMARK  Name = 154040928
REMARK  6 active torsions:
REMARK  status: ('A' for Active; 'I' for Inactive)
REMARK    1  A    between atoms: O_4  and  N_7
REMARK    2  A    between atoms: O_4  and  C_17
REMARK    3  A    between atoms: C_8  and  C_13
REMARK    4  A    between atoms: C_9  and  C_10
REMARK    5  A    between atoms: C_10  and  C_14
REMARK    6  A    between atoms: C_16  and  C_17
REMARK                            x       y       z     vdW  Elec       q    Type
REMARK                         _______ _______ _______ _____ _____    ______ ____
ROOT
ATOM      1  N   UNL     1      -5.749  -3.584 -51.386  0.00  0.00    +0.000 NA
ATOM      2  C   UNL     1      -6.781  -3.747 -52.161  0.00  0.00    +0.000 C 
ENDROOT
BRANCH   2   6
ATOM      3  S   UNL     1      -6.252  -3.992 -57.176  0.00  0.00    +0.000 S 
ATOM      4  N   UNL     1      -6.480  -3.962 -54.618  0.00  0.00    +0.000 N 
ATOM      5  N   UNL     1      -7.482  -2.153 -55.450  0.00  0.00    +0.000 NA
ATOM      6  C   UNL     1      -6.966  -3.302 -53.516  0.00  0.00    +0.000 A 
ATOM      7  C   UNL     1      -7.550  -2.150 -54.061  0.00  0.00    +0.000 A 
ATOM      8  C   UNL     1      -6.835  -3.247 -55.721  0.00  0.00    +0.000 A 
ATOM      9  C   UNL     1      -5.751  -5.105 -54.871  0.00  0.00    +0.000 A 
ATOM     10  C   UNL     1      -5.531  -5.272 -56.188  0.00  0.00    +0.000 A 
BRANCH   7  11
ATOM     11  C   UNL     1      -8.133  -0.967 -53.357  0.00  0.00    +0.000 C 
ATOM     12  C   UNL     1      -8.991  -0.086 -54.252  0.00  0.00    +0.000 C 
ENDBRANCH   7  11
ENDBRANCH   2   6
BRANCH   1  13
ATOM     13  O   UNL     1      -4.763  -2.778 -51.973  0.00  0.00    +0.000 OA
BRANCH  13  14
ATOM     14  C   UNL     1      -4.446  -1.683 -51.112  0.00  0.00    +0.000 C 
BRANCH  14  17
ATOM     15 CL   UNL     1      -4.492   1.080 -55.506  0.00  0.00    +0.000 Cl
ATOM     16 CL   UNL     1      -5.577   3.615 -53.778  0.00  0.00    +0.000 Cl
ATOM     17  C   UNL     1      -4.796  -0.389 -51.799  0.00  0.00    +0.000 A 
ATOM     18  C   UNL     1      -4.570  -0.242 -53.176  0.00  0.00    +0.000 A 
ATOM     19  C   UNL     1      -5.274   0.704 -51.065  0.00  0.00    +0.000 A 
ATOM     20  C   UNL     1      -4.813   0.980 -53.811  0.00  0.00    +0.000 A 
ATOM     21  C   UNL     1      -5.520   1.925 -51.698  0.00  0.00    +0.000 A 
ATOM     22  C   UNL     1      -5.285   2.067 -53.069  0.00  0.00    +0.000 A 
ENDBRANCH  14  17
ENDBRANCH  13  14
ENDBRANCH   1  13
TORSDOF 5
ENDMDL
MODEL 6
REMARK VINA RESULT:      -4.2     19.298     21.352
REMARK  Name = 154040928
REMARK  6 active torsions:
REMARK  status: ('A' for Active; 'I' for Inactive)
REMARK    1  A    between atoms: O_4  and  N_7
REMARK    2  A    between atoms: O_4  and  C_17
REMARK    3  A    between atoms: C_8  and  C_13
REMARK    4  A    between atoms: C_9  and  C_10
REMARK    5  A    between atoms: C_10  and  C_14
REMARK    6  A    between atoms: C_16  and  C_17
REMARK                            x       y       z     vdW  Elec       q    Type
REMARK                         _______ _______ _______ _____ _____    ______ ____
ROOT
ATOM      1  N   UNL     1      -3.426   2.012 -54.658  0.00  0.00    +0.000 NA
ATOM      2  C   UNL     1      -3.671   0.806 -54.237  0.00  0.00    +0.000 C 
ENDROOT
BRANCH   2   6
ATOM      3  S   UNL     1      -8.101  -1.233 -52.934  0.00  0.00    +0.000 S 
ATOM      4  N   UNL     1      -5.865  -0.226 -53.693  0.00  0.00    +0.000 N 
ATOM      5  N   UNL     1      -5.987  -0.108 -51.471  0.00  0.00    +0.000 NA
ATOM      6  C   UNL     1      -4.683   0.364 -53.316  0.00  0.00    +0.000 A 
ATOM      7  C   UNL     1      -4.805   0.467 -51.923  0.00  0.00    +0.000 A 
ATOM      8  C   UNL     1      -6.574  -0.496 -52.564  0.00  0.00    +0.000 A 
ATOM      9  C   UNL     1      -6.483  -0.584 -54.872  0.00  0.00    +0.000 A 
ATOM     10  C   UNL     1      -7.692  -1.132 -54.652  0.00  0.00    +0.000 A 
BRANCH   7  11
ATOM     11  C   UNL     1      -3.897   1.145 -50.947  0.00  0.00    +0.000 C 
ATOM     12  C   UNL     1      -2.556   0.449 -50.777  0.00  0.00    +0.000 C 
ENDBRANCH   7  11
ENDBRANCH   2   6
BRANCH   1  13
ATOM     13  O   UNL     1      -4.223   2.972 -54.019  0.00  0.00    +0.000 OA
BRANCH  13  14
ATOM     14  C   UNL     1      -5.125   3.565 -54.955  0.00  0.00    +0.000 C 
BRANCH  14  17
ATOM     15 CL   UNL     1      -3.169   5.778 -59.224  0.00  0.00    +0.000 Cl
ATOM     16 CL   UNL     1      -2.244   8.289 -57.373  0.00  0.00    +0.000 Cl
ATOM     17  C   UNL     1      -4.474   4.770 -55.581  0.00  0.00    +0.000 A 
ATOM     18  C   UNL     1      -4.182   4.779 -56.953  0.00  0.00    +0.000 A 
ATOM     19  C   UNL     1      -4.082   5.861 -54.794  0.00  0.00    +0.000 A 
ATOM     20  C   UNL     1      -3.504   5.856 -57.531  0.00  0.00    +0.000 A 
ATOM     21  C   UNL     1      -3.407   6.940 -55.369  0.00  0.00    +0.000 A 
ATOM     22  C   UNL     1      -3.112   6.938 -56.735  0.00  0.00    +0.000 A 
ENDBRANCH  14  17
ENDBRANCH  13  14
ENDBRANCH   1  13
TORSDOF 5
ENDMDL
MODEL 7
REMARK VINA RESULT:      -4.2      2.840      4.192
REMARK  Name = 154040928
REMARK  6 active torsions:
REMARK  status: ('A' for Active; 'I' for Inactive)
REMARK    1  A    between atoms: O_4  and  N_7
REMARK    2  A    between atoms: O_4  and  C_17
REMARK    3  A    between atoms: C_8  and  C_13
REMARK    4  A    between atoms: C_9  and  C_10
REMARK    5  A    between atoms: C_10  and  C_14
REMARK    6  A    between atoms: C_16  and  C_17
REMARK                            x       y       z     vdW  Elec       q    Type
REMARK                         _______ _______ _______ _____ _____    ______ ____
ROOT
ATOM      1  N   UNL     1     -10.855   4.400 -33.578  0.00  0.00    +0.000 NA
ATOM      2  C   UNL     1     -11.341   5.555 -33.230  0.00  0.00    +0.000 C 
ENDROOT
BRANCH   2   6
ATOM      3  S   UNL     1     -15.447   7.863 -35.046  0.00  0.00    +0.000 S 
ATOM      4  N   UNL     1     -13.418   6.641 -34.055  0.00  0.00    +0.000 N 
ATOM      5  N   UNL     1     -12.698   8.145 -35.532  0.00  0.00    +0.000 NA
ATOM      6  C   UNL     1     -12.051   6.511 -34.036  0.00  0.00    +0.000 A 
ATOM      7  C   UNL     1     -11.627   7.433 -35.004  0.00  0.00    +0.000 A 
ATOM      8  C   UNL     1     -13.731   7.629 -34.936  0.00  0.00    +0.000 A 
ATOM      9  C   UNL     1     -14.498   6.042 -33.440  0.00  0.00    +0.000 A 
ATOM     10  C   UNL     1     -15.663   6.569 -33.859  0.00  0.00    +0.000 A 
BRANCH   7  11
ATOM     11  C   UNL     1     -10.251   7.667 -35.542  0.00  0.00    +0.000 C 
ATOM     12  C   UNL     1      -9.267   8.172 -34.499  0.00  0.00    +0.000 C 
ENDBRANCH   7  11
ENDBRANCH   2   6
BRANCH   1  13
ATOM     13  O   UNL     1     -10.989   4.157 -34.953  0.00  0.00    +0.000 OA
BRANCH  13  14
ATOM     14  C   UNL     1     -10.213   3.019 -35.330  0.00  0.00    +0.000 C 
BRANCH  14  17
ATOM     15 CL   UNL     1      -5.100   2.214 -35.733  0.00  0.00    +0.000 Cl
ATOM     16 CL   UNL     1      -4.886   5.044 -37.325  0.00  0.00    +0.000 Cl
ATOM     17  C   UNL     1      -8.891   3.477 -35.887  0.00  0.00    +0.000 A 
ATOM     18  C   UNL     1      -7.728   2.731 -35.646  0.00  0.00    +0.000 A 
ATOM     19  C   UNL     1      -8.791   4.689 -36.584  0.00  0.00    +0.000 A 
ATOM     20  C   UNL     1      -6.483   3.187 -36.087  0.00  0.00    +0.000 A 
ATOM     21  C   UNL     1      -7.548   5.146 -37.029  0.00  0.00    +0.000 A 
ATOM     22  C   UNL     1      -6.392   4.401 -36.777  0.00  0.00    +0.000 A 
ENDBRANCH  14  17
ENDBRANCH  13  14
ENDBRANCH   1  13
TORSDOF 5
ENDMDL
MODEL 8
REMARK VINA RESULT:      -4.1     23.074     24.674
REMARK  Name = 154040928
REMARK  6 active torsions:
REMARK  status: ('A' for Active; 'I' for Inactive)
REMARK    1  A    between atoms: O_4  and  N_7
REMARK    2  A    between atoms: O_4  and  C_17
REMARK    3  A    between atoms: C_8  and  C_13
REMARK    4  A    between atoms: C_9  and  C_10
REMARK    5  A    between atoms: C_10  and  C_14
REMARK    6  A    between atoms: C_16  and  C_17
REMARK                            x       y       z     vdW  Elec       q    Type
REMARK                         _______ _______ _______ _____ _____    ______ ____
ROOT
ATOM      1  N   UNL     1     -19.785   8.670 -58.154  0.00  0.00    +0.000 NA
ATOM      2  C   UNL     1     -20.408   9.787 -58.388  0.00  0.00    +0.000 C 
ENDROOT
BRANCH   2   6
ATOM      3  S   UNL     1     -18.366  14.211 -57.071  0.00  0.00    +0.000 S 
ATOM      4  N   UNL     1     -19.336  11.954 -57.817  0.00  0.00    +0.000 N 
ATOM      5  N   UNL     1     -20.646  12.809 -56.230  0.00  0.00    +0.000 NA
ATOM      6  C   UNL     1     -20.336  11.026 -57.662  0.00  0.00    +0.000 A 
ATOM      7  C   UNL     1     -21.118  11.564 -56.630  0.00  0.00    +0.000 A 
ATOM      8  C   UNL     1     -19.588  12.984 -56.964  0.00  0.00    +0.000 A 
ATOM      9  C   UNL     1     -18.193  12.090 -58.577  0.00  0.00    +0.000 A 
ATOM     10  C   UNL     1     -17.547  13.237 -58.301  0.00  0.00    +0.000 A 
BRANCH   7  11
ATOM     11  C   UNL     1     -22.282  10.955 -55.915  0.00  0.00    +0.000 C 
ATOM     12  C   UNL     1     -22.778  11.784 -54.741  0.00  0.00    +0.000 C 
ENDBRANCH   7  11
ENDBRANCH   2   6
BRANCH   1  13
ATOM     13  O   UNL     1     -19.036   8.715 -56.969  0.00  0.00    +0.000 OA
BRANCH  13  14
ATOM     14  C   UNL     1     -18.947   7.411 -56.393  0.00  0.00    +0.000 C 
BRANCH  14  17
ATOM     15 CL   UNL     1     -22.798   8.340 -53.038  0.00  0.00    +0.000 Cl
ATOM     16 CL   UNL     1     -24.216   5.598 -54.067  0.00  0.00    +0.000 Cl
ATOM     17  C   UNL     1     -20.296   7.008 -55.859  0.00  0.00    +0.000 A 
ATOM     18  C   UNL     1     -20.909   7.766 -54.849  0.00  0.00    +0.000 A 
ATOM     19  C   UNL     1     -20.920   5.835 -56.304  0.00  0.00    +0.000 A 
ATOM     20  C   UNL     1     -22.122   7.357 -54.288  0.00  0.00    +0.000 A 
ATOM     21  C   UNL     1     -22.134   5.426 -55.746  0.00  0.00    +0.000 A 
ATOM     22  C   UNL     1     -22.734   6.182 -54.735  0.00  0.00    +0.000 A 
ENDBRANCH  14  17
ENDBRANCH  13  14
ENDBRANCH   1  13
TORSDOF 5
ENDMDL
MODEL 9
REMARK VINA RESULT:      -4.0     23.251     24.975
REMARK  Name = 154040928
REMARK  6 active torsions:
REMARK  status: ('A' for Active; 'I' for Inactive)
REMARK    1  A    between atoms: O_4  and  N_7
REMARK    2  A    between atoms: O_4  and  C_17
REMARK    3  A    between atoms: C_8  and  C_13
REMARK    4  A    between atoms: C_9  and  C_10
REMARK    5  A    between atoms: C_10  and  C_14
REMARK    6  A    between atoms: C_16  and  C_17
REMARK                            x       y       z     vdW  Elec       q    Type
REMARK                         _______ _______ _______ _____ _____    ______ ____
ROOT
ATOM      1  N   UNL     1     -10.265  11.877 -60.343  0.00  0.00    +0.000 NA
ATOM      2  C   UNL     1     -11.174  11.039 -59.937  0.00  0.00    +0.000 C 
ENDROOT
BRANCH   2   6
ATOM      3  S   UNL     1     -15.879  12.400 -58.716  0.00  0.00    +0.000 S 
ATOM      4  N   UNL     1     -13.512  11.713 -59.436  0.00  0.00    +0.000 N 
ATOM      5  N   UNL     1     -13.666  11.540 -57.220  0.00  0.00    +0.000 NA
ATOM      6  C   UNL     1     -12.273  11.272 -59.040  0.00  0.00    +0.000 A 
ATOM      7  C   UNL     1     -12.383  11.215 -57.643  0.00  0.00    +0.000 A 
ATOM      8  C   UNL     1     -14.287  11.830 -58.324  0.00  0.00    +0.000 A 
ATOM      9  C   UNL     1     -14.131  12.059 -60.619  0.00  0.00    +0.000 A 
ATOM     10  C   UNL     1     -15.400  12.457 -60.418  0.00  0.00    +0.000 A 
BRANCH   7  11
ATOM     11  C   UNL     1     -11.323  10.932 -56.627  0.00  0.00    +0.000 C 
ATOM     12  C   UNL     1     -11.792  11.110 -55.191  0.00  0.00    +0.000 C 
ENDBRANCH   7  11
ENDBRANCH   2   6
BRANCH   1  13
ATOM     13  O   UNL     1     -10.370  13.125 -59.712  0.00  0.00    +0.000 OA
BRANCH  13  14
ATOM     14  C   UNL     1      -9.123  13.819 -59.784  0.00  0.00    +0.000 C 
BRANCH  14  17
ATOM     15 CL   UNL     1      -9.857  14.242 -54.663  0.00  0.00    +0.000 Cl
ATOM     16 CL   UNL     1      -6.625  14.389 -54.317  0.00  0.00    +0.000 Cl
ATOM     17  C   UNL     1      -8.509  13.886 -58.411  0.00  0.00    +0.000 A 
ATOM     18  C   UNL     1      -9.330  13.976 -57.277  0.00  0.00    +0.000 A 
ATOM     19  C   UNL     1      -7.118  13.938 -58.251  0.00  0.00    +0.000 A 
ATOM     20  C   UNL     1      -8.773  14.122 -56.003  0.00  0.00    +0.000 A 
ATOM     21  C   UNL     1      -6.559  14.081 -56.979  0.00  0.00    +0.000 A 
ATOM     22  C   UNL     1      -7.384  14.179 -55.855  0.00  0.00    +0.000 A 
ENDBRANCH  14  17
ENDBRANCH  13  14
ENDBRANCH   1  13
TORSDOF 5
ENDMDL
MODEL 10
REMARK VINA RESULT:      -4.0     23.838     25.732
REMARK  Name = 154040928
REMARK  6 active torsions:
REMARK  status: ('A' for Active; 'I' for Inactive)
REMARK    1  A    between atoms: O_4  and  N_7
REMARK    2  A    between atoms: O_4  and  C_17
REMARK    3  A    between atoms: C_8  and  C_13
REMARK    4  A    between atoms: C_9  and  C_10
REMARK    5  A    between atoms: C_10  and  C_14
REMARK    6  A    between atoms: C_16  and  C_17
REMARK                            x       y       z     vdW  Elec       q    Type
REMARK                         _______ _______ _______ _____ _____    ______ ____
ROOT
ATOM      1  N   UNL     1     -18.180  12.016 -59.986  0.00  0.00    +0.000 NA
ATOM      2  C   UNL     1     -17.010  12.561 -60.145  0.00  0.00    +0.000 C 
ENDROOT
BRANCH   2   6
ATOM      3  S   UNL     1     -12.879  10.823 -57.821  0.00  0.00    +0.000 S 
ATOM      4  N   UNL     1     -14.974  11.628 -59.068  0.00  0.00    +0.000 N 
ATOM      5  N   UNL     1     -14.398  13.169 -57.566  0.00  0.00    +0.000 NA
ATOM      6  C   UNL     1     -15.913  12.620 -59.218  0.00  0.00    +0.000 A 
ATOM      7  C   UNL     1     -15.555  13.553 -58.233  0.00  0.00    +0.000 A 
ATOM      8  C   UNL     1     -14.104  12.021 -58.099  0.00  0.00    +0.000 A 
ATOM      9  C   UNL     1     -14.715  10.392 -59.622  0.00  0.00    +0.000 A 
ATOM     10  C   UNL     1     -13.632   9.817 -59.066  0.00  0.00    +0.000 A 
BRANCH   7  11
ATOM     11  C   UNL     1     -16.275  14.792 -57.807  0.00  0.00    +0.000 C 
ATOM     12  C   UNL     1     -16.074  15.968 -58.750  0.00  0.00    +0.000 C 
ENDBRANCH   7  11
ENDBRANCH   2   6
BRANCH   1  13
ATOM     13  O   UNL     1     -18.368  11.525 -58.687  0.00  0.00    +0.000 OA
BRANCH  13  14
ATOM     14  C   UNL     1     -19.686  10.991 -58.547  0.00  0.00    +0.000 C 
BRANCH  14  17
ATOM     15 CL   UNL     1     -21.673   6.196 -58.497  0.00  0.00    +0.000 Cl
ATOM     16 CL   UNL     1     -19.510   5.436 -56.189  0.00  0.00    +0.000 Cl
ATOM     17  C   UNL     1     -19.602   9.583 -58.020  0.00  0.00    +0.000 A 
ATOM     18  C   UNL     1     -20.516   8.613 -58.457  0.00  0.00    +0.000 A 
ATOM     19  C   UNL     1     -18.666   9.244 -57.034  0.00  0.00    +0.000 A 
ATOM     20  C   UNL     1     -20.501   7.324 -57.915  0.00  0.00    +0.000 A 
ATOM     21  C   UNL     1     -18.648   7.956 -56.493  0.00  0.00    +0.000 A 
ATOM     22  C   UNL     1     -19.567   6.997 -56.927  0.00  0.00    +0.000 A 
ENDBRANCH  14  17
ENDBRANCH  13  14
ENDBRANCH   1  13
TORSDOF 5
ENDMDL
