MODEL 1
REMARK VINA RESULT:      -6.9      0.000      0.000
REMARK  Name = 154040917
REMARK  5 active torsions:
REMARK  status: ('A' for Active; 'I' for Inactive)
REMARK    1  A    between atoms: O_5  and  N_8
REMARK    2  A    between atoms: O_5  and  C_21
REMARK    3  A    between atoms: C_9  and  C_14
REMARK    4  A    between atoms: C_10  and  C_12
REMARK    5  A    between atoms: C_20  and  C_21
REMARK                            x       y       z     vdW  Elec       q    Type
REMARK                         _______ _______ _______ _____ _____    ______ ____
ROOT
ATOM      1  S   UNL     1      -3.275 -15.783  12.580  0.00  0.00    +0.000 S 
ATOM      2  N   UNL     1      -2.350 -13.382  12.755  0.00  0.00    +0.000 N 
ATOM      3  N   UNL     1      -3.832 -13.489  11.081  0.00  0.00    +0.000 NA
ATOM      4  C   UNL     1      -2.411 -12.097  12.256  0.00  0.00    +0.000 A 
ATOM      5  C   UNL     1      -3.319 -12.211  11.195  0.00  0.00    +0.000 A 
ATOM      6  C   UNL     1      -3.212 -14.141  12.018  0.00  0.00    +0.000 A 
ATOM      7  C   UNL     1      -1.732 -14.067  13.784  0.00  0.00    +0.000 A 
ATOM      8  C   UNL     1      -2.097 -15.361  13.824  0.00  0.00    +0.000 A 
ENDROOT
BRANCH   5  10
ATOM      9 CL   UNL     1      -5.694 -10.932   6.794  0.00  0.00    +0.000 Cl
ATOM     10  C   UNL     1      -3.756 -11.151  10.294  0.00  0.00    +0.000 A 
ATOM     11  C   UNL     1      -4.447 -11.494   9.121  0.00  0.00    +0.000 A 
ATOM     12  C   UNL     1      -3.460  -9.803  10.539  0.00  0.00    +0.000 A 
ATOM     13  C   UNL     1      -4.855 -10.499   8.231  0.00  0.00    +0.000 A 
ATOM     14  C   UNL     1      -3.883  -8.810   9.649  0.00  0.00    +0.000 A 
ATOM     15  C   UNL     1      -4.583  -9.160   8.497  0.00  0.00    +0.000 A 
ENDBRANCH   5  10
BRANCH   4  17
ATOM     16  N   UNL     1      -2.134 -10.174  13.805  0.00  0.00    +0.000 NA
ATOM     17  C   UNL     1      -1.804 -10.905  12.782  0.00  0.00    +0.000 C 
BRANCH  16  18
ATOM     18  O   UNL     1      -3.193 -10.701  14.553  0.00  0.00    +0.000 OA
BRANCH  18  19
ATOM     19  C   UNL     1      -2.802 -10.781  15.928  0.00  0.00    +0.000 C 
BRANCH  19  22
ATOM     20 CL   UNL     1      -7.689  -9.207  16.734  0.00  0.00    +0.000 Cl
ATOM     21 CL   UNL     1      -7.647 -10.860  19.536  0.00  0.00    +0.000 Cl
ATOM     22  C   UNL     1      -4.028 -10.816  16.802  0.00  0.00    +0.000 A 
ATOM     23  C   UNL     1      -5.181 -10.105  16.434  0.00  0.00    +0.000 A 
ATOM     24  C   UNL     1      -4.019 -11.519  18.012  0.00  0.00    +0.000 A 
ATOM     25  C   UNL     1      -6.312 -10.106  17.258  0.00  0.00    +0.000 A 
ATOM     26  C   UNL     1      -5.146 -11.522  18.836  0.00  0.00    +0.000 A 
ATOM     27  C   UNL     1      -6.293 -10.818  18.462  0.00  0.00    +0.000 A 
ENDBRANCH  19  22
ENDBRANCH  18  19
ENDBRANCH  16  18
ENDBRANCH   4  17
TORSDOF 5
ENDMDL
MODEL 2
REMARK VINA RESULT:      -6.2     24.587     26.362
REMARK  Name = 154040917
REMARK  5 active torsions:
REMARK  status: ('A' for Active; 'I' for Inactive)
REMARK    1  A    between atoms: O_5  and  N_8
REMARK    2  A    between atoms: O_5  and  C_21
REMARK    3  A    between atoms: C_9  and  C_14
REMARK    4  A    between atoms: C_10  and  C_12
REMARK    5  A    between atoms: C_20  and  C_21
REMARK                            x       y       z     vdW  Elec       q    Type
REMARK                         _______ _______ _______ _____ _____    ______ ____
ROOT
ATOM      1  S   UNL     1      15.324   7.824   0.626  0.00  0.00    +0.000 S 
ATOM      2  N   UNL     1      13.985   5.747   1.364  0.00  0.00    +0.000 N 
ATOM      3  N   UNL     1      13.713   6.066  -0.835  0.00  0.00    +0.000 NA
ATOM      4  C   UNL     1      13.176   4.707   0.955  0.00  0.00    +0.000 A 
ATOM      5  C   UNL     1      13.003   4.957  -0.412  0.00  0.00    +0.000 A 
ATOM      6  C   UNL     1      14.261   6.501   0.260  0.00  0.00    +0.000 A 
ATOM      7  C   UNL     1      14.611   6.183   2.517  0.00  0.00    +0.000 A 
ATOM      8  C   UNL     1      15.349   7.288   2.307  0.00  0.00    +0.000 A 
ENDROOT
BRANCH   5  10
ATOM      9 CL   UNL     1       8.836   4.683  -3.447  0.00  0.00    +0.000 Cl
ATOM     10  C   UNL     1      12.217   4.173  -1.357  0.00  0.00    +0.000 A 
ATOM     11  C   UNL     1      11.050   4.731  -1.903  0.00  0.00    +0.000 A 
ATOM     12  C   UNL     1      12.564   2.858  -1.697  0.00  0.00    +0.000 A 
ATOM     13  C   UNL     1      10.268   3.992  -2.791  0.00  0.00    +0.000 A 
ATOM     14  C   UNL     1      11.783   2.128  -2.598  0.00  0.00    +0.000 A 
ATOM     15  C   UNL     1      10.637   2.697  -3.147  0.00  0.00    +0.000 A 
ENDBRANCH   5  10
BRANCH   4  17
ATOM     16  N   UNL     1      11.695   3.416   2.476  0.00  0.00    +0.000 NA
ATOM     17  C   UNL     1      12.736   3.567   1.713  0.00  0.00    +0.000 C 
BRANCH  16  18
ATOM     18  O   UNL     1      10.831   4.517   2.471  0.00  0.00    +0.000 OA
BRANCH  18  19
ATOM     19  C   UNL     1      10.764   5.068   3.791  0.00  0.00    +0.000 C 
BRANCH  19  22
ATOM     20 CL   UNL     1       8.417   8.957   1.265  0.00  0.00    +0.000 Cl
ATOM     21 CL   UNL     1       6.810   9.630   4.013  0.00  0.00    +0.000 Cl
ATOM     22  C   UNL     1       9.759   6.190   3.822  0.00  0.00    +0.000 A 
ATOM     23  C   UNL     1       9.538   6.975   2.680  0.00  0.00    +0.000 A 
ATOM     24  C   UNL     1       9.067   6.492   5.000  0.00  0.00    +0.000 A 
ATOM     25  C   UNL     1       8.631   8.039   2.712  0.00  0.00    +0.000 A 
ATOM     26  C   UNL     1       8.160   7.553   5.035  0.00  0.00    +0.000 A 
ATOM     27  C   UNL     1       7.940   8.327   3.893  0.00  0.00    +0.000 A 
ENDBRANCH  19  22
ENDBRANCH  18  19
ENDBRANCH  16  18
ENDBRANCH   4  17
TORSDOF 5
ENDMDL
MODEL 3
REMARK VINA RESULT:      -6.1     24.688     28.413
REMARK  Name = 154040917
REMARK  5 active torsions:
REMARK  status: ('A' for Active; 'I' for Inactive)
REMARK    1  A    between atoms: O_5  and  N_8
REMARK    2  A    between atoms: O_5  and  C_21
REMARK    3  A    between atoms: C_9  and  C_14
REMARK    4  A    between atoms: C_10  and  C_12
REMARK    5  A    between atoms: C_20  and  C_21
REMARK                            x       y       z     vdW  Elec       q    Type
REMARK                         _______ _______ _______ _____ _____    ______ ____
ROOT
ATOM      1  S   UNL     1     -14.308   9.093  31.484  0.00  0.00    +0.000 S 
ATOM      2  N   UNL     1     -14.304   7.247  33.285  0.00  0.00    +0.000 N 
ATOM      3  N   UNL     1     -16.351   7.416  32.395  0.00  0.00    +0.000 NA
ATOM      4  C   UNL     1     -15.047   6.276  33.923  0.00  0.00    +0.000 A 
ATOM      5  C   UNL     1     -16.323   6.433  33.366  0.00  0.00    +0.000 A 
ATOM      6  C   UNL     1     -15.136   7.873  32.401  0.00  0.00    +0.000 A 
ATOM      7  C   UNL     1     -12.999   7.701  33.252  0.00  0.00    +0.000 A 
ATOM      8  C   UNL     1     -12.830   8.695  32.361  0.00  0.00    +0.000 A 
ENDROOT
BRANCH   5  10
ATOM      9 CL   UNL     1     -20.392   3.773  31.631  0.00  0.00    +0.000 Cl
ATOM     10  C   UNL     1     -17.523   5.669  33.687  0.00  0.00    +0.000 A 
ATOM     11  C   UNL     1     -18.291   5.133  32.641  0.00  0.00    +0.000 A 
ATOM     12  C   UNL     1     -17.961   5.498  35.007  0.00  0.00    +0.000 A 
ATOM     13  C   UNL     1     -19.456   4.418  32.921  0.00  0.00    +0.000 A 
ATOM     14  C   UNL     1     -19.122   4.770  35.281  0.00  0.00    +0.000 A 
ATOM     15  C   UNL     1     -19.867   4.227  34.237  0.00  0.00    +0.000 A 
ENDBRANCH   5  10
BRANCH   4  17
ATOM     16  N   UNL     1     -14.244   4.026  34.607  0.00  0.00    +0.000 NA
ATOM     17  C   UNL     1     -14.593   5.257  34.832  0.00  0.00    +0.000 C 
BRANCH  16  18
ATOM     18  O   UNL     1     -14.224   3.686  33.250  0.00  0.00    +0.000 OA
BRANCH  18  19
ATOM     19  C   UNL     1     -14.399   2.271  33.118  0.00  0.00    +0.000 C 
BRANCH  19  22
ATOM     20 CL   UNL     1     -17.539   3.780  29.261  0.00  0.00    +0.000 Cl
ATOM     21 CL   UNL     1     -16.975   0.916  27.824  0.00  0.00    +0.000 Cl
ATOM     22  C   UNL     1     -15.025   1.960  31.784  0.00  0.00    +0.000 A 
ATOM     23  C   UNL     1     -15.884   2.885  31.171  0.00  0.00    +0.000 A 
ATOM     24  C   UNL     1     -14.794   0.729  31.160  0.00  0.00    +0.000 A 
ATOM     25  C   UNL     1     -16.495   2.588  29.948  0.00  0.00    +0.000 A 
ATOM     26  C   UNL     1     -15.401   0.430  29.939  0.00  0.00    +0.000 A 
ATOM     27  C   UNL     1     -16.252   1.357  29.331  0.00  0.00    +0.000 A 
ENDBRANCH  19  22
ENDBRANCH  18  19
ENDBRANCH  16  18
ENDBRANCH   4  17
TORSDOF 5
ENDMDL
MODEL 4
REMARK VINA RESULT:      -6.1     23.513     25.372
REMARK  Name = 154040917
REMARK  5 active torsions:
REMARK  status: ('A' for Active; 'I' for Inactive)
REMARK    1  A    between atoms: O_5  and  N_8
REMARK    2  A    between atoms: O_5  and  C_21
REMARK    3  A    between atoms: C_9  and  C_14
REMARK    4  A    between atoms: C_10  and  C_12
REMARK    5  A    between atoms: C_20  and  C_21
REMARK                            x       y       z     vdW  Elec       q    Type
REMARK                         _______ _______ _______ _____ _____    ______ ____
ROOT
ATOM      1  S   UNL     1      -7.054  -5.826  39.864  0.00  0.00    +0.000 S 
ATOM      2  N   UNL     1      -8.251  -8.110  39.785  0.00  0.00    +0.000 N 
ATOM      3  N   UNL     1      -6.293  -8.257  38.710  0.00  0.00    +0.000 NA
ATOM      4  C   UNL     1      -8.174  -9.424  39.373  0.00  0.00    +0.000 A 
ATOM      5  C   UNL     1      -6.957  -9.469  38.680  0.00  0.00    +0.000 A 
ATOM      6  C   UNL     1      -7.112  -7.488  39.362  0.00  0.00    +0.000 A 
ATOM      7  C   UNL     1      -9.095  -7.301  40.522  0.00  0.00    +0.000 A 
ATOM      8  C   UNL     1      -8.620  -6.049  40.646  0.00  0.00    +0.000 A 
ENDROOT
BRANCH   5  10
ATOM      9 CL   UNL     1      -7.072 -12.710  34.663  0.00  0.00    +0.000 Cl
ATOM     10  C   UNL     1      -6.368 -10.624  38.012  0.00  0.00    +0.000 A 
ATOM     11  C   UNL     1      -6.918 -11.062  36.796  0.00  0.00    +0.000 A 
ATOM     12  C   UNL     1      -5.303 -11.341  38.573  0.00  0.00    +0.000 A 
ATOM     13  C   UNL     1      -6.387 -12.178  36.148  0.00  0.00    +0.000 A 
ATOM     14  C   UNL     1      -4.768 -12.451  37.913  0.00  0.00    +0.000 A 
ATOM     15  C   UNL     1      -5.309 -12.867  36.699  0.00  0.00    +0.000 A 
ENDBRANCH   5  10
BRANCH   4  17
ATOM     16  N   UNL     1     -10.004 -11.062  39.000  0.00  0.00    +0.000 NA
ATOM     17  C   UNL     1      -9.054 -10.514  39.697  0.00  0.00    +0.000 C 
BRANCH  16  18
ATOM     18  O   UNL     1     -10.108 -10.559  37.699  0.00  0.00    +0.000 OA
BRANCH  18  19
ATOM     19  C   UNL     1     -11.492 -10.382  37.373  0.00  0.00    +0.000 C 
BRANCH  19  22
ATOM     20 CL   UNL     1     -10.328 -14.643  34.635  0.00  0.00    +0.000 Cl
ATOM     21 CL   UNL     1     -13.071 -14.178  32.948  0.00  0.00    +0.000 Cl
ATOM     22  C   UNL     1     -11.887 -11.354  36.293  0.00  0.00    +0.000 A 
ATOM     23  C   UNL     1     -11.058 -12.443  35.981  0.00  0.00    +0.000 A 
ATOM     24  C   UNL     1     -13.061 -11.160  35.557  0.00  0.00    +0.000 A 
ATOM     25  C   UNL     1     -11.402 -13.330  34.956  0.00  0.00    +0.000 A 
ATOM     26  C   UNL     1     -13.409 -12.045  34.535  0.00  0.00    +0.000 A 
ATOM     27  C   UNL     1     -12.582 -13.130  34.232  0.00  0.00    +0.000 A 
ENDBRANCH  19  22
ENDBRANCH  18  19
ENDBRANCH  16  18
ENDBRANCH   4  17
TORSDOF 5
ENDMDL
MODEL 5
REMARK VINA RESULT:      -6.0     29.097     30.994
REMARK  Name = 154040917
REMARK  5 active torsions:
REMARK  status: ('A' for Active; 'I' for Inactive)
REMARK    1  A    between atoms: O_5  and  N_8
REMARK    2  A    between atoms: O_5  and  C_21
REMARK    3  A    between atoms: C_9  and  C_14
REMARK    4  A    between atoms: C_10  and  C_12
REMARK    5  A    between atoms: C_20  and  C_21
REMARK                            x       y       z     vdW  Elec       q    Type
REMARK                         _______ _______ _______ _____ _____    ______ ____
ROOT
ATOM      1  S   UNL     1       2.466  20.991  22.322  0.00  0.00    +0.000 S 
ATOM      2  N   UNL     1       2.668  18.632  23.346  0.00  0.00    +0.000 N 
ATOM      3  N   UNL     1       4.316  18.945  21.864  0.00  0.00    +0.000 NA
ATOM      4  C   UNL     1       3.403  17.466  23.386  0.00  0.00    +0.000 A 
ATOM      5  C   UNL     1       4.401  17.685  22.428  0.00  0.00    +0.000 A 
ATOM      6  C   UNL     1       3.265  19.453  22.433  0.00  0.00    +0.000 A 
ATOM      7  C   UNL     1       1.581  19.195  23.987  0.00  0.00    +0.000 A 
ATOM      8  C   UNL     1       1.323  20.441  23.550  0.00  0.00    +0.000 A 
ENDROOT
BRANCH   5  10
ATOM      9 CL   UNL     1       8.930  15.502  23.598  0.00  0.00    +0.000 Cl
ATOM     10  C   UNL     1       5.463  16.766  22.036  0.00  0.00    +0.000 A 
ATOM     11  C   UNL     1       6.554  16.577  22.899  0.00  0.00    +0.000 A 
ATOM     12  C   UNL     1       5.451  16.104  20.801  0.00  0.00    +0.000 A 
ATOM     13  C   UNL     1       7.594  15.720  22.537  0.00  0.00    +0.000 A 
ATOM     14  C   UNL     1       6.491  15.237  20.450  0.00  0.00    +0.000 A 
ATOM     15  C   UNL     1       7.560  15.043  21.320  0.00  0.00    +0.000 A 
ENDBRANCH   5  10
BRANCH   4  17
ATOM     16  N   UNL     1       2.259  15.562  24.501  0.00  0.00    +0.000 NA
ATOM     17  C   UNL     1       3.267  16.354  24.288  0.00  0.00    +0.000 C 
BRANCH  16  18
ATOM     18  O   UNL     1       1.179  15.785  23.639  0.00  0.00    +0.000 OA
BRANCH  18  19
ATOM     19  C   UNL     1       1.095  14.703  22.703  0.00  0.00    +0.000 C 
BRANCH  19  22
ATOM     20 CL   UNL     1      -2.504  15.723  19.095  0.00  0.00    +0.000 Cl
ATOM     21 CL   UNL     1      -0.109  16.763  17.153  0.00  0.00    +0.000 Cl
ATOM     22  C   UNL     1       0.776  15.242  21.333  0.00  0.00    +0.000 A 
ATOM     23  C   UNL     1      -0.550  15.263  20.871  0.00  0.00    +0.000 A 
ATOM     24  C   UNL     1       1.798  15.686  20.488  0.00  0.00    +0.000 A 
ATOM     25  C   UNL     1      -0.849  15.730  19.587  0.00  0.00    +0.000 A 
ATOM     26  C   UNL     1       1.502  16.154  19.206  0.00  0.00    +0.000 A 
ATOM     27  C   UNL     1       0.181  16.178  18.754  0.00  0.00    +0.000 A 
ENDBRANCH  19  22
ENDBRANCH  18  19
ENDBRANCH  16  18
ENDBRANCH   4  17
TORSDOF 5
ENDMDL
MODEL 6
REMARK VINA RESULT:      -5.9     28.997     30.807
REMARK  Name = 154040917
REMARK  5 active torsions:
REMARK  status: ('A' for Active; 'I' for Inactive)
REMARK    1  A    between atoms: O_5  and  N_8
REMARK    2  A    between atoms: O_5  and  C_21
REMARK    3  A    between atoms: C_9  and  C_14
REMARK    4  A    between atoms: C_10  and  C_12
REMARK    5  A    between atoms: C_20  and  C_21
REMARK                            x       y       z     vdW  Elec       q    Type
REMARK                         _______ _______ _______ _____ _____    ______ ____
ROOT
ATOM      1  S   UNL     1       2.231  20.957  22.238  0.00  0.00    +0.000 S 
ATOM      2  N   UNL     1       2.627  18.657  23.335  0.00  0.00    +0.000 N 
ATOM      3  N   UNL     1       4.079  18.941  21.656  0.00  0.00    +0.000 NA
ATOM      4  C   UNL     1       3.399  17.513  23.339  0.00  0.00    +0.000 A 
ATOM      5  C   UNL     1       4.270  17.713  22.260  0.00  0.00    +0.000 A 
ATOM      6  C   UNL     1       3.087  19.448  22.322  0.00  0.00    +0.000 A 
ATOM      7  C   UNL     1       1.605  19.221  24.075  0.00  0.00    +0.000 A 
ATOM      8  C   UNL     1       1.259  20.437  23.616  0.00  0.00    +0.000 A 
ENDROOT
BRANCH   5  10
ATOM      9 CL   UNL     1       6.187  14.941  18.350  0.00  0.00    +0.000 Cl
ATOM     10  C   UNL     1       5.307  16.803  21.787  0.00  0.00    +0.000 A 
ATOM     11  C   UNL     1       5.274  16.365  20.453  0.00  0.00    +0.000 A 
ATOM     12  C   UNL     1       6.306  16.313  22.639  0.00  0.00    +0.000 A 
ATOM     13  C   UNL     1       6.242  15.477  19.983  0.00  0.00    +0.000 A 
ATOM     14  C   UNL     1       7.280  15.433  22.157  0.00  0.00    +0.000 A 
ATOM     15  C   UNL     1       7.248  15.018  20.828  0.00  0.00    +0.000 A 
ENDBRANCH   5  10
BRANCH   4  17
ATOM     16  N   UNL     1       2.474  15.595  24.620  0.00  0.00    +0.000 NA
ATOM     17  C   UNL     1       3.405  16.443  24.300  0.00  0.00    +0.000 C 
BRANCH  16  18
ATOM     18  O   UNL     1       1.326  15.696  23.826  0.00  0.00    +0.000 OA
BRANCH  18  19
ATOM     19  C   UNL     1       1.302  14.608  22.895  0.00  0.00    +0.000 C 
BRANCH  19  22
ATOM     20 CL   UNL     1       2.405  16.368  18.131  0.00  0.00    +0.000 Cl
ATOM     21 CL   UNL     1      -0.795  16.658  17.614  0.00  0.00    +0.000 Cl
ATOM     22  C   UNL     1       0.794  15.092  21.562  0.00  0.00    +0.000 A 
ATOM     23  C   UNL     1       1.695  15.457  20.550  0.00  0.00    +0.000 A 
ATOM     24  C   UNL     1      -0.580  15.226  21.331  0.00  0.00    +0.000 A 
ATOM     25  C   UNL     1       1.231  15.940  19.322  0.00  0.00    +0.000 A 
ATOM     26  C   UNL     1      -1.047  15.706  20.106  0.00  0.00    +0.000 A 
ATOM     27  C   UNL     1      -0.145  16.063  19.101  0.00  0.00    +0.000 A 
ENDBRANCH  19  22
ENDBRANCH  18  19
ENDBRANCH  16  18
ENDBRANCH   4  17
TORSDOF 5
ENDMDL
MODEL 7
REMARK VINA RESULT:      -5.9     31.226     32.844
REMARK  Name = 154040917
REMARK  5 active torsions:
REMARK  status: ('A' for Active; 'I' for Inactive)
REMARK    1  A    between atoms: O_5  and  N_8
REMARK    2  A    between atoms: O_5  and  C_21
REMARK    3  A    between atoms: C_9  and  C_14
REMARK    4  A    between atoms: C_10  and  C_12
REMARK    5  A    between atoms: C_20  and  C_21
REMARK                            x       y       z     vdW  Elec       q    Type
REMARK                         _______ _______ _______ _____ _____    ______ ____
ROOT
ATOM      1  S   UNL     1      -1.449  12.754  40.432  0.00  0.00    +0.000 S 
ATOM      2  N   UNL     1      -1.737  10.990  38.572  0.00  0.00    +0.000 N 
ATOM      3  N   UNL     1      -1.400   9.960  40.530  0.00  0.00    +0.000 NA
ATOM      4  C   UNL     1      -1.802   9.644  38.277  0.00  0.00    +0.000 A 
ATOM      5  C   UNL     1      -1.556   9.035  39.514  0.00  0.00    +0.000 A 
ATOM      6  C   UNL     1      -1.501  11.098  39.912  0.00  0.00    +0.000 A 
ATOM      7  C   UNL     1      -1.895  12.202  37.927  0.00  0.00    +0.000 A 
ATOM      8  C   UNL     1      -1.756  13.245  38.765  0.00  0.00    +0.000 A 
ENDROOT
BRANCH   5  10
ATOM      9 CL   UNL     1       1.262   4.710  39.501  0.00  0.00    +0.000 Cl
ATOM     10  C   UNL     1      -1.492   7.605  39.794  0.00  0.00    +0.000 A 
ATOM     11  C   UNL     1      -0.291   6.917  39.560  0.00  0.00    +0.000 A 
ATOM     12  C   UNL     1      -2.611   6.888  40.240  0.00  0.00    +0.000 A 
ATOM     13  C   UNL     1      -0.212   5.544  39.798  0.00  0.00    +0.000 A 
ATOM     14  C   UNL     1      -2.521   5.515  40.488  0.00  0.00    +0.000 A 
ATOM     15  C   UNL     1      -1.319   4.845  40.269  0.00  0.00    +0.000 A 
ENDBRANCH   5  10
BRANCH   4  17
ATOM     16  N   UNL     1      -3.341   8.668  36.588  0.00  0.00    +0.000 NA
ATOM     17  C   UNL     1      -2.173   9.018  37.037  0.00  0.00    +0.000 C 
BRANCH  16  18
ATOM     18  O   UNL     1      -4.400   9.056  37.416  0.00  0.00    +0.000 OA
BRANCH  18  19
ATOM     19  C   UNL     1      -5.131  10.111  36.782  0.00  0.00    +0.000 C 
BRANCH  19  22
ATOM     20 CL   UNL     1      -9.419  10.045  33.845  0.00  0.00    +0.000 Cl
ATOM     21 CL   UNL     1     -10.960   8.593  36.316  0.00  0.00    +0.000 Cl
ATOM     22  C   UNL     1      -6.576   9.712  36.639  0.00  0.00    +0.000 A 
ATOM     23  C   UNL     1      -7.277   9.997  35.457  0.00  0.00    +0.000 A 
ATOM     24  C   UNL     1      -7.250   9.093  37.697  0.00  0.00    +0.000 A 
ATOM     25  C   UNL     1      -8.629   9.659  35.331  0.00  0.00    +0.000 A 
ATOM     26  C   UNL     1      -8.599   8.753  37.574  0.00  0.00    +0.000 A 
ATOM     27  C   UNL     1      -9.290   9.035  36.393  0.00  0.00    +0.000 A 
ENDBRANCH  19  22
ENDBRANCH  18  19
ENDBRANCH  16  18
ENDBRANCH   4  17
TORSDOF 5
ENDMDL
MODEL 8
REMARK VINA RESULT:      -5.9     29.167     30.812
REMARK  Name = 154040917
REMARK  5 active torsions:
REMARK  status: ('A' for Active; 'I' for Inactive)
REMARK    1  A    between atoms: O_5  and  N_8
REMARK    2  A    between atoms: O_5  and  C_21
REMARK    3  A    between atoms: C_9  and  C_14
REMARK    4  A    between atoms: C_10  and  C_12
REMARK    5  A    between atoms: C_20  and  C_21
REMARK                            x       y       z     vdW  Elec       q    Type
REMARK                         _______ _______ _______ _____ _____    ______ ____
ROOT
ATOM      1  S   UNL     1       1.857  20.603  22.803  0.00  0.00    +0.000 S 
ATOM      2  N   UNL     1       0.662  18.433  22.083  0.00  0.00    +0.000 N 
ATOM      3  N   UNL     1       2.555  18.665  20.912  0.00  0.00    +0.000 NA
ATOM      4  C   UNL     1       0.719  17.313  21.281  0.00  0.00    +0.000 A 
ATOM      5  C   UNL     1       1.893  17.508  20.544  0.00  0.00    +0.000 A 
ATOM      6  C   UNL     1       1.774  19.178  21.814  0.00  0.00    +0.000 A 
ATOM      7  C   UNL     1      -0.141  18.956  23.079  0.00  0.00    +0.000 A 
ATOM      8  C   UNL     1       0.338  20.118  23.560  0.00  0.00    +0.000 A 
ENDROOT
BRANCH   5  10
ATOM      9 CL   UNL     1       5.943  14.792  18.849  0.00  0.00    +0.000 Cl
ATOM     10  C   UNL     1       2.446  16.629  19.519  0.00  0.00    +0.000 A 
ATOM     11  C   UNL     1       3.765  16.168  19.655  0.00  0.00    +0.000 A 
ATOM     12  C   UNL     1       1.716  16.274  18.377  0.00  0.00    +0.000 A 
ATOM     13  C   UNL     1       4.324  15.345  18.676  0.00  0.00    +0.000 A 
ATOM     14  C   UNL     1       2.278  15.439  17.407  0.00  0.00    +0.000 A 
ATOM     15  C   UNL     1       3.581  14.972  17.559  0.00  0.00    +0.000 A 
ENDBRANCH   5  10
BRANCH   4  17
ATOM     16  N   UNL     1       0.113  14.929  21.632  0.00  0.00    +0.000 NA
ATOM     17  C   UNL     1      -0.139  16.158  21.296  0.00  0.00    +0.000 C 
BRANCH  16  18
ATOM     18  O   UNL     1       1.401  14.739  22.145  0.00  0.00    +0.000 OA
BRANCH  18  19
ATOM     19  C   UNL     1       1.416  15.117  23.527  0.00  0.00    +0.000 C 
BRANCH  19  22
ATOM     20 CL   UNL     1       3.658  19.139  25.938  0.00  0.00    +0.000 Cl
ATOM     21 CL   UNL     1       6.481  18.230  24.599  0.00  0.00    +0.000 Cl
ATOM     22  C   UNL     1       2.676  15.886  23.828  0.00  0.00    +0.000 A 
ATOM     23  C   UNL     1       2.634  17.020  24.655  0.00  0.00    +0.000 A 
ATOM     24  C   UNL     1       3.894  15.508  23.252  0.00  0.00    +0.000 A 
ATOM     25  C   UNL     1       3.794  17.757  24.911  0.00  0.00    +0.000 A 
ATOM     26  C   UNL     1       5.054  16.241  23.507  0.00  0.00    +0.000 A 
ATOM     27  C   UNL     1       5.007  17.366  24.336  0.00  0.00    +0.000 A 
ENDBRANCH  19  22
ENDBRANCH  18  19
ENDBRANCH  16  18
ENDBRANCH   4  17
TORSDOF 5
ENDMDL
MODEL 9
REMARK VINA RESULT:      -5.9     23.994     25.927
REMARK  Name = 154040917
REMARK  5 active torsions:
REMARK  status: ('A' for Active; 'I' for Inactive)
REMARK    1  A    between atoms: O_5  and  N_8
REMARK    2  A    between atoms: O_5  and  C_21
REMARK    3  A    between atoms: C_9  and  C_14
REMARK    4  A    between atoms: C_10  and  C_12
REMARK    5  A    between atoms: C_20  and  C_21
REMARK                            x       y       z     vdW  Elec       q    Type
REMARK                         _______ _______ _______ _____ _____    ______ ____
ROOT
ATOM      1  S   UNL     1      13.757   8.447   1.134  0.00  0.00    +0.000 S 
ATOM      2  N   UNL     1      12.828   6.109   1.704  0.00  0.00    +0.000 N 
ATOM      3  N   UNL     1      12.774   6.413  -0.513  0.00  0.00    +0.000 NA
ATOM      4  C   UNL     1      12.328   4.927   1.199  0.00  0.00    +0.000 A 
ATOM      5  C   UNL     1      12.279   5.166  -0.181  0.00  0.00    +0.000 A 
ATOM      6  C   UNL     1      13.069   6.931   0.640  0.00  0.00    +0.000 A 
ATOM      7  C   UNL     1      13.190   6.645   2.925  0.00  0.00    +0.000 A 
ATOM      8  C   UNL     1      13.687   7.890   2.807  0.00  0.00    +0.000 A 
ENDROOT
BRANCH   5  10
ATOM      9 CL   UNL     1       8.795   4.143  -3.851  0.00  0.00    +0.000 Cl
ATOM     10  C   UNL     1      11.813   4.250  -1.216  0.00  0.00    +0.000 A 
ATOM     11  C   UNL     1      10.674   4.590  -1.964  0.00  0.00    +0.000 A 
ATOM     12  C   UNL     1      12.436   3.017  -1.450  0.00  0.00    +0.000 A 
ATOM     13  C   UNL     1      10.195   3.720  -2.945  0.00  0.00    +0.000 A 
ATOM     14  C   UNL     1      11.958   2.157  -2.442  0.00  0.00    +0.000 A 
ATOM     15  C   UNL     1      10.839   2.511  -3.191  0.00  0.00    +0.000 A 
ENDBRANCH   5  10
BRANCH   4  17
ATOM     16  N   UNL     1      11.254   3.458   2.891  0.00  0.00    +0.000 NA
ATOM     17  C   UNL     1      12.058   3.700   1.899  0.00  0.00    +0.000 C 
BRANCH  16  18
ATOM     18  O   UNL     1      10.469   4.556   3.258  0.00  0.00    +0.000 OA
BRANCH  18  19
ATOM     19  C   UNL     1      10.119   4.441   4.642  0.00  0.00    +0.000 C 
BRANCH  19  22
ATOM     20 CL   UNL     1      12.145   8.590   7.029  0.00  0.00    +0.000 Cl
ATOM     21 CL   UNL     1       9.161   9.886   7.077  0.00  0.00    +0.000 Cl
ATOM     22  C   UNL     1       9.901   5.812   5.226  0.00  0.00    +0.000 A 
ATOM     23  C   UNL     1      10.974   6.523   5.786  0.00  0.00    +0.000 A 
ATOM     24  C   UNL     1       8.621   6.377   5.257  0.00  0.00    +0.000 A 
ATOM     25  C   UNL     1      10.773   7.782   6.360  0.00  0.00    +0.000 A 
ATOM     26  C   UNL     1       8.417   7.634   5.828  0.00  0.00    +0.000 A 
ATOM     27  C   UNL     1       9.490   8.339   6.379  0.00  0.00    +0.000 A 
ENDBRANCH  19  22
ENDBRANCH  18  19
ENDBRANCH  16  18
ENDBRANCH   4  17
TORSDOF 5
ENDMDL
MODEL 10
REMARK VINA RESULT:      -5.8     20.951     23.556
REMARK  Name = 154040917
REMARK  5 active torsions:
REMARK  status: ('A' for Active; 'I' for Inactive)
REMARK    1  A    between atoms: O_5  and  N_8
REMARK    2  A    between atoms: O_5  and  C_21
REMARK    3  A    between atoms: C_9  and  C_14
REMARK    4  A    between atoms: C_10  and  C_12
REMARK    5  A    between atoms: C_20  and  C_21
REMARK                            x       y       z     vdW  Elec       q    Type
REMARK                         _______ _______ _______ _____ _____    ______ ____
ROOT
ATOM      1  S   UNL     1       9.883  -9.437  36.284  0.00  0.00    +0.000 S 
ATOM      2  N   UNL     1       7.992  -8.707  34.690  0.00  0.00    +0.000 N 
ATOM      3  N   UNL     1       7.436 -10.642  35.668  0.00  0.00    +0.000 NA
ATOM      4  C   UNL     1       6.736  -9.002  34.199  0.00  0.00    +0.000 A 
ATOM      5  C   UNL     1       6.438 -10.229  34.806  0.00  0.00    +0.000 A 
ATOM      6  C   UNL     1       8.335  -9.712  35.547  0.00  0.00    +0.000 A 
ATOM      7  C   UNL     1       8.928  -7.694  34.603  0.00  0.00    +0.000 A 
ATOM      8  C   UNL     1      10.005  -7.930  35.373  0.00  0.00    +0.000 A 
ENDROOT
BRANCH   5  10
ATOM      9 CL   UNL     1       4.111 -14.171  32.420  0.00  0.00    +0.000 Cl
ATOM     10  C   UNL     1       5.227 -11.023  34.634  0.00  0.00    +0.000 A 
ATOM     11  C   UNL     1       5.239 -12.099  33.732  0.00  0.00    +0.000 A 
ATOM     12  C   UNL     1       4.036 -10.712  35.305  0.00  0.00    +0.000 A 
ATOM     13  C   UNL     1       4.087 -12.860  33.533  0.00  0.00    +0.000 A 
ATOM     14  C   UNL     1       2.889 -11.487  35.110  0.00  0.00    +0.000 A 
ATOM     15  C   UNL     1       2.916 -12.563  34.226  0.00  0.00    +0.000 A 
ENDBRANCH   5  10
BRANCH   4  17
ATOM     16  N   UNL     1       6.036  -7.773  32.156  0.00  0.00    +0.000 NA
ATOM     17  C   UNL     1       5.883  -8.185  33.379  0.00  0.00    +0.000 C 
BRANCH  16  18
ATOM     18  O   UNL     1       7.170  -8.296  31.525  0.00  0.00    +0.000 OA
BRANCH  18  19
ATOM     19  C   UNL     1       6.758  -9.167  30.466  0.00  0.00    +0.000 C 
BRANCH  19  22
ATOM     20 CL   UNL     1       9.868 -12.392  33.100  0.00  0.00    +0.000 Cl
ATOM     21 CL   UNL     1       8.332 -14.875  31.664  0.00  0.00    +0.000 Cl
ATOM     22  C   UNL     1       7.142 -10.585  30.798  0.00  0.00    +0.000 A 
ATOM     23  C   UNL     1       8.188 -10.845  31.697  0.00  0.00    +0.000 A 
ATOM     24  C   UNL     1       6.492 -11.660  30.182  0.00  0.00    +0.000 A 
ATOM     25  C   UNL     1       8.572 -12.159  31.984  0.00  0.00    +0.000 A 
ATOM     26  C   UNL     1       6.871 -12.973  30.467  0.00  0.00    +0.000 A 
ATOM     27  C   UNL     1       7.910 -13.225  31.367  0.00  0.00    +0.000 A 
ENDBRANCH  19  22
ENDBRANCH  18  19
ENDBRANCH  16  18
ENDBRANCH   4  17
TORSDOF 5
ENDMDL
