REMARK  Name = 154040927
REMARK  5 active torsions:
REMARK  status: ('A' for Active; 'I' for Inactive)
REMARK    1  A    between atoms: O_4  and  N_7
REMARK    2  A    between atoms: O_4  and  C_24
REMARK    3  A    between atoms: C_8  and  C_9
REMARK    4  A    between atoms: C_10  and  C_20
REMARK    5  A    between atoms: C_24  and  C_25
REMARK                            x       y       z     vdW  Elec       q    Type
REMARK                         _______ _______ _______ _____ _____    ______ ____
ROOT
ATOM      1  S   UNL     1      -8.650  -2.462  -4.349  0.00  0.00    +0.000 S 
ATOM      2  N   UNL     1      -6.588  -0.976  -3.956  0.00  0.00    +0.000 N 
ATOM      3  N   UNL     1      -8.293  -0.179  -2.766  0.00  0.00    +0.000 NA
ATOM      4  C   UNL     1      -7.167   0.608  -2.568  0.00  0.00    +0.000 A 
ATOM      5  C   UNL     1      -6.081   0.138  -3.327  0.00  0.00    +0.000 A 
ATOM      6  C   UNL     1      -7.892  -1.096  -3.592  0.00  0.00    +0.000 A 
ATOM      7  C   UNL     1      -6.142  -1.964  -4.814  0.00  0.00    +0.000 A 
ATOM      8  C   UNL     1      -7.120  -2.817  -5.157  0.00  0.00    +0.000 A 
ENDROOT
BRANCH   4   9
ATOM      9  C   UNL     1      -7.214   1.811  -1.723  0.00  0.00    +0.000 A 
ATOM     10  C   UNL     1      -8.016   1.886  -0.537  0.00  0.00    +0.000 A 
ATOM     11  C   UNL     1      -8.058   3.111   0.182  0.00  0.00    +0.000 A 
ATOM     12  C   UNL     1      -6.502   2.953  -2.143  0.00  0.00    +0.000 A 
ATOM     13  C   UNL     1      -8.790   0.818  -0.005  0.00  0.00    +0.000 A 
ATOM     14  C   UNL     1      -7.314   4.212  -0.261  0.00  0.00    +0.000 A 
ATOM     15  C   UNL     1      -6.538   4.134  -1.411  0.00  0.00    +0.000 A 
ATOM     16  C   UNL     1      -8.858   3.243   1.330  0.00  0.00    +0.000 A 
ATOM     17  C   UNL     1      -9.587   0.965   1.133  0.00  0.00    +0.000 A 
ATOM     18  C   UNL     1      -9.624   2.179   1.799  0.00  0.00    +0.000 A 
ENDBRANCH   4   9
BRANCH   5  20
ATOM     19  N   UNL     1      -3.989   0.681  -4.502  0.00  0.00    +0.000 NA
ATOM     20  C   UNL     1      -4.729   0.628  -3.426  0.00  0.00    +0.000 C 
BRANCH  19  21
ATOM     21  O   UNL     1      -4.731   0.365  -5.646  0.00  0.00    +0.000 OA
BRANCH  21  22
ATOM     22  C   UNL     1      -3.870   0.158  -6.763  0.00  0.00    +0.000 C 
BRANCH  22  25
ATOM     23 CL   UNL     1      -5.436  -1.800 -11.342  0.00  0.00    +0.000 Cl
ATOM     24 CL   UNL     1      -7.155   0.927 -11.778  0.00  0.00    +0.000 Cl
ATOM     25  C   UNL     1      -4.719   0.283  -8.004  0.00  0.00    +0.000 A 
ATOM     26  C   UNL     1      -4.732  -0.711  -8.993  0.00  0.00    +0.000 A 
ATOM     27  C   UNL     1      -5.497   1.436  -8.192  0.00  0.00    +0.000 A 
ATOM     28  C   UNL     1      -5.486  -0.539 -10.161  0.00  0.00    +0.000 A 
ATOM     29  C   UNL     1      -6.251   1.607  -9.352  0.00  0.00    +0.000 A 
ATOM     30  C   UNL     1      -6.238   0.627 -10.346  0.00  0.00    +0.000 A 
ENDBRANCH  22  25
ENDBRANCH  21  22
ENDBRANCH  19  21
ENDBRANCH   5  20
TORSDOF 5
