REMARK  Name = 154040920
REMARK  6 active torsions:
REMARK  status: ('A' for Active; 'I' for Inactive)
REMARK    1  A    between atoms: O_4  and  N_7
REMARK    2  A    between atoms: O_4  and  C_22
REMARK    3  A    between atoms: C_9  and  C_14
REMARK    4  A    between atoms: C_10  and  C_12
REMARK    5  A    between atoms: C_20  and  C_28
REMARK    6  A    between atoms: C_21  and  C_22
REMARK                            x       y       z     vdW  Elec       q    Type
REMARK                         _______ _______ _______ _____ _____    ______ ____
ROOT
ATOM      1  S   UNL     1      -8.698  -2.401  -4.268  0.00  0.00    +0.000 S 
ATOM      2  N   UNL     1      -6.622  -0.920  -3.957  0.00  0.00    +0.000 N 
ATOM      3  N   UNL     1      -8.276  -0.115  -2.690  0.00  0.00    +0.000 NA
ATOM      4  C   UNL     1      -6.083   0.186  -3.344  0.00  0.00    +0.000 A 
ATOM      5  C   UNL     1      -7.139   0.670  -2.561  0.00  0.00    +0.000 A 
ATOM      6  C   UNL     1      -7.917  -1.025  -3.550  0.00  0.00    +0.000 A 
ATOM      7  C   UNL     1      -6.197  -1.927  -4.800  0.00  0.00    +0.000 A 
ATOM      8  C   UNL     1      -7.182  -2.791  -5.093  0.00  0.00    +0.000 A 
ENDROOT
BRANCH   5   9
ATOM      9  C   UNL     1      -7.107   1.823  -1.667  0.00  0.00    +0.000 A 
ATOM     10  C   UNL     1      -7.884   1.815  -0.499  0.00  0.00    +0.000 A 
ATOM     11  C   UNL     1      -6.316   2.949  -1.937  0.00  0.00    +0.000 A 
ATOM     12  C   UNL     1      -7.824   2.878   0.409  0.00  0.00    +0.000 A 
ATOM     13  C   UNL     1      -6.241   4.006  -1.024  0.00  0.00    +0.000 A 
ATOM     14  C   UNL     1      -6.985   3.966   0.157  0.00  0.00    +0.000 A 
BRANCH  14  16
ATOM     15  N   UNL     1      -6.786   5.897   1.871  0.00  0.00    +0.000 NA
ATOM     16  C   UNL     1      -6.884   5.033   1.106  0.00  0.00    +0.000 C 
ENDBRANCH  14  16
ENDBRANCH   5   9
BRANCH   4  18
ATOM     17  N   UNL     1      -3.994   0.704  -4.523  0.00  0.00    +0.000 NA
ATOM     18  C   UNL     1      -4.721   0.638  -3.446  0.00  0.00    +0.000 C 
BRANCH  17  19
ATOM     19  O   UNL     1      -4.747   0.427  -5.670  0.00  0.00    +0.000 OA
BRANCH  19  20
ATOM     20  C   UNL     1      -3.885   0.206  -6.786  0.00  0.00    +0.000 C 
BRANCH  20  23
ATOM     21 CL   UNL     1      -5.488  -1.810 -11.322  0.00  0.00    +0.000 Cl
ATOM     22 CL   UNL     1      -7.192   0.922 -11.793  0.00  0.00    +0.000 Cl
ATOM     23  C   UNL     1      -4.724   0.331  -8.031  0.00  0.00    +0.000 A 
ATOM     24  C   UNL     1      -4.751  -0.679  -9.003  0.00  0.00    +0.000 A 
ATOM     25  C   UNL     1      -5.484   1.492  -8.238  0.00  0.00    +0.000 A 
ATOM     26  C   UNL     1      -5.513  -0.522 -10.168  0.00  0.00    +0.000 A 
ATOM     27  C   UNL     1      -6.245   1.649  -9.396  0.00  0.00    +0.000 A 
ATOM     28  C   UNL     1      -6.255   0.647 -10.369  0.00  0.00    +0.000 A 
ENDBRANCH  20  23
ENDBRANCH  19  20
ENDBRANCH  17  19
ENDBRANCH   4  18
TORSDOF 6
