MODEL 1
REMARK VINA RESULT:      -6.6      0.000      0.000
REMARK  Name = 154040925
REMARK  5 active torsions:
REMARK  status: ('A' for Active; 'I' for Inactive)
REMARK    1  A    between atoms: O_4  and  N_7
REMARK    2  A    between atoms: O_4  and  C_24
REMARK    3  A    between atoms: C_8  and  C_9
REMARK    4  A    between atoms: C_10  and  C_18
REMARK    5  A    between atoms: C_24  and  C_25
REMARK                            x       y       z     vdW  Elec       q    Type
REMARK                         _______ _______ _______ _____ _____    ______ ____
ROOT
ATOM      1  S   UNL     1     -12.182   3.128 -33.192  0.00  0.00    +0.000 S 
ATOM      2  N   UNL     1     -12.767   5.614 -32.888  0.00  0.00    +0.000 N 
ATOM      3  N   UNL     1     -14.646   4.465 -33.249  0.00  0.00    +0.000 NA
ATOM      4  C   UNL     1     -14.919   5.820 -33.126  0.00  0.00    +0.000 A 
ATOM      5  C   UNL     1     -13.760   6.567 -32.891  0.00  0.00    +0.000 A 
ATOM      6  C   UNL     1     -13.352   4.409 -33.137  0.00  0.00    +0.000 A 
ATOM      7  C   UNL     1     -11.400   5.560 -32.690  0.00  0.00    +0.000 A 
ATOM      8  C   UNL     1     -10.918   4.314 -32.845  0.00  0.00    +0.000 A 
ENDROOT
BRANCH   4   9
ATOM      9  C   UNL     1     -16.282   6.318 -33.279  0.00  0.00    +0.000 A 
ATOM     10  C   UNL     1     -17.854   7.799 -34.443  0.00  0.00    +0.000 A 
ATOM     11  C   UNL     1     -16.570   7.239 -34.300  0.00  0.00    +0.000 A 
ATOM     12  C   UNL     1     -18.874   7.420 -33.544  0.00  0.00    +0.000 A 
ATOM     13  C   UNL     1     -17.300   5.962 -32.389  0.00  0.00    +0.000 A 
ATOM     14  C   UNL     1     -18.584   6.500 -32.525  0.00  0.00    +0.000 A 
ATOM     15  C   UNL     1     -18.145   8.738 -35.448  0.00  0.00    +0.000 A 
ATOM     16  C   UNL     1     -20.153   7.987 -33.668  0.00  0.00    +0.000 A 
ATOM     17  C   UNL     1     -19.422   9.296 -35.558  0.00  0.00    +0.000 A 
ATOM     18  C   UNL     1     -20.424   8.920 -34.669  0.00  0.00    +0.000 A 
ENDBRANCH   4   9
BRANCH   5  20
ATOM     19  N   UNL     1     -13.144   8.875 -33.463  0.00  0.00    +0.000 NA
ATOM     20  C   UNL     1     -13.596   7.974 -32.640  0.00  0.00    +0.000 C 
BRANCH  19  21
ATOM     21  O   UNL     1     -12.969   8.354 -34.750  0.00  0.00    +0.000 OA
BRANCH  21  22
ATOM     22  C   UNL     1     -11.777   8.869 -35.342  0.00  0.00    +0.000 C 
BRANCH  22  25
ATOM     23 CL   UNL     1     -11.044   4.204 -37.566  0.00  0.00    +0.000 Cl
ATOM     24 CL   UNL     1      -8.066   4.186 -36.256  0.00  0.00    +0.000 Cl
ATOM     25  C   UNL     1     -10.873   7.695 -35.618  0.00  0.00    +0.000 A 
ATOM     26  C   UNL     1     -11.298   6.604 -36.390  0.00  0.00    +0.000 A 
ATOM     27  C   UNL     1      -9.577   7.679 -35.079  0.00  0.00    +0.000 A 
ATOM     28  C   UNL     1     -10.445   5.513 -36.607  0.00  0.00    +0.000 A 
ATOM     29  C   UNL     1      -8.727   6.596 -35.297  0.00  0.00    +0.000 A 
ATOM     30  C   UNL     1      -9.160   5.506 -36.054  0.00  0.00    +0.000 A 
ENDBRANCH  22  25
ENDBRANCH  21  22
ENDBRANCH  19  21
ENDBRANCH   5  20
TORSDOF 5
ENDMDL
MODEL 2
REMARK VINA RESULT:      -6.6     21.562     23.638
REMARK  Name = 154040925
REMARK  5 active torsions:
REMARK  status: ('A' for Active; 'I' for Inactive)
REMARK    1  A    between atoms: O_4  and  N_7
REMARK    2  A    between atoms: O_4  and  C_24
REMARK    3  A    between atoms: C_8  and  C_9
REMARK    4  A    between atoms: C_10  and  C_18
REMARK    5  A    between atoms: C_24  and  C_25
REMARK                            x       y       z     vdW  Elec       q    Type
REMARK                         _______ _______ _______ _____ _____    ______ ____
ROOT
ATOM      1  S   UNL     1     -26.167   6.637 -59.174  0.00  0.00    +0.000 S 
ATOM      2  N   UNL     1     -24.770   5.042 -57.718  0.00  0.00    +0.000 N 
ATOM      3  N   UNL     1     -25.046   6.968 -56.624  0.00  0.00    +0.000 NA
ATOM      4  C   UNL     1     -24.256   6.099 -55.887  0.00  0.00    +0.000 A 
ATOM      5  C   UNL     1     -24.070   4.877 -56.543  0.00  0.00    +0.000 A 
ATOM      6  C   UNL     1     -25.288   6.302 -57.714  0.00  0.00    +0.000 A 
ATOM      7  C   UNL     1     -25.083   4.294 -58.836  0.00  0.00    +0.000 A 
ATOM      8  C   UNL     1     -25.799   5.000 -59.729  0.00  0.00    +0.000 A 
ENDROOT
BRANCH   4   9
ATOM      9  C   UNL     1     -23.696   6.513 -54.605  0.00  0.00    +0.000 A 
ATOM     10  C   UNL     1     -23.799   6.446 -52.154  0.00  0.00    +0.000 A 
ATOM     11  C   UNL     1     -24.260   6.021 -53.415  0.00  0.00    +0.000 A 
ATOM     12  C   UNL     1     -22.743   7.380 -52.086  0.00  0.00    +0.000 A 
ATOM     13  C   UNL     1     -22.659   7.447 -54.521  0.00  0.00    +0.000 A 
ATOM     14  C   UNL     1     -22.182   7.869 -53.276  0.00  0.00    +0.000 A 
ATOM     15  C   UNL     1     -24.372   5.977 -50.959  0.00  0.00    +0.000 A 
ATOM     16  C   UNL     1     -22.289   7.823 -50.833  0.00  0.00    +0.000 A 
ATOM     17  C   UNL     1     -23.912   6.427 -49.719  0.00  0.00    +0.000 A 
ATOM     18  C   UNL     1     -22.871   7.349 -49.657  0.00  0.00    +0.000 A 
ENDBRANCH   4   9
BRANCH   5  20
ATOM     19  N   UNL     1     -22.175   3.320 -56.418  0.00  0.00    +0.000 NA
ATOM     20  C   UNL     1     -23.386   3.687 -56.115  0.00  0.00    +0.000 C 
BRANCH  19  21
ATOM     21  O   UNL     1     -21.492   4.326 -57.112  0.00  0.00    +0.000 OA
BRANCH  21  22
ATOM     22  C   UNL     1     -20.367   4.779 -56.358  0.00  0.00    +0.000 C 
BRANCH  22  25
ATOM     23 CL   UNL     1     -21.496   8.890 -59.370  0.00  0.00    +0.000 Cl
ATOM     24 CL   UNL     1     -19.388  10.616 -57.592  0.00  0.00    +0.000 Cl
ATOM     25  C   UNL     1     -20.173   6.239 -56.682  0.00  0.00    +0.000 A 
ATOM     26  C   UNL     1     -20.850   6.853 -57.745  0.00  0.00    +0.000 A 
ATOM     27  C   UNL     1     -19.285   7.004 -55.911  0.00  0.00    +0.000 A 
ATOM     28  C   UNL     1     -20.629   8.206 -58.039  0.00  0.00    +0.000 A 
ATOM     29  C   UNL     1     -19.067   8.351 -56.201  0.00  0.00    +0.000 A 
ATOM     30  C   UNL     1     -19.731   8.954 -57.270  0.00  0.00    +0.000 A 
ENDBRANCH  22  25
ENDBRANCH  21  22
ENDBRANCH  19  21
ENDBRANCH   5  20
TORSDOF 5
ENDMDL
MODEL 3
REMARK VINA RESULT:      -6.4     21.660     23.756
REMARK  Name = 154040925
REMARK  5 active torsions:
REMARK  status: ('A' for Active; 'I' for Inactive)
REMARK    1  A    between atoms: O_4  and  N_7
REMARK    2  A    between atoms: O_4  and  C_24
REMARK    3  A    between atoms: C_8  and  C_9
REMARK    4  A    between atoms: C_10  and  C_18
REMARK    5  A    between atoms: C_24  and  C_25
REMARK                            x       y       z     vdW  Elec       q    Type
REMARK                         _______ _______ _______ _____ _____    ______ ____
ROOT
ATOM      1  S   UNL     1     -22.143  10.784 -58.991  0.00  0.00    +0.000 S 
ATOM      2  N   UNL     1     -20.741   9.264 -57.461  0.00  0.00    +0.000 N 
ATOM      3  N   UNL     1     -22.858   9.251 -56.754  0.00  0.00    +0.000 NA
ATOM      4  C   UNL     1     -22.062   8.477 -55.922  0.00  0.00    +0.000 A 
ATOM      5  C   UNL     1     -20.729   8.458 -56.345  0.00  0.00    +0.000 A 
ATOM      6  C   UNL     1     -22.014   9.721 -57.623  0.00  0.00    +0.000 A 
ATOM      7  C   UNL     1     -19.848   9.694 -58.424  0.00  0.00    +0.000 A 
ATOM      8  C   UNL     1     -20.421  10.536 -59.302  0.00  0.00    +0.000 A 
ENDROOT
BRANCH   4   9
ATOM      9  C   UNL     1     -22.631   7.828 -54.746  0.00  0.00    +0.000 A 
ATOM     10  C   UNL     1     -22.705   7.608 -52.304  0.00  0.00    +0.000 A 
ATOM     11  C   UNL     1     -22.235   8.250 -53.466  0.00  0.00    +0.000 A 
ATOM     12  C   UNL     1     -23.597   6.522 -52.429  0.00  0.00    +0.000 A 
ATOM     13  C   UNL     1     -23.507   6.743 -54.855  0.00  0.00    +0.000 A 
ATOM     14  C   UNL     1     -23.992   6.103 -53.710  0.00  0.00    +0.000 A 
ATOM     15  C   UNL     1     -22.296   8.008 -51.019  0.00  0.00    +0.000 A 
ATOM     16  C   UNL     1     -24.056   5.865 -51.277  0.00  0.00    +0.000 A 
ATOM     17  C   UNL     1     -22.759   7.344 -49.881  0.00  0.00    +0.000 A 
ATOM     18  C   UNL     1     -23.639   6.274 -50.010  0.00  0.00    +0.000 A 
ENDBRANCH   4   9
BRANCH   5  20
ATOM     19  N   UNL     1     -19.360   6.463 -55.919  0.00  0.00    +0.000 NA
ATOM     20  C   UNL     1     -19.598   7.740 -55.821  0.00  0.00    +0.000 C 
BRANCH  19  21
ATOM     21  O   UNL     1     -20.276   5.834 -56.769  0.00  0.00    +0.000 OA
BRANCH  21  22
ATOM     22  C   UNL     1     -20.736   4.612 -56.193  0.00  0.00    +0.000 C 
BRANCH  22  25
ATOM     23 CL   UNL     1     -24.915   1.538 -56.775  0.00  0.00    +0.000 Cl
ATOM     24 CL   UNL     1     -25.113   2.597 -59.845  0.00  0.00    +0.000 Cl
ATOM     25  C   UNL     1     -21.860   4.105 -57.062  0.00  0.00    +0.000 A 
ATOM     26  C   UNL     1     -22.791   3.169 -56.590  0.00  0.00    +0.000 A 
ATOM     27  C   UNL     1     -21.974   4.568 -58.382  0.00  0.00    +0.000 A 
ATOM     28  C   UNL     1     -23.809   2.696 -57.429  0.00  0.00    +0.000 A 
ATOM     29  C   UNL     1     -22.988   4.100 -59.217  0.00  0.00    +0.000 A 
ATOM     30  C   UNL     1     -23.903   3.156 -58.747  0.00  0.00    +0.000 A 
ENDBRANCH  22  25
ENDBRANCH  21  22
ENDBRANCH  19  21
ENDBRANCH   5  20
TORSDOF 5
ENDMDL
MODEL 4
REMARK VINA RESULT:      -6.1     22.043     24.259
REMARK  Name = 154040925
REMARK  5 active torsions:
REMARK  status: ('A' for Active; 'I' for Inactive)
REMARK    1  A    between atoms: O_4  and  N_7
REMARK    2  A    between atoms: O_4  and  C_24
REMARK    3  A    between atoms: C_8  and  C_9
REMARK    4  A    between atoms: C_10  and  C_18
REMARK    5  A    between atoms: C_24  and  C_25
REMARK                            x       y       z     vdW  Elec       q    Type
REMARK                         _______ _______ _______ _____ _____    ______ ____
ROOT
ATOM      1  S   UNL     1     -26.365   6.653 -51.256  0.00  0.00    +0.000 S 
ATOM      2  N   UNL     1     -26.063   5.424 -53.495  0.00  0.00    +0.000 N 
ATOM      3  N   UNL     1     -24.132   6.392 -52.933  0.00  0.00    +0.000 NA
ATOM      4  C   UNL     1     -24.019   5.757 -54.161  0.00  0.00    +0.000 A 
ATOM      5  C   UNL     1     -25.212   5.133 -54.538  0.00  0.00    +0.000 A 
ATOM      6  C   UNL     1     -25.374   6.193 -52.606  0.00  0.00    +0.000 A 
ATOM      7  C   UNL     1     -27.363   5.139 -53.124  0.00  0.00    +0.000 A 
ATOM      8  C   UNL     1     -27.699   5.740 -51.968  0.00  0.00    +0.000 A 
ENDROOT
BRANCH   4   9
ATOM      9  C   UNL     1     -22.772   5.820 -54.916  0.00  0.00    +0.000 A 
ATOM     10  C   UNL     1     -20.749   7.070 -55.518  0.00  0.00    +0.000 A 
ATOM     11  C   UNL     1     -21.927   6.932 -54.760  0.00  0.00    +0.000 A 
ATOM     12  C   UNL     1     -20.406   6.066 -56.448  0.00  0.00    +0.000 A 
ATOM     13  C   UNL     1     -22.425   4.839 -55.850  0.00  0.00    +0.000 A 
ATOM     14  C   UNL     1     -21.251   4.956 -56.601  0.00  0.00    +0.000 A 
ATOM     15  C   UNL     1     -19.909   8.191 -55.386  0.00  0.00    +0.000 A 
ATOM     16  C   UNL     1     -19.242   6.204 -57.221  0.00  0.00    +0.000 A 
ATOM     17  C   UNL     1     -18.755   8.317 -56.162  0.00  0.00    +0.000 A 
ATOM     18  C   UNL     1     -18.422   7.324 -57.078  0.00  0.00    +0.000 A 
ENDBRANCH   4   9
BRANCH   5  20
ATOM     19  N   UNL     1     -25.726   4.722 -56.905  0.00  0.00    +0.000 NA
ATOM     20  C   UNL     1     -25.514   4.319 -55.685  0.00  0.00    +0.000 C 
BRANCH  19  21
ATOM     21  O   UNL     1     -25.461   6.089 -57.048  0.00  0.00    +0.000 OA
BRANCH  21  22
ATOM     22  C   UNL     1     -25.072   6.386 -58.389  0.00  0.00    +0.000 C 
BRANCH  22  25
ATOM     23 CL   UNL     1     -22.978  10.611 -56.150  0.00  0.00    +0.000 Cl
ATOM     24 CL   UNL     1     -20.546  10.393 -58.301  0.00  0.00    +0.000 Cl
ATOM     25  C   UNL     1     -23.948   7.389 -58.314  0.00  0.00    +0.000 A 
ATOM     26  C   UNL     1     -23.948   8.425 -57.369  0.00  0.00    +0.000 A 
ATOM     27  C   UNL     1     -22.880   7.297 -59.219  0.00  0.00    +0.000 A 
ATOM     28  C   UNL     1     -22.903   9.359 -57.341  0.00  0.00    +0.000 A 
ATOM     29  C   UNL     1     -21.839   8.224 -59.191  0.00  0.00    +0.000 A 
ATOM     30  C   UNL     1     -21.851   9.263 -58.258  0.00  0.00    +0.000 A 
ENDBRANCH  22  25
ENDBRANCH  21  22
ENDBRANCH  19  21
ENDBRANCH   5  20
TORSDOF 5
ENDMDL
MODEL 5
REMARK VINA RESULT:      -6.0     23.450     24.915
REMARK  Name = 154040925
REMARK  5 active torsions:
REMARK  status: ('A' for Active; 'I' for Inactive)
REMARK    1  A    between atoms: O_4  and  N_7
REMARK    2  A    between atoms: O_4  and  C_24
REMARK    3  A    between atoms: C_8  and  C_9
REMARK    4  A    between atoms: C_10  and  C_18
REMARK    5  A    between atoms: C_24  and  C_25
REMARK                            x       y       z     vdW  Elec       q    Type
REMARK                         _______ _______ _______ _____ _____    ______ ____
ROOT
ATOM      1  S   UNL     1     -10.738  17.794 -54.322  0.00  0.00    +0.000 S 
ATOM      2  N   UNL     1      -9.563  15.558 -54.810  0.00  0.00    +0.000 N 
ATOM      3  N   UNL     1     -11.614  15.506 -55.688  0.00  0.00    +0.000 NA
ATOM      4  C   UNL     1     -10.966  14.296 -55.892  0.00  0.00    +0.000 A 
ATOM      5  C   UNL     1      -9.673  14.300 -55.359  0.00  0.00    +0.000 A 
ATOM      6  C   UNL     1     -10.748  16.199 -55.010  0.00  0.00    +0.000 A 
ATOM      7  C   UNL     1      -8.605  16.310 -54.157  0.00  0.00    +0.000 A 
ATOM      8  C   UNL     1      -9.072  17.519 -53.798  0.00  0.00    +0.000 A 
ENDROOT
BRANCH   4   9
ATOM      9  C   UNL     1     -11.649  13.194 -56.561  0.00  0.00    +0.000 A 
ATOM     10  C   UNL     1     -13.517  12.421 -57.950  0.00  0.00    +0.000 A 
ATOM     11  C   UNL     1     -12.785  13.460 -57.343  0.00  0.00    +0.000 A 
ATOM     12  C   UNL     1     -13.094  11.086 -57.775  0.00  0.00    +0.000 A 
ATOM     13  C   UNL     1     -11.249  11.865 -56.386  0.00  0.00    +0.000 A 
ATOM     14  C   UNL     1     -11.958  10.824 -56.993  0.00  0.00    +0.000 A 
ATOM     15  C   UNL     1     -14.669  12.676 -58.716  0.00  0.00    +0.000 A 
ATOM     16  C   UNL     1     -13.828  10.043 -58.362  0.00  0.00    +0.000 A 
ATOM     17  C   UNL     1     -15.391  11.628 -59.293  0.00  0.00    +0.000 A 
ATOM     18  C   UNL     1     -14.970  10.314 -59.116  0.00  0.00    +0.000 A 
ENDBRANCH   4   9
BRANCH   5  20
ATOM     19  N   UNL     1      -7.934  12.938 -56.435  0.00  0.00    +0.000 NA
ATOM     20  C   UNL     1      -8.646  13.294 -55.404  0.00  0.00    +0.000 C 
BRANCH  19  21
ATOM     21  O   UNL     1      -8.156  13.782 -57.528  0.00  0.00    +0.000 OA
BRANCH  21  22
ATOM     22  C   UNL     1      -8.104  13.045 -58.749  0.00  0.00    +0.000 C 
BRANCH  22  25
ATOM     23 CL   UNL     1     -12.174  11.167 -61.423  0.00  0.00    +0.000 Cl
ATOM     24 CL   UNL     1     -13.231  14.230 -61.726  0.00  0.00    +0.000 Cl
ATOM     25  C   UNL     1      -9.402  13.294 -59.475  0.00  0.00    +0.000 A 
ATOM     26  C   UNL     1     -10.138  12.246 -60.048  0.00  0.00    +0.000 A 
ATOM     27  C   UNL     1      -9.884  14.606 -59.596  0.00  0.00    +0.000 A 
ATOM     28  C   UNL     1     -11.328  12.511 -60.740  0.00  0.00    +0.000 A 
ATOM     29  C   UNL     1     -11.069  14.871 -60.282  0.00  0.00    +0.000 A 
ATOM     30  C   UNL     1     -11.790  13.826 -60.864  0.00  0.00    +0.000 A 
ENDBRANCH  22  25
ENDBRANCH  21  22
ENDBRANCH  19  21
ENDBRANCH   5  20
TORSDOF 5
ENDMDL
MODEL 6
REMARK VINA RESULT:      -5.9     20.996     23.462
REMARK  Name = 154040925
REMARK  5 active torsions:
REMARK  status: ('A' for Active; 'I' for Inactive)
REMARK    1  A    between atoms: O_4  and  N_7
REMARK    2  A    between atoms: O_4  and  C_24
REMARK    3  A    between atoms: C_8  and  C_9
REMARK    4  A    between atoms: C_10  and  C_18
REMARK    5  A    between atoms: C_24  and  C_25
REMARK                            x       y       z     vdW  Elec       q    Type
REMARK                         _______ _______ _______ _____ _____    ______ ____
ROOT
ATOM      1  S   UNL     1     -25.206   6.825 -49.536  0.00  0.00    +0.000 S 
ATOM      2  N   UNL     1     -24.381   8.549 -51.258  0.00  0.00    +0.000 N 
ATOM      3  N   UNL     1     -23.774   6.508 -51.927  0.00  0.00    +0.000 NA
ATOM      4  C   UNL     1     -23.304   7.471 -52.810  0.00  0.00    +0.000 A 
ATOM      5  C   UNL     1     -23.676   8.762 -52.421  0.00  0.00    +0.000 A 
ATOM      6  C   UNL     1     -24.370   7.210 -51.010  0.00  0.00    +0.000 A 
ATOM      7  C   UNL     1     -25.078   9.301 -50.331  0.00  0.00    +0.000 A 
ATOM      8  C   UNL     1     -25.560   8.544 -49.329  0.00  0.00    +0.000 A 
ENDROOT
BRANCH   4   9
ATOM      9  C   UNL     1     -22.493   7.087 -53.960  0.00  0.00    +0.000 A 
ATOM     10  C   UNL     1     -20.517   7.489 -55.357  0.00  0.00    +0.000 A 
ATOM     11  C   UNL     1     -21.297   7.777 -54.221  0.00  0.00    +0.000 A 
ATOM     12  C   UNL     1     -20.942   6.480 -56.248  0.00  0.00    +0.000 A 
ATOM     13  C   UNL     1     -22.908   6.099 -54.858  0.00  0.00    +0.000 A 
ATOM     14  C   UNL     1     -22.137   5.792 -55.984  0.00  0.00    +0.000 A 
ATOM     15  C   UNL     1     -19.331   8.190 -55.639  0.00  0.00    +0.000 A 
ATOM     16  C   UNL     1     -20.180   6.199 -57.392  0.00  0.00    +0.000 A 
ATOM     17  C   UNL     1     -18.582   7.901 -56.783  0.00  0.00    +0.000 A 
ATOM     18  C   UNL     1     -19.007   6.906 -57.658  0.00  0.00    +0.000 A 
ENDBRANCH   4   9
BRANCH   5  20
ATOM     19  N   UNL     1     -23.954  10.421 -54.211  0.00  0.00    +0.000 NA
ATOM     20  C   UNL     1     -23.461  10.026 -53.072  0.00  0.00    +0.000 C 
BRANCH  19  21
ATOM     21  O   UNL     1     -24.899   9.515 -54.704  0.00  0.00    +0.000 OA
BRANCH  21  22
ATOM     22  C   UNL     1     -25.354   9.918 -55.995  0.00  0.00    +0.000 C 
BRANCH  22  25
ATOM     23 CL   UNL     1     -25.794   5.267 -58.324  0.00  0.00    +0.000 Cl
ATOM     24 CL   UNL     1     -23.042   5.946 -59.923  0.00  0.00    +0.000 Cl
ATOM     25  C   UNL     1     -24.826   8.912 -56.987  0.00  0.00    +0.000 A 
ATOM     26  C   UNL     1     -25.472   7.686 -57.206  0.00  0.00    +0.000 A 
ATOM     27  C   UNL     1     -23.653   9.197 -57.702  0.00  0.00    +0.000 A 
ATOM     28  C   UNL     1     -24.943   6.758 -58.114  0.00  0.00    +0.000 A 
ATOM     29  C   UNL     1     -23.128   8.276 -58.608  0.00  0.00    +0.000 A 
ATOM     30  C   UNL     1     -23.765   7.051 -58.811  0.00  0.00    +0.000 A 
ENDBRANCH  22  25
ENDBRANCH  21  22
ENDBRANCH  19  21
ENDBRANCH   5  20
TORSDOF 5
ENDMDL
MODEL 7
REMARK VINA RESULT:      -5.9      2.885      4.852
REMARK  Name = 154040925
REMARK  5 active torsions:
REMARK  status: ('A' for Active; 'I' for Inactive)
REMARK    1  A    between atoms: O_4  and  N_7
REMARK    2  A    between atoms: O_4  and  C_24
REMARK    3  A    between atoms: C_8  and  C_9
REMARK    4  A    between atoms: C_10  and  C_18
REMARK    5  A    between atoms: C_24  and  C_25
REMARK                            x       y       z     vdW  Elec       q    Type
REMARK                         _______ _______ _______ _____ _____    ______ ____
ROOT
ATOM      1  S   UNL     1     -11.776   6.659 -35.886  0.00  0.00    +0.000 S 
ATOM      2  N   UNL     1     -13.024   7.832 -33.967  0.00  0.00    +0.000 N 
ATOM      3  N   UNL     1     -14.502   7.209 -35.518  0.00  0.00    +0.000 NA
ATOM      4  C   UNL     1     -15.135   7.888 -34.487  0.00  0.00    +0.000 A 
ATOM      5  C   UNL     1     -14.235   8.286 -33.493  0.00  0.00    +0.000 A 
ATOM      6  C   UNL     1     -13.249   7.241 -35.173  0.00  0.00    +0.000 A 
ATOM      7  C   UNL     1     -11.706   7.806 -33.550  0.00  0.00    +0.000 A 
ATOM      8  C   UNL     1     -10.900   7.242 -34.466  0.00  0.00    +0.000 A 
ENDROOT
BRANCH   4   9
ATOM      9  C   UNL     1     -16.571   8.144 -34.541  0.00  0.00    +0.000 A 
ATOM     10  C   UNL     1     -18.835   7.539 -33.815  0.00  0.00    +0.000 A 
ATOM     11  C   UNL     1     -17.438   7.376 -33.746  0.00  0.00    +0.000 A 
ATOM     12  C   UNL     1     -19.373   8.500 -34.697  0.00  0.00    +0.000 A 
ATOM     13  C   UNL     1     -17.119   9.084 -35.418  0.00  0.00    +0.000 A 
ATOM     14  C   UNL     1     -18.504   9.267 -35.489  0.00  0.00    +0.000 A 
ATOM     15  C   UNL     1     -19.711   6.759 -33.040  0.00  0.00    +0.000 A 
ATOM     16  C   UNL     1     -20.765   8.658 -34.785  0.00  0.00    +0.000 A 
ATOM     17  C   UNL     1     -21.095   6.925 -33.139  0.00  0.00    +0.000 A 
ATOM     18  C   UNL     1     -21.621   7.873 -34.011  0.00  0.00    +0.000 A 
ENDBRANCH   4   9
BRANCH   5  20
ATOM     19  N   UNL     1     -14.645   8.389 -31.073  0.00  0.00    +0.000 NA
ATOM     20  C   UNL     1     -14.469   8.946 -32.237  0.00  0.00    +0.000 C 
BRANCH  19  21
ATOM     21  O   UNL     1     -14.411   7.010 -31.124  0.00  0.00    +0.000 OA
BRANCH  21  22
ATOM     22  C   UNL     1     -15.556   6.291 -30.666  0.00  0.00    +0.000 C 
BRANCH  22  25
ATOM     23 CL   UNL     1     -18.648   2.727 -32.899  0.00  0.00    +0.000 Cl
ATOM     24 CL   UNL     1     -15.970   1.369 -34.152  0.00  0.00    +0.000 Cl
ATOM     25  C   UNL     1     -15.706   5.081 -31.553  0.00  0.00    +0.000 A 
ATOM     26  C   UNL     1     -16.961   4.513 -31.817  0.00  0.00    +0.000 A 
ATOM     27  C   UNL     1     -14.564   4.495 -32.120  0.00  0.00    +0.000 A 
ATOM     28  C   UNL     1     -17.066   3.371 -32.624  0.00  0.00    +0.000 A 
ATOM     29  C   UNL     1     -14.668   3.361 -32.925  0.00  0.00    +0.000 A 
ATOM     30  C   UNL     1     -15.918   2.790 -33.173  0.00  0.00    +0.000 A 
ENDBRANCH  22  25
ENDBRANCH  21  22
ENDBRANCH  19  21
ENDBRANCH   5  20
TORSDOF 5
ENDMDL
MODEL 8
REMARK VINA RESULT:      -5.9     22.461     24.499
REMARK  Name = 154040925
REMARK  5 active torsions:
REMARK  status: ('A' for Active; 'I' for Inactive)
REMARK    1  A    between atoms: O_4  and  N_7
REMARK    2  A    between atoms: O_4  and  C_24
REMARK    3  A    between atoms: C_8  and  C_9
REMARK    4  A    between atoms: C_10  and  C_18
REMARK    5  A    between atoms: C_24  and  C_25
REMARK                            x       y       z     vdW  Elec       q    Type
REMARK                         _______ _______ _______ _____ _____    ______ ____
ROOT
ATOM      1  S   UNL     1      -5.504  14.909 -56.546  0.00  0.00    +0.000 S 
ATOM      2  N   UNL     1      -7.490  14.358 -55.007  0.00  0.00    +0.000 N 
ATOM      3  N   UNL     1      -7.820  13.391 -56.992  0.00  0.00    +0.000 NA
ATOM      4  C   UNL     1      -8.897  13.153 -56.149  0.00  0.00    +0.000 A 
ATOM      5  C   UNL     1      -8.716  13.741 -54.893  0.00  0.00    +0.000 A 
ATOM      6  C   UNL     1      -7.038  14.141 -56.274  0.00  0.00    +0.000 A 
ATOM      7  C   UNL     1      -6.633  15.089 -54.207  0.00  0.00    +0.000 A 
ATOM      8  C   UNL     1      -5.538  15.489 -54.877  0.00  0.00    +0.000 A 
ENDROOT
BRANCH   4   9
ATOM      9  C   UNL     1     -10.054  12.400 -56.621  0.00  0.00    +0.000 A 
ATOM     10  C   UNL     1     -11.462  11.679 -58.495  0.00  0.00    +0.000 A 
ATOM     11  C   UNL     1     -10.320  12.335 -57.999  0.00  0.00    +0.000 A 
ATOM     12  C   UNL     1     -12.355  11.068 -57.589  0.00  0.00    +0.000 A 
ATOM     13  C   UNL     1     -10.954  11.801 -55.734  0.00  0.00    +0.000 A 
ATOM     14  C   UNL     1     -12.086  11.134 -56.212  0.00  0.00    +0.000 A 
ATOM     15  C   UNL     1     -11.749  11.629 -59.871  0.00  0.00    +0.000 A 
ATOM     16  C   UNL     1     -13.505  10.427 -58.074  0.00  0.00    +0.000 A 
ATOM     17  C   UNL     1     -12.899  10.989 -60.340  0.00  0.00    +0.000 A 
ATOM     18  C   UNL     1     -13.776  10.389 -59.442  0.00  0.00    +0.000 A 
ENDBRANCH   4   9
BRANCH   5  20
ATOM     19  N   UNL     1     -10.494  14.509 -53.382  0.00  0.00    +0.000 NA
ATOM     20  C   UNL     1      -9.540  13.688 -53.715  0.00  0.00    +0.000 C 
BRANCH  19  21
ATOM     21  O   UNL     1     -10.776  15.413 -54.413  0.00  0.00    +0.000 OA
BRANCH  21  22
ATOM     22  C   UNL     1     -12.145  15.313 -54.805  0.00  0.00    +0.000 C 
BRANCH  22  25
ATOM     23 CL   UNL     1      -9.937  16.652 -59.342  0.00  0.00    +0.000 Cl
ATOM     24 CL   UNL     1     -12.478  15.282 -60.842  0.00  0.00    +0.000 Cl
ATOM     25  C   UNL     1     -12.175  15.302 -56.313  0.00  0.00    +0.000 A 
ATOM     26  C   UNL     1     -11.158  15.896 -57.074  0.00  0.00    +0.000 A 
ATOM     27  C   UNL     1     -13.253  14.696 -56.977  0.00  0.00    +0.000 A 
ATOM     28  C   UNL     1     -11.227  15.894 -58.474  0.00  0.00    +0.000 A 
ATOM     29  C   UNL     1     -13.321  14.691 -58.370  0.00  0.00    +0.000 A 
ATOM     30  C   UNL     1     -12.313  15.297 -59.123  0.00  0.00    +0.000 A 
ENDBRANCH  22  25
ENDBRANCH  21  22
ENDBRANCH  19  21
ENDBRANCH   5  20
TORSDOF 5
ENDMDL
MODEL 9
REMARK VINA RESULT:      -5.8      9.305     12.313
REMARK  Name = 154040925
REMARK  5 active torsions:
REMARK  status: ('A' for Active; 'I' for Inactive)
REMARK    1  A    between atoms: O_4  and  N_7
REMARK    2  A    between atoms: O_4  and  C_24
REMARK    3  A    between atoms: C_8  and  C_9
REMARK    4  A    between atoms: C_10  and  C_18
REMARK    5  A    between atoms: C_24  and  C_25
REMARK                            x       y       z     vdW  Elec       q    Type
REMARK                         _______ _______ _______ _____ _____    ______ ____
ROOT
ATOM      1  S   UNL     1     -11.312   5.957 -27.837  0.00  0.00    +0.000 S 
ATOM      2  N   UNL     1      -9.489   6.181 -26.036  0.00  0.00    +0.000 N 
ATOM      3  N   UNL     1      -8.870   7.337 -27.843  0.00  0.00    +0.000 NA
ATOM      4  C   UNL     1      -7.886   7.397 -26.865  0.00  0.00    +0.000 A 
ATOM      5  C   UNL     1      -8.249   6.688 -25.715  0.00  0.00    +0.000 A 
ATOM      6  C   UNL     1      -9.776   6.573 -27.309  0.00  0.00    +0.000 A 
ATOM      7  C   UNL     1     -10.477   5.432 -25.428  0.00  0.00    +0.000 A 
ATOM      8  C   UNL     1     -11.510   5.193 -26.256  0.00  0.00    +0.000 A 
ENDROOT
BRANCH   4   9
ATOM      9  C   UNL     1      -6.638   8.109 -27.114  0.00  0.00    +0.000 A 
ATOM     10  C   UNL     1      -5.310   9.561 -28.579  0.00  0.00    +0.000 A 
ATOM     11  C   UNL     1      -6.517   8.911 -28.262  0.00  0.00    +0.000 A 
ATOM     12  C   UNL     1      -4.199   9.409 -27.722  0.00  0.00    +0.000 A 
ATOM     13  C   UNL     1      -5.525   7.958 -26.280  0.00  0.00    +0.000 A 
ATOM     14  C   UNL     1      -4.322   8.608 -26.575  0.00  0.00    +0.000 A 
ATOM     15  C   UNL     1      -5.173  10.346 -29.738  0.00  0.00    +0.000 A 
ATOM     16  C   UNL     1      -2.986  10.039 -28.040  0.00  0.00    +0.000 A 
ATOM     17  C   UNL     1      -3.959  10.966 -30.043  0.00  0.00    +0.000 A 
ATOM     18  C   UNL     1      -2.867  10.813 -29.195  0.00  0.00    +0.000 A 
ENDBRANCH   4   9
BRANCH   5  20
ATOM     19  N   UNL     1      -7.516   7.409 -23.484  0.00  0.00    +0.000 NA
ATOM     20  C   UNL     1      -7.567   6.545 -24.457  0.00  0.00    +0.000 C 
BRANCH  19  21
ATOM     21  O   UNL     1      -8.371   8.493 -23.716  0.00  0.00    +0.000 OA
BRANCH  21  22
ATOM     22  C   UNL     1      -7.858   9.675 -23.101  0.00  0.00    +0.000 C 
BRANCH  22  25
ATOM     23 CL   UNL     1      -8.593  12.113 -27.658  0.00  0.00    +0.000 Cl
ATOM     24 CL   UNL     1      -5.495  13.096 -27.490  0.00  0.00    +0.000 Cl
ATOM     25  C   UNL     1      -7.316  10.550 -24.203  0.00  0.00    +0.000 A 
ATOM     26  C   UNL     1      -8.102  10.916 -25.306  0.00  0.00    +0.000 A 
ATOM     27  C   UNL     1      -5.989  11.002 -24.136  0.00  0.00    +0.000 A 
ATOM     28  C   UNL     1      -7.562  11.709 -26.329  0.00  0.00    +0.000 A 
ATOM     29  C   UNL     1      -5.453  11.793 -25.152  0.00  0.00    +0.000 A 
ATOM     30  C   UNL     1      -6.234  12.142 -26.255  0.00  0.00    +0.000 A 
ENDBRANCH  22  25
ENDBRANCH  21  22
ENDBRANCH  19  21
ENDBRANCH   5  20
TORSDOF 5
ENDMDL
MODEL 10
REMARK VINA RESULT:      -5.8     15.114     16.966
REMARK  Name = 154040925
REMARK  5 active torsions:
REMARK  status: ('A' for Active; 'I' for Inactive)
REMARK    1  A    between atoms: O_4  and  N_7
REMARK    2  A    between atoms: O_4  and  C_24
REMARK    3  A    between atoms: C_8  and  C_9
REMARK    4  A    between atoms: C_10  and  C_18
REMARK    5  A    between atoms: C_24  and  C_25
REMARK                            x       y       z     vdW  Elec       q    Type
REMARK                         _______ _______ _______ _____ _____    ______ ____
ROOT
ATOM      1  S   UNL     1      -7.771  19.490 -47.935  0.00  0.00    +0.000 S 
ATOM      2  N   UNL     1      -8.839  18.594 -45.774  0.00  0.00    +0.000 N 
ATOM      3  N   UNL     1     -10.064  17.929 -47.518  0.00  0.00    +0.000 NA
ATOM      4  C   UNL     1     -10.638  17.502 -46.329  0.00  0.00    +0.000 A 
ATOM      5  C   UNL     1      -9.888  17.897 -45.216  0.00  0.00    +0.000 A 
ATOM      6  C   UNL     1      -9.024  18.602 -47.123  0.00  0.00    +0.000 A 
ATOM      7  C   UNL     1      -7.695  19.239 -45.345  0.00  0.00    +0.000 A 
ATOM      8  C   UNL     1      -7.022  19.800 -46.365  0.00  0.00    +0.000 A 
ENDROOT
BRANCH   4   9
ATOM      9  C   UNL     1     -11.897  16.767 -46.337  0.00  0.00    +0.000 A 
ATOM     10  C   UNL     1     -13.970  16.173 -47.508  0.00  0.00    +0.000 A 
ATOM     11  C   UNL     1     -12.714  16.810 -47.479  0.00  0.00    +0.000 A 
ATOM     12  C   UNL     1     -14.412  15.471 -46.367  0.00  0.00    +0.000 A 
ATOM     13  C   UNL     1     -12.355  16.077 -45.210  0.00  0.00    +0.000 A 
ATOM     14  C   UNL     1     -13.594  15.428 -45.227  0.00  0.00    +0.000 A 
ATOM     15  C   UNL     1     -14.804  16.231 -48.638  0.00  0.00    +0.000 A 
ATOM     16  C   UNL     1     -15.670  14.848 -46.380  0.00  0.00    +0.000 A 
ATOM     17  C   UNL     1     -16.054  15.608 -48.638  0.00  0.00    +0.000 A 
ATOM     18  C   UNL     1     -16.486  14.917 -47.510  0.00  0.00    +0.000 A 
ENDBRANCH   4   9
BRANCH   5  20
ATOM     19  N   UNL     1     -10.882  18.224 -42.993  0.00  0.00    +0.000 NA
ATOM     20  C   UNL     1     -10.080  17.615 -43.818  0.00  0.00    +0.000 C 
BRANCH  19  21
ATOM     21  O   UNL     1     -11.715  19.129 -43.661  0.00  0.00    +0.000 OA
BRANCH  21  22
ATOM     22  C   UNL     1     -12.924  19.330 -42.931  0.00  0.00    +0.000 C 
BRANCH  22  25
ATOM     23 CL   UNL     1     -17.497  17.021 -43.933  0.00  0.00    +0.000 Cl
ATOM     24 CL   UNL     1     -17.366  18.332 -46.908  0.00  0.00    +0.000 Cl
ATOM     25  C   UNL     1     -14.067  19.079 -43.883  0.00  0.00    +0.000 A 
ATOM     26  C   UNL     1     -15.156  18.271 -43.527  0.00  0.00    +0.000 A 
ATOM     27  C   UNL     1     -14.038  19.654 -45.162  0.00  0.00    +0.000 A 
ATOM     28  C   UNL     1     -16.191  18.033 -44.443  0.00  0.00    +0.000 A 
ATOM     29  C   UNL     1     -15.068  19.421 -46.073  0.00  0.00    +0.000 A 
ATOM     30  C   UNL     1     -16.143  18.603 -45.720  0.00  0.00    +0.000 A 
ENDBRANCH  22  25
ENDBRANCH  21  22
ENDBRANCH  19  21
ENDBRANCH   5  20
TORSDOF 5
ENDMDL
