MODEL 1
REMARK VINA RESULT:      -5.5      0.000      0.000
REMARK  Name = 154040917
REMARK  5 active torsions:
REMARK  status: ('A' for Active; 'I' for Inactive)
REMARK    1  A    between atoms: O_5  and  N_8
REMARK    2  A    between atoms: O_5  and  C_21
REMARK    3  A    between atoms: C_9  and  C_14
REMARK    4  A    between atoms: C_10  and  C_12
REMARK    5  A    between atoms: C_20  and  C_21
REMARK                            x       y       z     vdW  Elec       q    Type
REMARK                         _______ _______ _______ _____ _____    ______ ____
ROOT
ATOM      1  S   UNL     1     -12.171   3.762 -31.005  0.00  0.00    +0.000 S 
ATOM      2  N   UNL     1     -12.532   5.060 -33.204  0.00  0.00    +0.000 N 
ATOM      3  N   UNL     1     -10.392   4.417 -33.061  0.00  0.00    +0.000 NA
ATOM      4  C   UNL     1     -11.950   5.509 -34.372  0.00  0.00    +0.000 A 
ATOM      5  C   UNL     1     -10.612   5.118 -34.232  0.00  0.00    +0.000 A 
ATOM      6  C   UNL     1     -11.557   4.428 -32.487  0.00  0.00    +0.000 A 
ATOM      7  C   UNL     1     -13.781   5.025 -32.615  0.00  0.00    +0.000 A 
ATOM      8  C   UNL     1     -13.765   4.387 -31.430  0.00  0.00    +0.000 A 
ENDROOT
BRANCH   5  10
ATOM      9 CL   UNL     1      -7.805   3.320 -38.174  0.00  0.00    +0.000 Cl
ATOM     10  C   UNL     1      -9.525   5.349 -35.177  0.00  0.00    +0.000 A 
ATOM     11  C   UNL     1      -9.222   4.357 -36.124  0.00  0.00    +0.000 A 
ATOM     12  C   UNL     1      -8.740   6.509 -35.133  0.00  0.00    +0.000 A 
ATOM     13  C   UNL     1      -8.172   4.544 -37.023  0.00  0.00    +0.000 A 
ATOM     14  C   UNL     1      -7.697   6.695 -36.045  0.00  0.00    +0.000 A 
ATOM     15  C   UNL     1      -7.416   5.713 -36.992  0.00  0.00    +0.000 A 
ENDBRANCH   5  10
BRANCH   4  17
ATOM     16  N   UNL     1     -12.927   7.338 -35.742  0.00  0.00    +0.000 NA
ATOM     17  C   UNL     1     -12.587   6.104 -35.516  0.00  0.00    +0.000 C 
BRANCH  16  18
ATOM     18  O   UNL     1     -12.513   8.226 -34.743  0.00  0.00    +0.000 OA
BRANCH  18  19
ATOM     19  C   UNL     1     -11.501   9.090 -35.272  0.00  0.00    +0.000 C 
BRANCH  19  22
ATOM     20 CL   UNL     1      -8.929  13.140 -33.274  0.00  0.00    +0.000 Cl
ATOM     21 CL   UNL     1      -8.068  11.229 -30.785  0.00  0.00    +0.000 Cl
ATOM     22  C   UNL     1     -10.670   9.647 -34.146  0.00  0.00    +0.000 A 
ATOM     23  C   UNL     1     -10.229  10.979 -34.181  0.00  0.00    +0.000 A 
ATOM     24  C   UNL     1     -10.289   8.832 -33.074  0.00  0.00    +0.000 A 
ATOM     25  C   UNL     1      -9.429  11.492 -33.155  0.00  0.00    +0.000 A 
ATOM     26  C   UNL     1      -9.492   9.342 -32.048  0.00  0.00    +0.000 A 
ATOM     27  C   UNL     1      -9.061  10.670 -32.086  0.00  0.00    +0.000 A 
ENDBRANCH  19  22
ENDBRANCH  18  19
ENDBRANCH  16  18
ENDBRANCH   4  17
TORSDOF 5
ENDMDL
MODEL 2
REMARK VINA RESULT:      -5.3     19.818     21.417
REMARK  Name = 154040917
REMARK  5 active torsions:
REMARK  status: ('A' for Active; 'I' for Inactive)
REMARK    1  A    between atoms: O_5  and  N_8
REMARK    2  A    between atoms: O_5  and  C_21
REMARK    3  A    between atoms: C_9  and  C_14
REMARK    4  A    between atoms: C_10  and  C_12
REMARK    5  A    between atoms: C_20  and  C_21
REMARK                            x       y       z     vdW  Elec       q    Type
REMARK                         _______ _______ _______ _____ _____    ______ ____
ROOT
ATOM      1  S   UNL     1      -0.667  -1.908 -50.851  0.00  0.00    +0.000 S 
ATOM      2  N   UNL     1      -2.355   0.039 -50.962  0.00  0.00    +0.000 N 
ATOM      3  N   UNL     1      -3.342  -1.843 -51.665  0.00  0.00    +0.000 NA
ATOM      4  C   UNL     1      -3.652   0.409 -51.251  0.00  0.00    +0.000 A 
ATOM      5  C   UNL     1      -4.226  -0.782 -51.716  0.00  0.00    +0.000 A 
ATOM      6  C   UNL     1      -2.248  -1.296 -51.227  0.00  0.00    +0.000 A 
ATOM      7  C   UNL     1      -1.205   0.607 -50.447  0.00  0.00    +0.000 A 
ATOM      8  C   UNL     1      -0.203  -0.284 -50.339  0.00  0.00    +0.000 A 
ENDROOT
BRANCH   5  10
ATOM      9 CL   UNL     1      -7.484  -1.000 -55.715  0.00  0.00    +0.000 Cl
ATOM     10  C   UNL     1      -5.595  -0.976 -52.181  0.00  0.00    +0.000 A 
ATOM     11  C   UNL     1      -5.862  -0.919 -53.558  0.00  0.00    +0.000 A 
ATOM     12  C   UNL     1      -6.659  -1.165 -51.290  0.00  0.00    +0.000 A 
ATOM     13  C   UNL     1      -7.167  -1.079 -54.026  0.00  0.00    +0.000 A 
ATOM     14  C   UNL     1      -7.962  -1.336 -51.766  0.00  0.00    +0.000 A 
ATOM     15  C   UNL     1      -8.214  -1.296 -53.135  0.00  0.00    +0.000 A 
ENDBRANCH   5  10
BRANCH   4  17
ATOM     16  N   UNL     1      -4.523   2.670 -51.800  0.00  0.00    +0.000 NA
ATOM     17  C   UNL     1      -4.299   1.669 -51.003  0.00  0.00    +0.000 C 
BRANCH  16  18
ATOM     18  O   UNL     1      -4.154   2.424 -53.127  0.00  0.00    +0.000 OA
BRANCH  18  19
ATOM     19  C   UNL     1      -5.157   2.956 -54.000  0.00  0.00    +0.000 C 
BRANCH  19  22
ATOM     20 CL   UNL     1      -3.046   4.786 -58.383  0.00  0.00    +0.000 Cl
ATOM     21 CL   UNL     1      -2.821   7.691 -56.935  0.00  0.00    +0.000 Cl
ATOM     22  C   UNL     1      -4.600   4.134 -54.755  0.00  0.00    +0.000 A 
ATOM     23  C   UNL     1      -4.139   3.978 -56.072  0.00  0.00    +0.000 A 
ATOM     24  C   UNL     1      -4.493   5.386 -54.140  0.00  0.00    +0.000 A 
ATOM     25  C   UNL     1      -3.590   5.061 -56.767  0.00  0.00    +0.000 A 
ATOM     26  C   UNL     1      -3.946   6.469 -54.832  0.00  0.00    +0.000 A 
ATOM     27  C   UNL     1      -3.494   6.309 -56.144  0.00  0.00    +0.000 A 
ENDBRANCH  19  22
ENDBRANCH  18  19
ENDBRANCH  16  18
ENDBRANCH   4  17
TORSDOF 5
ENDMDL
MODEL 3
REMARK VINA RESULT:      -5.2     19.586     21.722
REMARK  Name = 154040917
REMARK  5 active torsions:
REMARK  status: ('A' for Active; 'I' for Inactive)
REMARK    1  A    between atoms: O_5  and  N_8
REMARK    2  A    between atoms: O_5  and  C_21
REMARK    3  A    between atoms: C_9  and  C_14
REMARK    4  A    between atoms: C_10  and  C_12
REMARK    5  A    between atoms: C_20  and  C_21
REMARK                            x       y       z     vdW  Elec       q    Type
REMARK                         _______ _______ _______ _____ _____    ______ ____
ROOT
ATOM      1  S   UNL     1      -0.618  -1.186 -53.152  0.00  0.00    +0.000 S 
ATOM      2  N   UNL     1      -2.407   0.321 -52.064  0.00  0.00    +0.000 N 
ATOM      3  N   UNL     1      -3.410  -1.251 -53.301  0.00  0.00    +0.000 NA
ATOM      4  C   UNL     1      -3.757   0.550 -51.897  0.00  0.00    +0.000 A 
ATOM      5  C   UNL     1      -4.348  -0.428 -52.707  0.00  0.00    +0.000 A 
ATOM      6  C   UNL     1      -2.281  -0.753 -52.898  0.00  0.00    +0.000 A 
ATOM      7  C   UNL     1      -1.205   0.817 -51.595  0.00  0.00    +0.000 A 
ATOM      8  C   UNL     1      -0.151   0.143 -52.089  0.00  0.00    +0.000 A 
ENDROOT
BRANCH   5  10
ATOM      9 CL   UNL     1      -8.604  -3.057 -51.430  0.00  0.00    +0.000 Cl
ATOM     10  C   UNL     1      -5.774  -0.646 -52.925  0.00  0.00    +0.000 A 
ATOM     11  C   UNL     1      -6.440  -1.617 -52.161  0.00  0.00    +0.000 A 
ATOM     12  C   UNL     1      -6.486   0.050 -53.912  0.00  0.00    +0.000 A 
ATOM     13  C   UNL     1      -7.799  -1.860 -52.367  0.00  0.00    +0.000 A 
ATOM     14  C   UNL     1      -7.850  -0.190 -54.104  0.00  0.00    +0.000 A 
ATOM     15  C   UNL     1      -8.506  -1.143 -53.329  0.00  0.00    +0.000 A 
ENDBRANCH   5  10
BRANCH   4  17
ATOM     16  N   UNL     1      -4.556   2.759 -51.087  0.00  0.00    +0.000 NA
ATOM     17  C   UNL     1      -4.403   1.471 -51.001  0.00  0.00    +0.000 C 
BRANCH  16  18
ATOM     18  O   UNL     1      -4.095   3.300 -52.292  0.00  0.00    +0.000 OA
BRANCH  18  19
ATOM     19  C   UNL     1      -5.200   3.450 -53.192  0.00  0.00    +0.000 C 
BRANCH  19  22
ATOM     20 CL   UNL     1      -3.223   7.298 -56.072  0.00  0.00    +0.000 Cl
ATOM     21 CL   UNL     1      -3.322   5.290 -58.630  0.00  0.00    +0.000 Cl
ATOM     22  C   UNL     1      -4.700   3.914 -54.534  0.00  0.00    +0.000 A 
ATOM     23  C   UNL     1      -4.226   5.225 -54.700  0.00  0.00    +0.000 A 
ATOM     24  C   UNL     1      -4.743   3.061 -55.642  0.00  0.00    +0.000 A 
ATOM     25  C   UNL     1      -3.791   5.672 -55.952  0.00  0.00    +0.000 A 
ATOM     26  C   UNL     1      -4.310   3.504 -56.894  0.00  0.00    +0.000 A 
ATOM     27  C   UNL     1      -3.833   4.808 -57.051  0.00  0.00    +0.000 A 
ENDBRANCH  19  22
ENDBRANCH  18  19
ENDBRANCH  16  18
ENDBRANCH   4  17
TORSDOF 5
ENDMDL
MODEL 4
REMARK VINA RESULT:      -5.2     22.693     25.673
REMARK  Name = 154040917
REMARK  5 active torsions:
REMARK  status: ('A' for Active; 'I' for Inactive)
REMARK    1  A    between atoms: O_5  and  N_8
REMARK    2  A    between atoms: O_5  and  C_21
REMARK    3  A    between atoms: C_9  and  C_14
REMARK    4  A    between atoms: C_10  and  C_12
REMARK    5  A    between atoms: C_20  and  C_21
REMARK                            x       y       z     vdW  Elec       q    Type
REMARK                         _______ _______ _______ _____ _____    ______ ____
ROOT
ATOM      1  S   UNL     1      -0.491   2.878 -60.321  0.00  0.00    +0.000 S 
ATOM      2  N   UNL     1      -2.738   4.117 -60.056  0.00  0.00    +0.000 N 
ATOM      3  N   UNL     1      -1.869   3.709 -58.034  0.00  0.00    +0.000 NA
ATOM      4  C   UNL     1      -3.635   4.674 -59.168  0.00  0.00    +0.000 A 
ATOM      5  C   UNL     1      -3.077   4.372 -57.920  0.00  0.00    +0.000 A 
ATOM      6  C   UNL     1      -1.727   3.572 -59.317  0.00  0.00    +0.000 A 
ATOM      7  C   UNL     1      -2.558   4.015 -61.422  0.00  0.00    +0.000 A 
ATOM      8  C   UNL     1      -1.421   3.368 -61.738  0.00  0.00    +0.000 A 
ENDROOT
BRANCH   5  10
ATOM      9 CL   UNL     1      -5.774   2.852 -53.789  0.00  0.00    +0.000 Cl
ATOM     10  C   UNL     1      -3.618   4.711 -56.609  0.00  0.00    +0.000 A 
ATOM     11  C   UNL     1      -4.339   3.740 -55.896  0.00  0.00    +0.000 A 
ATOM     12  C   UNL     1      -3.484   5.995 -56.062  0.00  0.00    +0.000 A 
ATOM     13  C   UNL     1      -4.887   4.047 -54.650  0.00  0.00    +0.000 A 
ATOM     14  C   UNL     1      -4.025   6.292 -54.808  0.00  0.00    +0.000 A 
ATOM     15  C   UNL     1      -4.723   5.316 -54.101  0.00  0.00    +0.000 A 
ENDBRANCH   5  10
BRANCH   4  17
ATOM     16  N   UNL     1      -4.865   6.687 -59.950  0.00  0.00    +0.000 NA
ATOM     17  C   UNL     1      -4.785   5.488 -59.454  0.00  0.00    +0.000 C 
BRANCH  16  18
ATOM     18  O   UNL     1      -3.631   7.212 -60.348  0.00  0.00    +0.000 OA
BRANCH  18  19
ATOM     19  C   UNL     1      -3.435   8.482 -59.714  0.00  0.00    +0.000 C 
BRANCH  19  22
ATOM     20 CL   UNL     1      -0.355   7.914 -55.566  0.00  0.00    +0.000 Cl
ATOM     21 CL   UNL     1       2.137   8.891 -57.416  0.00  0.00    +0.000 Cl
ATOM     22  C   UNL     1      -2.046   8.550 -59.135  0.00  0.00    +0.000 A 
ATOM     23  C   UNL     1      -1.825   8.231 -57.786  0.00  0.00    +0.000 A 
ATOM     24  C   UNL     1      -0.969   8.974 -59.920  0.00  0.00    +0.000 A 
ATOM     25  C   UNL     1      -0.543   8.324 -57.233  0.00  0.00    +0.000 A 
ATOM     26  C   UNL     1       0.312   9.068 -59.371  0.00  0.00    +0.000 A 
ATOM     27  C   UNL     1       0.527   8.743 -58.029  0.00  0.00    +0.000 A 
ENDBRANCH  19  22
ENDBRANCH  18  19
ENDBRANCH  16  18
ENDBRANCH   4  17
TORSDOF 5
ENDMDL
MODEL 5
REMARK VINA RESULT:      -5.2      2.785      3.767
REMARK  Name = 154040917
REMARK  5 active torsions:
REMARK  status: ('A' for Active; 'I' for Inactive)
REMARK    1  A    between atoms: O_5  and  N_8
REMARK    2  A    between atoms: O_5  and  C_21
REMARK    3  A    between atoms: C_9  and  C_14
REMARK    4  A    between atoms: C_10  and  C_12
REMARK    5  A    between atoms: C_20  and  C_21
REMARK                            x       y       z     vdW  Elec       q    Type
REMARK                         _______ _______ _______ _____ _____    ______ ____
ROOT
ATOM      1  S   UNL     1      -7.582   1.245 -31.665  0.00  0.00    +0.000 S 
ATOM      2  N   UNL     1      -9.119   2.219 -33.493  0.00  0.00    +0.000 N 
ATOM      3  N   UNL     1      -7.140   3.263 -33.549  0.00  0.00    +0.000 NA
ATOM      4  C   UNL     1      -9.223   3.115 -34.536  0.00  0.00    +0.000 A 
ATOM      5  C   UNL     1      -7.985   3.768 -34.520  0.00  0.00    +0.000 A 
ATOM      6  C   UNL     1      -7.868   2.361 -32.964  0.00  0.00    +0.000 A 
ATOM      7  C   UNL     1      -9.873   1.223 -32.901  0.00  0.00    +0.000 A 
ATOM      8  C   UNL     1      -9.214   0.615 -31.898  0.00  0.00    +0.000 A 
ENDROOT
BRANCH   5  10
ATOM      9 CL   UNL     1      -4.304   5.602 -37.641  0.00  0.00    +0.000 Cl
ATOM     10  C   UNL     1      -7.542   4.837 -35.408  0.00  0.00    +0.000 A 
ATOM     11  C   UNL     1      -6.293   4.726 -36.041  0.00  0.00    +0.000 A 
ATOM     12  C   UNL     1      -8.304   5.997 -35.608  0.00  0.00    +0.000 A 
ATOM     13  C   UNL     1      -5.838   5.746 -36.877  0.00  0.00    +0.000 A 
ATOM     14  C   UNL     1      -7.846   7.009 -36.456  0.00  0.00    +0.000 A 
ATOM     15  C   UNL     1      -6.614   6.881 -37.093  0.00  0.00    +0.000 A 
ENDBRANCH   5  10
BRANCH   4  17
ATOM     16  N   UNL     1     -11.455   3.804 -35.384  0.00  0.00    +0.000 NA
ATOM     17  C   UNL     1     -10.286   3.248 -35.496  0.00  0.00    +0.000 C 
BRANCH  16  18
ATOM     18  O   UNL     1     -11.654   4.451 -34.159  0.00  0.00    +0.000 OA
BRANCH  18  19
ATOM     19  C   UNL     1     -12.858   5.224 -34.226  0.00  0.00    +0.000 C 
BRANCH  19  22
ATOM     20 CL   UNL     1      -9.270   8.932 -33.601  0.00  0.00    +0.000 Cl
ATOM     21 CL   UNL     1     -11.682  10.997 -32.890  0.00  0.00    +0.000 Cl
ATOM     22  C   UNL     1     -12.551   6.667 -33.924  0.00  0.00    +0.000 A 
ATOM     23  C   UNL     1     -11.223   7.122 -33.909  0.00  0.00    +0.000 A 
ATOM     24  C   UNL     1     -13.580   7.562 -33.611  0.00  0.00    +0.000 A 
ATOM     25  C   UNL     1     -10.929   8.453 -33.597  0.00  0.00    +0.000 A 
ATOM     26  C   UNL     1     -13.290   8.892 -33.300  0.00  0.00    +0.000 A 
ATOM     27  C   UNL     1     -11.966   9.340 -33.293  0.00  0.00    +0.000 A 
ENDBRANCH  19  22
ENDBRANCH  18  19
ENDBRANCH  16  18
ENDBRANCH   4  17
TORSDOF 5
ENDMDL
MODEL 6
REMARK VINA RESULT:      -5.2     22.865     25.118
REMARK  Name = 154040917
REMARK  5 active torsions:
REMARK  status: ('A' for Active; 'I' for Inactive)
REMARK    1  A    between atoms: O_5  and  N_8
REMARK    2  A    between atoms: O_5  and  C_21
REMARK    3  A    between atoms: C_9  and  C_14
REMARK    4  A    between atoms: C_10  and  C_12
REMARK    5  A    between atoms: C_20  and  C_21
REMARK                            x       y       z     vdW  Elec       q    Type
REMARK                         _______ _______ _______ _____ _____    ______ ____
ROOT
ATOM      1  S   UNL     1     -24.538  11.764 -55.075  0.00  0.00    +0.000 S 
ATOM      2  N   UNL     1     -23.666   9.795 -53.655  0.00  0.00    +0.000 N 
ATOM      3  N   UNL     1     -22.678   9.761 -55.663  0.00  0.00    +0.000 NA
ATOM      4  C   UNL     1     -22.802   8.722 -53.604  0.00  0.00    +0.000 A 
ATOM      5  C   UNL     1     -22.229   8.713 -54.881  0.00  0.00    +0.000 A 
ATOM      6  C   UNL     1     -23.537  10.357 -54.892  0.00  0.00    +0.000 A 
ATOM      7  C   UNL     1     -24.543  10.463 -52.820  0.00  0.00    +0.000 A 
ATOM      8  C   UNL     1     -25.108  11.524 -53.422  0.00  0.00    +0.000 A 
ENDROOT
BRANCH   5  10
ATOM      9 CL   UNL     1     -21.188   3.905 -56.449  0.00  0.00    +0.000 Cl
ATOM     10  C   UNL     1     -21.241   7.771 -55.396  0.00  0.00    +0.000 A 
ATOM     11  C   UNL     1     -21.632   6.449 -55.662  0.00  0.00    +0.000 A 
ATOM     12  C   UNL     1     -19.900   8.134 -55.584  0.00  0.00    +0.000 A 
ATOM     13  C   UNL     1     -20.700   5.524 -56.133  0.00  0.00    +0.000 A 
ATOM     14  C   UNL     1     -18.974   7.205 -56.068  0.00  0.00    +0.000 A 
ATOM     15  C   UNL     1     -19.376   5.901 -56.345  0.00  0.00    +0.000 A 
ENDBRANCH   5  10
BRANCH   4  17
ATOM     16  N   UNL     1     -23.195   7.070 -51.789  0.00  0.00    +0.000 NA
ATOM     17  C   UNL     1     -22.465   7.900 -52.472  0.00  0.00    +0.000 C 
BRANCH  16  18
ATOM     18  O   UNL     1     -24.481   6.894 -52.310  0.00  0.00    +0.000 OA
BRANCH  18  19
ATOM     19  C   UNL     1     -24.664   5.515 -52.653  0.00  0.00    +0.000 C 
BRANCH  19  22
ATOM     20 CL   UNL     1     -24.396   2.519 -56.892  0.00  0.00    +0.000 Cl
ATOM     21 CL   UNL     1     -25.352   5.091 -58.640  0.00  0.00    +0.000 Cl
ATOM     22  C   UNL     1     -24.860   5.385 -54.141  0.00  0.00    +0.000 A 
ATOM     23  C   UNL     1     -24.595   4.168 -54.788  0.00  0.00    +0.000 A 
ATOM     24  C   UNL     1     -25.264   6.487 -54.903  0.00  0.00    +0.000 A 
ATOM     25  C   UNL     1     -24.743   4.050 -56.173  0.00  0.00    +0.000 A 
ATOM     26  C   UNL     1     -25.414   6.372 -56.287  0.00  0.00    +0.000 A 
ATOM     27  C   UNL     1     -25.154   5.156 -56.924  0.00  0.00    +0.000 A 
ENDBRANCH  19  22
ENDBRANCH  18  19
ENDBRANCH  16  18
ENDBRANCH   4  17
TORSDOF 5
ENDMDL
MODEL 7
REMARK VINA RESULT:      -5.0     23.306     26.067
REMARK  Name = 154040917
REMARK  5 active torsions:
REMARK  status: ('A' for Active; 'I' for Inactive)
REMARK    1  A    between atoms: O_5  and  N_8
REMARK    2  A    between atoms: O_5  and  C_21
REMARK    3  A    between atoms: C_9  and  C_14
REMARK    4  A    between atoms: C_10  and  C_12
REMARK    5  A    between atoms: C_20  and  C_21
REMARK                            x       y       z     vdW  Elec       q    Type
REMARK                         _______ _______ _______ _____ _____    ______ ____
ROOT
ATOM      1  S   UNL     1     -21.591  11.475 -57.492  0.00  0.00    +0.000 S 
ATOM      2  N   UNL     1     -20.690   9.206 -56.659  0.00  0.00    +0.000 N 
ATOM      3  N   UNL     1     -22.537   9.740 -55.513  0.00  0.00    +0.000 NA
ATOM      4  C   UNL     1     -20.893   8.143 -55.803  0.00  0.00    +0.000 A 
ATOM      5  C   UNL     1     -22.032   8.527 -55.084  0.00  0.00    +0.000 A 
ATOM      6  C   UNL     1     -21.695  10.102 -56.433  0.00  0.00    +0.000 A 
ATOM      7  C   UNL     1     -19.826   9.570 -57.675  0.00  0.00    +0.000 A 
ATOM      8  C   UNL     1     -20.149  10.759 -58.215  0.00  0.00    +0.000 A 
ENDROOT
BRANCH   5  10
ATOM      9 CL   UNL     1     -22.372   7.493 -50.038  0.00  0.00    +0.000 Cl
ATOM     10  C   UNL     1     -22.695   7.779 -54.022  0.00  0.00    +0.000 A 
ATOM     11  C   UNL     1     -22.285   7.973 -52.693  0.00  0.00    +0.000 A 
ATOM     12  C   UNL     1     -23.694   6.834 -54.293  0.00  0.00    +0.000 A 
ATOM     13  C   UNL     1     -22.887   7.253 -51.661  0.00  0.00    +0.000 A 
ATOM     14  C   UNL     1     -24.302   6.125 -53.253  0.00  0.00    +0.000 A 
ATOM     15  C   UNL     1     -23.900   6.338 -51.937  0.00  0.00    +0.000 A 
ENDBRANCH   5  10
BRANCH   4  17
ATOM     16  N   UNL     1     -20.520   5.726 -56.240  0.00  0.00    +0.000 NA
ATOM     17  C   UNL     1     -20.194   6.887 -55.757  0.00  0.00    +0.000 C 
BRANCH  16  18
ATOM     18  O   UNL     1     -21.693   5.743 -57.002  0.00  0.00    +0.000 OA
BRANCH  18  19
ATOM     19  C   UNL     1     -21.589   4.771 -58.048  0.00  0.00    +0.000 C 
BRANCH  19  22
ATOM     20 CL   UNL     1     -24.734   1.855 -55.112  0.00  0.00    +0.000 Cl
ATOM     21 CL   UNL     1     -26.208   0.883 -57.846  0.00  0.00    +0.000 Cl
ATOM     22  C   UNL     1     -22.758   3.824 -57.979  0.00  0.00    +0.000 A 
ATOM     23  C   UNL     1     -23.195   3.326 -56.741  0.00  0.00    +0.000 A 
ATOM     24  C   UNL     1     -23.395   3.395 -59.148  0.00  0.00    +0.000 A 
ATOM     25  C   UNL     1     -24.259   2.421 -56.673  0.00  0.00    +0.000 A 
ATOM     26  C   UNL     1     -24.459   2.492 -59.083  0.00  0.00    +0.000 A 
ATOM     27  C   UNL     1     -24.892   2.004 -57.848  0.00  0.00    +0.000 A 
ENDBRANCH  19  22
ENDBRANCH  18  19
ENDBRANCH  16  18
ENDBRANCH   4  17
TORSDOF 5
ENDMDL
MODEL 8
REMARK VINA RESULT:      -5.0     15.059     16.904
REMARK  Name = 154040917
REMARK  5 active torsions:
REMARK  status: ('A' for Active; 'I' for Inactive)
REMARK    1  A    between atoms: O_5  and  N_8
REMARK    2  A    between atoms: O_5  and  C_21
REMARK    3  A    between atoms: C_9  and  C_14
REMARK    4  A    between atoms: C_10  and  C_12
REMARK    5  A    between atoms: C_20  and  C_21
REMARK                            x       y       z     vdW  Elec       q    Type
REMARK                         _______ _______ _______ _____ _____    ______ ____
ROOT
ATOM      1  S   UNL     1     -12.091  19.293 -42.148  0.00  0.00    +0.000 S 
ATOM      2  N   UNL     1     -12.275  17.325 -43.805  0.00  0.00    +0.000 N 
ATOM      3  N   UNL     1     -14.315  17.864 -43.060  0.00  0.00    +0.000 NA
ATOM      4  C   UNL     1     -13.129  16.464 -44.463  0.00  0.00    +0.000 A 
ATOM      5  C   UNL     1     -14.385  16.809 -43.950  0.00  0.00    +0.000 A 
ATOM      6  C   UNL     1     -13.043  18.117 -43.001  0.00  0.00    +0.000 A 
ATOM      7  C   UNL     1     -10.927  17.631 -43.779  0.00  0.00    +0.000 A 
ATOM      8  C   UNL     1     -10.652  18.643 -42.936  0.00  0.00    +0.000 A 
ENDROOT
BRANCH   5  10
ATOM      9 CL   UNL     1     -19.520  16.899 -43.424  0.00  0.00    +0.000 Cl
ATOM     10  C   UNL     1     -15.669  16.204 -44.287  0.00  0.00    +0.000 A 
ATOM     11  C   UNL     1     -16.847  16.772 -43.774  0.00  0.00    +0.000 A 
ATOM     12  C   UNL     1     -15.759  15.042 -45.065  0.00  0.00    +0.000 A 
ATOM     13  C   UNL     1     -18.085  16.199 -44.064  0.00  0.00    +0.000 A 
ATOM     14  C   UNL     1     -17.004  14.480 -45.361  0.00  0.00    +0.000 A 
ATOM     15  C   UNL     1     -18.167  15.061 -44.862  0.00  0.00    +0.000 A 
ENDBRANCH   5  10
BRANCH   4  17
ATOM     16  N   UNL     1     -12.662  15.741 -46.794  0.00  0.00    +0.000 NA
ATOM     17  C   UNL     1     -12.824  15.539 -45.521  0.00  0.00    +0.000 C 
BRANCH  16  18
ATOM     18  O   UNL     1     -12.702  17.092 -47.157  0.00  0.00    +0.000 OA
BRANCH  18  19
ATOM     19  C   UNL     1     -13.462  17.232 -48.363  0.00  0.00    +0.000 C 
BRANCH  19  22
ATOM     20 CL   UNL     1     -18.304  15.436 -48.954  0.00  0.00    +0.000 Cl
ATOM     21 CL   UNL     1     -19.329  17.891 -47.081  0.00  0.00    +0.000 Cl
ATOM     22  C   UNL     1     -14.925  17.365 -48.028  0.00  0.00    +0.000 A 
ATOM     23  C   UNL     1     -15.858  16.457 -48.551  0.00  0.00    +0.000 A 
ATOM     24  C   UNL     1     -15.377  18.421 -47.229  0.00  0.00    +0.000 A 
ATOM     25  C   UNL     1     -17.221  16.595 -48.271  0.00  0.00    +0.000 A 
ATOM     26  C   UNL     1     -16.737  18.561 -46.946  0.00  0.00    +0.000 A 
ATOM     27  C   UNL     1     -17.661  17.650 -47.465  0.00  0.00    +0.000 A 
ENDBRANCH  19  22
ENDBRANCH  18  19
ENDBRANCH  16  18
ENDBRANCH   4  17
TORSDOF 5
ENDMDL
MODEL 9
REMARK VINA RESULT:      -5.0     23.687     25.817
REMARK  Name = 154040917
REMARK  5 active torsions:
REMARK  status: ('A' for Active; 'I' for Inactive)
REMARK    1  A    between atoms: O_5  and  N_8
REMARK    2  A    between atoms: O_5  and  C_21
REMARK    3  A    between atoms: C_9  and  C_14
REMARK    4  A    between atoms: C_10  and  C_12
REMARK    5  A    between atoms: C_20  and  C_21
REMARK                            x       y       z     vdW  Elec       q    Type
REMARK                         _______ _______ _______ _____ _____    ______ ____
ROOT
ATOM      1  S   UNL     1     -24.226   5.945 -61.506  0.00  0.00    +0.000 S 
ATOM      2  N   UNL     1     -23.240   4.709 -59.468  0.00  0.00    +0.000 N 
ATOM      3  N   UNL     1     -22.499   6.821 -59.489  0.00  0.00    +0.000 NA
ATOM      4  C   UNL     1     -22.453   4.817 -58.341  0.00  0.00    +0.000 A 
ATOM      5  C   UNL     1     -21.984   6.135 -58.405  0.00  0.00    +0.000 A 
ATOM      6  C   UNL     1     -23.222   5.925 -60.089  0.00  0.00    +0.000 A 
ATOM      7  C   UNL     1     -24.051   3.773 -60.082  0.00  0.00    +0.000 A 
ATOM      8  C   UNL     1     -24.639   4.258 -61.190  0.00  0.00    +0.000 A 
ENDROOT
BRANCH   5  10
ATOM      9 CL   UNL     1     -17.452   8.478 -57.610  0.00  0.00    +0.000 Cl
ATOM     10  C   UNL     1     -21.087   6.797 -57.464  0.00  0.00    +0.000 A 
ATOM     11  C   UNL     1     -19.851   7.280 -57.924  0.00  0.00    +0.000 A 
ATOM     12  C   UNL     1     -21.400   6.918 -56.104  0.00  0.00    +0.000 A 
ATOM     13  C   UNL     1     -18.966   7.896 -57.038  0.00  0.00    +0.000 A 
ATOM     14  C   UNL     1     -20.514   7.547 -55.224  0.00  0.00    +0.000 A 
ATOM     15  C   UNL     1     -19.299   8.039 -55.694  0.00  0.00    +0.000 A 
ENDBRANCH   5  10
BRANCH   4  17
ATOM     16  N   UNL     1     -22.924   3.701 -56.171  0.00  0.00    +0.000 NA
ATOM     17  C   UNL     1     -22.271   3.859 -57.283  0.00  0.00    +0.000 C 
BRANCH  16  18
ATOM     18  O   UNL     1     -24.033   4.546 -56.046  0.00  0.00    +0.000 OA
BRANCH  18  19
ATOM     19  C   UNL     1     -24.913   4.020 -55.046  0.00  0.00    +0.000 C 
BRANCH  19  22
ATOM     20 CL   UNL     1     -22.919   8.146 -52.593  0.00  0.00    +0.000 Cl
ATOM     21 CL   UNL     1     -24.017   6.884 -49.803  0.00  0.00    +0.000 Cl
ATOM     22  C   UNL     1     -24.708   4.761 -53.751  0.00  0.00    +0.000 A 
ATOM     23  C   UNL     1     -24.010   5.979 -53.733  0.00  0.00    +0.000 A 
ATOM     24  C   UNL     1     -25.171   4.224 -52.544  0.00  0.00    +0.000 A 
ATOM     25  C   UNL     1     -23.787   6.655 -52.529  0.00  0.00    +0.000 A 
ATOM     26  C   UNL     1     -24.951   4.897 -51.341  0.00  0.00    +0.000 A 
ATOM     27  C   UNL     1     -24.260   6.112 -51.330  0.00  0.00    +0.000 A 
ENDBRANCH  19  22
ENDBRANCH  18  19
ENDBRANCH  16  18
ENDBRANCH   4  17
TORSDOF 5
ENDMDL
MODEL 10
REMARK VINA RESULT:      -4.9     14.972     16.498
REMARK  Name = 154040917
REMARK  5 active torsions:
REMARK  status: ('A' for Active; 'I' for Inactive)
REMARK    1  A    between atoms: O_5  and  N_8
REMARK    2  A    between atoms: O_5  and  C_21
REMARK    3  A    between atoms: C_9  and  C_14
REMARK    4  A    between atoms: C_10  and  C_12
REMARK    5  A    between atoms: C_20  and  C_21
REMARK                            x       y       z     vdW  Elec       q    Type
REMARK                         _______ _______ _______ _____ _____    ______ ____
ROOT
ATOM      1  S   UNL     1     -19.089  18.764 -41.788  0.00  0.00    +0.000 S 
ATOM      2  N   UNL     1     -18.472  16.813 -43.358  0.00  0.00    +0.000 N 
ATOM      3  N   UNL     1     -16.628  17.980 -42.859  0.00  0.00    +0.000 NA
ATOM      4  C   UNL     1     -17.450  16.154 -44.010  0.00  0.00    +0.000 A 
ATOM      5  C   UNL     1     -16.324  16.928 -43.703  0.00  0.00    +0.000 A 
ATOM      6  C   UNL     1     -17.912  17.872 -42.702  0.00  0.00    +0.000 A 
ATOM      7  C   UNL     1     -19.830  16.671 -43.147  0.00  0.00    +0.000 A 
ATOM      8  C   UNL     1     -20.324  17.635 -42.350  0.00  0.00    +0.000 A 
ENDROOT
BRANCH   5  10
ATOM      9 CL   UNL     1     -11.497  18.725 -44.042  0.00  0.00    +0.000 Cl
ATOM     10  C   UNL     1     -14.953  16.700 -44.145  0.00  0.00    +0.000 A 
ATOM     11  C   UNL     1     -13.985  17.689 -43.903  0.00  0.00    +0.000 A 
ATOM     12  C   UNL     1     -14.584  15.547 -44.850  0.00  0.00    +0.000 A 
ATOM     13  C   UNL     1     -12.672  17.505 -44.337  0.00  0.00    +0.000 A 
ATOM     14  C   UNL     1     -13.264  15.363 -45.270  0.00  0.00    +0.000 A 
ATOM     15  C   UNL     1     -12.308  16.342 -45.010  0.00  0.00    +0.000 A 
ENDBRANCH   5  10
BRANCH   4  17
ATOM     16  N   UNL     1     -17.935  14.626 -45.909  0.00  0.00    +0.000 NA
ATOM     17  C   UNL     1     -17.503  14.901 -44.715  0.00  0.00    +0.000 C 
BRANCH  16  18
ATOM     18  O   UNL     1     -18.318  15.755 -46.641  0.00  0.00    +0.000 OA
BRANCH  18  19
ATOM     19  C   UNL     1     -17.712  15.702 -47.938  0.00  0.00    +0.000 C 
BRANCH  19  22
ATOM     20 CL   UNL     1     -12.652  15.954 -49.101  0.00  0.00    +0.000 Cl
ATOM     21 CL   UNL     1     -12.608  18.930 -47.787  0.00  0.00    +0.000 Cl
ATOM     22  C   UNL     1     -16.439  16.506 -47.935  0.00  0.00    +0.000 A 
ATOM     23  C   UNL     1     -15.256  15.964 -48.462  0.00  0.00    +0.000 A 
ATOM     24  C   UNL     1     -16.407  17.784 -47.367  0.00  0.00    +0.000 A 
ATOM     25  C   UNL     1     -14.063  16.692 -48.432  0.00  0.00    +0.000 A 
ATOM     26  C   UNL     1     -15.217  18.515 -47.337  0.00  0.00    +0.000 A 
ATOM     27  C   UNL     1     -14.045  17.972 -47.868  0.00  0.00    +0.000 A 
ENDBRANCH  19  22
ENDBRANCH  18  19
ENDBRANCH  16  18
ENDBRANCH   4  17
TORSDOF 5
ENDMDL
