REMARK  Name = 154040923
REMARK  9 active torsions:
REMARK  status: ('A' for Active; 'I' for Inactive)
REMARK    1  A    between atoms: O_4  and  N_7
REMARK    2  A    between atoms: O_4  and  C_24
REMARK    3  A    between atoms: C_8  and  C_9
REMARK    4  A    between atoms: C_8  and  C_10
REMARK    5  A    between atoms: C_8  and  C_11
REMARK    6  A    between atoms: C_8  and  C_12
REMARK    7  A    between atoms: C_15  and  C_18
REMARK    8  A    between atoms: C_19  and  C_22
REMARK    9  A    between atoms: C_24  and  C_25
REMARK                            x       y       z     vdW  Elec       q    Type
REMARK                         _______ _______ _______ _____ _____    ______ ____
ROOT
ATOM      1  S   UNL     1      -8.641  -2.480  -4.336  0.00  0.00    +0.000 S 
ATOM      2  N   UNL     1      -6.599  -0.963  -3.998  0.00  0.00    +0.000 N 
ATOM      3  N   UNL     1      -8.272  -0.204  -2.728  0.00  0.00    +0.000 NA
ATOM      4  C   UNL     1      -7.153   0.607  -2.594  0.00  0.00    +0.000 A 
ATOM      5  C   UNL     1      -6.086   0.153  -3.377  0.00  0.00    +0.000 A 
ATOM      6  C   UNL     1      -7.894  -1.097  -3.590  0.00  0.00    +0.000 A 
ATOM      7  C   UNL     1      -6.154  -1.942  -4.862  0.00  0.00    +0.000 A 
ATOM      8  C   UNL     1      -7.120  -2.810  -5.179  0.00  0.00    +0.000 A 
ENDROOT
BRANCH   4  12
ATOM      9  C   UNL     1      -6.960   3.931   0.119  0.00  0.00    +0.000 A 
ATOM     10  C   UNL     1      -7.832   2.851   0.343  0.00  0.00    +0.000 A 
ATOM     11  C   UNL     1      -6.209   3.916  -1.064  0.00  0.00    +0.000 A 
ATOM     12  C   UNL     1      -7.132   1.762  -1.715  0.00  0.00    +0.000 A 
ATOM     13  C   UNL     1      -7.922   1.784  -0.560  0.00  0.00    +0.000 A 
ATOM     14  C   UNL     1      -6.319   2.867  -1.977  0.00  0.00    +0.000 A 
BRANCH   9  15
ATOM     15  C   UNL     1      -6.804   5.102   1.102  0.00  0.00    +0.000 C 
ATOM     16  C   UNL     1      -7.754   4.993   2.313  0.00  0.00    +0.000 C 
ATOM     17  C   UNL     1      -5.353   5.143   1.628  0.00  0.00    +0.000 C 
ATOM     18  C   UNL     1      -7.108   6.443   0.398  0.00  0.00    +0.000 C 
ENDBRANCH   9  15
ENDBRANCH   4  12
BRANCH   5  20
ATOM     19  N   UNL     1      -3.984   0.688  -4.541  0.00  0.00    +0.000 NA
ATOM     20  C   UNL     1      -4.735   0.645  -3.481  0.00  0.00    +0.000 C 
BRANCH  19  21
ATOM     21  O   UNL     1      -4.702   0.336  -5.687  0.00  0.00    +0.000 OA
BRANCH  21  22
ATOM     22  C   UNL     1      -3.824   0.131  -6.789  0.00  0.00    +0.000 C 
BRANCH  22  25
ATOM     23 CL   UNL     1      -5.300  -1.827 -11.388  0.00  0.00    +0.000 Cl
ATOM     24 CL   UNL     1      -6.992   0.911 -11.870  0.00  0.00    +0.000 Cl
ATOM     25  C   UNL     1      -4.657   0.257  -8.038  0.00  0.00    +0.000 A 
ATOM     26  C   UNL     1      -4.653  -0.740  -9.023  0.00  0.00    +0.000 A 
ATOM     27  C   UNL     1      -5.432   1.409  -8.238  0.00  0.00    +0.000 A 
ATOM     28  C   UNL     1      -5.379  -0.566 -10.208  0.00  0.00    +0.000 A 
ATOM     29  C   UNL     1      -6.157   1.583  -9.416  0.00  0.00    +0.000 A 
ATOM     30  C   UNL     1      -6.121   0.604 -10.411  0.00  0.00    +0.000 A 
ENDBRANCH  22  25
ENDBRANCH  21  22
ENDBRANCH  19  21
ENDBRANCH   5  20
TORSDOF 6
