REMARK  Name = 154040921
REMARK  6 active torsions:
REMARK  status: ('A' for Active; 'I' for Inactive)
REMARK    1  A    between atoms: O_7  and  N_10
REMARK    2  A    between atoms: O_7  and  C_25
REMARK    3  A    between atoms: C_11  and  C_13
REMARK    4  A    between atoms: C_12  and  C_18
REMARK    5  A    between atoms: C_19  and  C_23
REMARK    6  A    between atoms: C_24  and  C_25
REMARK                            x       y       z     vdW  Elec       q    Type
REMARK                         _______ _______ _______ _____ _____    ______ ____
ROOT
ATOM      1  S   UNL     1      -8.700  -2.408  -4.331  0.00  0.00    +0.000 S 
ATOM      2  N   UNL     1      -6.610  -0.953  -3.993  0.00  0.00    +0.000 N 
ATOM      3  N   UNL     1      -8.269  -0.126  -2.749  0.00  0.00    +0.000 NA
ATOM      4  C   UNL     1      -7.123   0.641  -2.600  0.00  0.00    +0.000 A 
ATOM      5  C   UNL     1      -6.065   0.148  -3.375  0.00  0.00    +0.000 A 
ATOM      6  C   UNL     1      -7.913  -1.037  -3.607  0.00  0.00    +0.000 A 
ATOM      7  C   UNL     1      -6.184  -1.966  -4.827  0.00  0.00    +0.000 A 
ATOM      8  C   UNL     1      -7.175  -2.822  -5.128  0.00  0.00    +0.000 A 
ENDROOT
BRANCH   4   9
ATOM      9  C   UNL     1      -7.079   1.785  -1.697  0.00  0.00    +0.000 A 
ATOM     10  C   UNL     1      -7.859   1.775  -0.531  0.00  0.00    +0.000 A 
ATOM     11  C   UNL     1      -6.273   2.900  -1.951  0.00  0.00    +0.000 A 
ATOM     12  C   UNL     1      -6.916   3.906   0.166  0.00  0.00    +0.000 A 
ATOM     13  C   UNL     1      -7.778   2.824   0.394  0.00  0.00    +0.000 A 
ATOM     14  C   UNL     1      -6.176   3.940  -1.023  0.00  0.00    +0.000 A 
BRANCH  12  18
ATOM     15  F   UNL     1      -7.558   4.889   2.269  0.00  0.00    +0.000 F 
ATOM     16  F   UNL     1      -5.484   5.099   1.653  0.00  0.00    +0.000 F 
ATOM     17  F   UNL     1      -7.035   6.244   0.649  0.00  0.00    +0.000 F 
ATOM     18  C   UNL     1      -6.758   5.018   1.175  0.00  0.00    +0.000 C 
ENDBRANCH  12  18
ENDBRANCH   4   9
BRANCH   5  20
ATOM     19  N   UNL     1      -3.957   0.641  -4.532  0.00  0.00    +0.000 NA
ATOM     20  C   UNL     1      -4.696   0.578  -3.462  0.00  0.00    +0.000 C 
BRANCH  19  21
ATOM     21  O   UNL     1      -4.701   0.386  -5.691  0.00  0.00    +0.000 OA
BRANCH  21  22
ATOM     22  C   UNL     1      -3.826   0.177  -6.800  0.00  0.00    +0.000 C 
BRANCH  22  25
ATOM     23 CL   UNL     1      -5.327  -1.820 -11.375  0.00  0.00    +0.000 Cl
ATOM     24 CL   UNL     1      -7.039   0.903 -11.867  0.00  0.00    +0.000 Cl
ATOM     25  C   UNL     1      -4.643   0.307  -8.059  0.00  0.00    +0.000 A 
ATOM     26  C   UNL     1      -4.644  -0.697  -9.036  0.00  0.00    +0.000 A 
ATOM     27  C   UNL     1      -5.402   1.466  -8.277  0.00  0.00    +0.000 A 
ATOM     28  C   UNL     1      -5.383  -0.539 -10.216  0.00  0.00    +0.000 A 
ATOM     29  C   UNL     1      -6.140   1.625  -9.450  0.00  0.00    +0.000 A 
ATOM     30  C   UNL     1      -6.127   0.627 -10.426  0.00  0.00    +0.000 A 
ENDBRANCH  22  25
ENDBRANCH  21  22
ENDBRANCH  19  21
ENDBRANCH   5  20
TORSDOF 6
