MODEL 1
REMARK VINA RESULT:      -5.3      0.000      0.000
REMARK  Name = 154040918
REMARK  5 active torsions:
REMARK  status: ('A' for Active; 'I' for Inactive)
REMARK    1  A    between atoms: O_5  and  N_8
REMARK    2  A    between atoms: O_5  and  C_21
REMARK    3  A    between atoms: C_9  and  C_14
REMARK    4  A    between atoms: C_10  and  C_12
REMARK    5  A    between atoms: C_20  and  C_21
REMARK                            x       y       z     vdW  Elec       q    Type
REMARK                         _______ _______ _______ _____ _____    ______ ____
ROOT
ATOM      1  S   UNL     1     -24.950   5.903 -52.873  0.00  0.00    +0.000 S 
ATOM      2  N   UNL     1     -23.729   4.964 -54.931  0.00  0.00    +0.000 N 
ATOM      3  N   UNL     1     -22.605   6.738 -54.174  0.00  0.00    +0.000 NA
ATOM      4  C   UNL     1     -22.666   5.095 -55.795  0.00  0.00    +0.000 A 
ATOM      5  C   UNL     1     -21.979   6.208 -55.294  0.00  0.00    +0.000 A 
ATOM      6  C   UNL     1     -23.650   5.977 -54.026  0.00  0.00    +0.000 A 
ATOM      7  C   UNL     1     -24.772   4.084 -54.726  0.00  0.00    +0.000 A 
ATOM      8  C   UNL     1     -25.540   4.444 -53.682  0.00  0.00    +0.000 A 
ENDROOT
BRANCH   5  10
ATOM      9  F   UNL     1     -17.286   8.359 -57.448  0.00  0.00    +0.000 F 
ATOM     10  C   UNL     1     -20.736   6.773 -55.806  0.00  0.00    +0.000 A 
ATOM     11  C   UNL     1     -19.954   6.018 -56.695  0.00  0.00    +0.000 A 
ATOM     12  C   UNL     1     -20.290   8.051 -55.435  0.00  0.00    +0.000 A 
ATOM     13  C   UNL     1     -18.786   6.549 -57.248  0.00  0.00    +0.000 A 
ATOM     14  C   UNL     1     -19.128   8.588 -55.996  0.00  0.00    +0.000 A 
ATOM     15  C   UNL     1     -18.393   7.835 -56.903  0.00  0.00    +0.000 A 
ENDBRANCH   5  10
BRANCH   4  17
ATOM     16  N   UNL     1     -22.735   4.292 -58.113  0.00  0.00    +0.000 NA
ATOM     17  C   UNL     1     -22.337   4.209 -56.877  0.00  0.00    +0.000 C 
BRANCH  16  18
ATOM     18  O   UNL     1     -23.432   5.482 -58.353  0.00  0.00    +0.000 OA
BRANCH  18  19
ATOM     19  C   UNL     1     -22.750   6.263 -59.337  0.00  0.00    +0.000 C 
BRANCH  19  22
ATOM     20 CL   UNL     1     -19.949  10.653 -59.016  0.00  0.00    +0.000 Cl
ATOM     21 CL   UNL     1     -22.171  11.772 -56.918  0.00  0.00    +0.000 Cl
ATOM     22  C   UNL     1     -22.586   7.654 -58.781  0.00  0.00    +0.000 A 
ATOM     23  C   UNL     1     -21.484   8.454 -59.115  0.00  0.00    +0.000 A 
ATOM     24  C   UNL     1     -23.546   8.160 -57.891  0.00  0.00    +0.000 A 
ATOM     25  C   UNL     1     -21.339   9.731 -58.558  0.00  0.00    +0.000 A 
ATOM     26  C   UNL     1     -23.403   9.432 -57.339  0.00  0.00    +0.000 A 
ATOM     27  C   UNL     1     -22.297  10.218 -57.662  0.00  0.00    +0.000 A 
ENDBRANCH  19  22
ENDBRANCH  18  19
ENDBRANCH  16  18
ENDBRANCH   4  17
TORSDOF 5
ENDMDL
MODEL 2
REMARK VINA RESULT:      -5.1      1.836      2.846
REMARK  Name = 154040918
REMARK  5 active torsions:
REMARK  status: ('A' for Active; 'I' for Inactive)
REMARK    1  A    between atoms: O_5  and  N_8
REMARK    2  A    between atoms: O_5  and  C_21
REMARK    3  A    between atoms: C_9  and  C_14
REMARK    4  A    between atoms: C_10  and  C_12
REMARK    5  A    between atoms: C_20  and  C_21
REMARK                            x       y       z     vdW  Elec       q    Type
REMARK                         _______ _______ _______ _____ _____    ______ ____
ROOT
ATOM      1  S   UNL     1     -25.071   3.939 -55.936  0.00  0.00    +0.000 S 
ATOM      2  N   UNL     1     -23.755   5.684 -54.582  0.00  0.00    +0.000 N 
ATOM      3  N   UNL     1     -22.665   5.278 -56.487  0.00  0.00    +0.000 NA
ATOM      4  C   UNL     1     -22.637   6.481 -54.518  0.00  0.00    +0.000 A 
ATOM      5  C   UNL     1     -21.977   6.211 -55.724  0.00  0.00    +0.000 A 
ATOM      6  C   UNL     1     -23.692   4.982 -55.747  0.00  0.00    +0.000 A 
ATOM      7  C   UNL     1     -24.892   5.461 -53.832  0.00  0.00    +0.000 A 
ATOM      8  C   UNL     1     -25.696   4.542 -54.394  0.00  0.00    +0.000 A 
ENDROOT
BRANCH   5  10
ATOM      9  F   UNL     1     -17.352   8.649 -57.710  0.00  0.00    +0.000 F 
ATOM     10  C   UNL     1     -20.743   6.821 -56.204  0.00  0.00    +0.000 A 
ATOM     11  C   UNL     1     -20.328   6.582 -57.524  0.00  0.00    +0.000 A 
ATOM     12  C   UNL     1     -19.949   7.639 -55.386  0.00  0.00    +0.000 A 
ATOM     13  C   UNL     1     -19.181   7.196 -58.035  0.00  0.00    +0.000 A 
ATOM     14  C   UNL     1     -18.807   8.261 -55.898  0.00  0.00    +0.000 A 
ATOM     15  C   UNL     1     -18.440   8.040 -57.220  0.00  0.00    +0.000 A 
ENDBRANCH   5  10
BRANCH   4  17
ATOM     16  N   UNL     1     -22.630   8.688 -53.443  0.00  0.00    +0.000 NA
ATOM     17  C   UNL     1     -22.324   7.423 -53.479  0.00  0.00    +0.000 C 
BRANCH  16  18
ATOM     18  O   UNL     1     -23.480   9.044 -54.496  0.00  0.00    +0.000 OA
BRANCH  18  19
ATOM     19  C   UNL     1     -23.201  10.379 -54.925  0.00  0.00    +0.000 C 
BRANCH  19  22
ATOM     20 CL   UNL     1     -19.211  11.736 -57.999  0.00  0.00    +0.000 Cl
ATOM     21 CL   UNL     1     -20.637  10.048 -60.388  0.00  0.00    +0.000 Cl
ATOM     22  C   UNL     1     -22.513  10.294 -56.263  0.00  0.00    +0.000 A 
ATOM     23  C   UNL     1     -21.301  10.956 -56.510  0.00  0.00    +0.000 A 
ATOM     24  C   UNL     1     -23.104   9.554 -57.298  0.00  0.00    +0.000 A 
ATOM     25  C   UNL     1     -20.700  10.887 -57.773  0.00  0.00    +0.000 A 
ATOM     26  C   UNL     1     -22.504   9.483 -58.554  0.00  0.00    +0.000 A 
ATOM     27  C   UNL     1     -21.308  10.155 -58.800  0.00  0.00    +0.000 A 
ENDBRANCH  19  22
ENDBRANCH  18  19
ENDBRANCH  16  18
ENDBRANCH   4  17
TORSDOF 5
ENDMDL
MODEL 3
REMARK VINA RESULT:      -5.0     17.666     19.431
REMARK  Name = 154040918
REMARK  5 active torsions:
REMARK  status: ('A' for Active; 'I' for Inactive)
REMARK    1  A    between atoms: O_5  and  N_8
REMARK    2  A    between atoms: O_5  and  C_21
REMARK    3  A    between atoms: C_9  and  C_14
REMARK    4  A    between atoms: C_10  and  C_12
REMARK    5  A    between atoms: C_20  and  C_21
REMARK                            x       y       z     vdW  Elec       q    Type
REMARK                         _______ _______ _______ _____ _____    ______ ____
ROOT
ATOM      1  S   UNL     1      -0.231  -0.442 -50.651  0.00  0.00    +0.000 S 
ATOM      2  N   UNL     1      -2.227   1.174 -50.768  0.00  0.00    +0.000 N 
ATOM      3  N   UNL     1      -2.856  -0.808 -51.580  0.00  0.00    +0.000 NA
ATOM      4  C   UNL     1      -3.540   1.352 -51.137  0.00  0.00    +0.000 A 
ATOM      5  C   UNL     1      -3.908   0.096 -51.636  0.00  0.00    +0.000 A 
ATOM      6  C   UNL     1      -1.881  -0.104 -51.085  0.00  0.00    +0.000 A 
ATOM      7  C   UNL     1      -1.236   1.905 -50.144  0.00  0.00    +0.000 A 
ATOM      8  C   UNL     1      -0.094   1.205 -50.020  0.00  0.00    +0.000 A 
ENDROOT
BRANCH   5  10
ATOM      9  F   UNL     1      -9.031  -1.290 -53.402  0.00  0.00    +0.000 F 
ATOM     10  C   UNL     1      -5.221  -0.299 -52.132  0.00  0.00    +0.000 A 
ATOM     11  C   UNL     1      -6.147  -0.870 -51.242  0.00  0.00    +0.000 A 
ATOM     12  C   UNL     1      -5.593  -0.133 -53.474  0.00  0.00    +0.000 A 
ATOM     13  C   UNL     1      -7.433  -1.209 -51.669  0.00  0.00    +0.000 A 
ATOM     14  C   UNL     1      -6.882  -0.461 -53.901  0.00  0.00    +0.000 A 
ATOM     15  C   UNL     1      -7.792  -0.988 -52.992  0.00  0.00    +0.000 A 
ENDBRANCH   5  10
BRANCH   4  17
ATOM     16  N   UNL     1      -4.646   3.430 -51.835  0.00  0.00    +0.000 NA
ATOM     17  C   UNL     1      -4.324   2.540 -50.940  0.00  0.00    +0.000 C 
BRANCH  16  18
ATOM     18  O   UNL     1      -4.271   3.027 -53.122  0.00  0.00    +0.000 OA
BRANCH  18  19
ATOM     19  C   UNL     1      -5.242   3.461 -54.076  0.00  0.00    +0.000 C 
BRANCH  19  22
ATOM     20 CL   UNL     1      -3.314   5.046 -58.657  0.00  0.00    +0.000 Cl
ATOM     21 CL   UNL     1      -2.592   7.881 -57.233  0.00  0.00    +0.000 Cl
ATOM     22  C   UNL     1      -4.612   4.549 -54.906  0.00  0.00    +0.000 A 
ATOM     23  C   UNL     1      -4.294   4.352 -56.258  0.00  0.00    +0.000 A 
ATOM     24  C   UNL     1      -4.312   5.785 -54.313  0.00  0.00    +0.000 A 
ATOM     25  C   UNL     1      -3.678   5.369 -56.998  0.00  0.00    +0.000 A 
ATOM     26  C   UNL     1      -3.701   6.798 -55.050  0.00  0.00    +0.000 A 
ATOM     27  C   UNL     1      -3.373   6.592 -56.390  0.00  0.00    +0.000 A 
ENDBRANCH  19  22
ENDBRANCH  18  19
ENDBRANCH  16  18
ENDBRANCH   4  17
TORSDOF 5
ENDMDL
MODEL 4
REMARK VINA RESULT:      -4.9     22.865     24.490
REMARK  Name = 154040918
REMARK  5 active torsions:
REMARK  status: ('A' for Active; 'I' for Inactive)
REMARK    1  A    between atoms: O_5  and  N_8
REMARK    2  A    between atoms: O_5  and  C_21
REMARK    3  A    between atoms: C_9  and  C_14
REMARK    4  A    between atoms: C_10  and  C_12
REMARK    5  A    between atoms: C_20  and  C_21
REMARK                            x       y       z     vdW  Elec       q    Type
REMARK                         _______ _______ _______ _____ _____    ______ ____
ROOT
ATOM      1  S   UNL     1      -9.505   9.944 -31.611  0.00  0.00    +0.000 S 
ATOM      2  N   UNL     1     -10.697   9.430 -33.830  0.00  0.00    +0.000 N 
ATOM      3  N   UNL     1      -9.062   7.940 -33.528  0.00  0.00    +0.000 NA
ATOM      4  C   UNL     1     -10.753   8.623 -34.943  0.00  0.00    +0.000 A 
ATOM      5  C   UNL     1      -9.723   7.699 -34.724  0.00  0.00    +0.000 A 
ATOM      6  C   UNL     1      -9.663   8.993 -33.058  0.00  0.00    +0.000 A 
ATOM      7  C   UNL     1     -11.414  10.481 -33.296  0.00  0.00    +0.000 A 
ATOM      8  C   UNL     1     -10.904  10.898 -32.124  0.00  0.00    +0.000 A 
ENDROOT
BRANCH   5  10
ATOM      9  F   UNL     1      -8.181   3.336 -37.866  0.00  0.00    +0.000 F 
ATOM     10  C   UNL     1      -9.359   6.575 -35.579  0.00  0.00    +0.000 A 
ATOM     11  C   UNL     1      -8.050   6.494 -36.084  0.00  0.00    +0.000 A 
ATOM     12  C   UNL     1     -10.276   5.570 -35.921  0.00  0.00    +0.000 A 
ATOM     13  C   UNL     1      -7.651   5.402 -36.859  0.00  0.00    +0.000 A 
ATOM     14  C   UNL     1      -9.875   4.473 -36.688  0.00  0.00    +0.000 A 
ATOM     15  C   UNL     1      -8.564   4.397 -37.142  0.00  0.00    +0.000 A 
ENDBRANCH   5  10
BRANCH   4  17
ATOM     16  N   UNL     1     -12.974   8.336 -35.948  0.00  0.00    +0.000 NA
ATOM     17  C   UNL     1     -11.724   8.700 -35.998  0.00  0.00    +0.000 C 
BRANCH  16  18
ATOM     18  O   UNL     1     -13.358   7.985 -34.649  0.00  0.00    +0.000 OA
BRANCH  18  19
ATOM     19  C   UNL     1     -14.040   6.730 -34.658  0.00  0.00    +0.000 C 
BRANCH  19  22
ATOM     20 CL   UNL     1     -18.464   9.336 -35.579  0.00  0.00    +0.000 Cl
ATOM     21 CL   UNL     1     -19.773   7.763 -33.049  0.00  0.00    +0.000 Cl
ATOM     22  C   UNL     1     -15.483   6.991 -34.310  0.00  0.00    +0.000 A 
ATOM     23  C   UNL     1     -16.254   7.922 -35.022  0.00  0.00    +0.000 A 
ATOM     24  C   UNL     1     -16.068   6.307 -33.234  0.00  0.00    +0.000 A 
ATOM     25  C   UNL     1     -17.583   8.170 -34.655  0.00  0.00    +0.000 A 
ATOM     26  C   UNL     1     -17.392   6.552 -32.872  0.00  0.00    +0.000 A 
ATOM     27  C   UNL     1     -18.151   7.489 -33.572  0.00  0.00    +0.000 A 
ENDBRANCH  19  22
ENDBRANCH  18  19
ENDBRANCH  16  18
ENDBRANCH   4  17
TORSDOF 5
ENDMDL
MODEL 5
REMARK VINA RESULT:      -4.8     17.529     19.751
REMARK  Name = 154040918
REMARK  5 active torsions:
REMARK  status: ('A' for Active; 'I' for Inactive)
REMARK    1  A    between atoms: O_5  and  N_8
REMARK    2  A    between atoms: O_5  and  C_21
REMARK    3  A    between atoms: C_9  and  C_14
REMARK    4  A    between atoms: C_10  and  C_12
REMARK    5  A    between atoms: C_20  and  C_21
REMARK                            x       y       z     vdW  Elec       q    Type
REMARK                         _______ _______ _______ _____ _____    ______ ____
ROOT
ATOM      1  S   UNL     1      -4.486   5.493 -54.556  0.00  0.00    +0.000 S 
ATOM      2  N   UNL     1      -4.327   3.034 -55.289  0.00  0.00    +0.000 N 
ATOM      3  N   UNL     1      -5.669   3.170 -53.510  0.00  0.00    +0.000 NA
ATOM      4  C   UNL     1      -4.709   1.736 -55.043  0.00  0.00    +0.000 A 
ATOM      5  C   UNL     1      -5.551   1.852 -53.930  0.00  0.00    +0.000 A 
ATOM      6  C   UNL     1      -4.900   3.818 -54.334  0.00  0.00    +0.000 A 
ATOM      7  C   UNL     1      -3.592   3.718 -56.236  0.00  0.00    +0.000 A 
ATOM      8  C   UNL     1      -3.552   5.039 -55.988  0.00  0.00    +0.000 A 
ENDROOT
BRANCH   5  10
ATOM      9  F   UNL     1      -8.405  -2.136 -51.240  0.00  0.00    +0.000 F 
ATOM     10  C   UNL     1      -6.278   0.777 -53.265  0.00  0.00    +0.000 A 
ATOM     11  C   UNL     1      -5.968   0.461 -51.932  0.00  0.00    +0.000 A 
ATOM     12  C   UNL     1      -7.279   0.040 -53.916  0.00  0.00    +0.000 A 
ATOM     13  C   UNL     1      -6.682  -0.525 -51.246  0.00  0.00    +0.000 A 
ATOM     14  C   UNL     1      -8.001  -0.939 -53.229  0.00  0.00    +0.000 A 
ATOM     15  C   UNL     1      -7.701  -1.205 -51.898  0.00  0.00    +0.000 A 
ENDBRANCH   5  10
BRANCH   4  17
ATOM     16  N   UNL     1      -3.540  -0.368 -55.529  0.00  0.00    +0.000 NA
ATOM     17  C   UNL     1      -4.371   0.586 -55.836  0.00  0.00    +0.000 C 
BRANCH  16  18
ATOM     18  O   UNL     1      -3.090  -0.255 -54.209  0.00  0.00    +0.000 OA
BRANCH  18  19
ATOM     19  C   UNL     1      -2.386  -1.438 -53.825  0.00  0.00    +0.000 C 
BRANCH  19  22
ATOM     20 CL   UNL     1      -6.348  -4.684 -52.835  0.00  0.00    +0.000 Cl
ATOM     21 CL   UNL     1      -5.797  -4.193 -49.666  0.00  0.00    +0.000 Cl
ATOM     22  C   UNL     1      -3.238  -2.169 -52.819  0.00  0.00    +0.000 A 
ATOM     23  C   UNL     1      -4.281  -3.017 -53.218  0.00  0.00    +0.000 A 
ATOM     24  C   UNL     1      -3.001  -1.984 -51.449  0.00  0.00    +0.000 A 
ATOM     25  C   UNL     1      -5.079  -3.659 -52.262  0.00  0.00    +0.000 A 
ATOM     26  C   UNL     1      -3.793  -2.625 -50.497  0.00  0.00    +0.000 A 
ATOM     27  C   UNL     1      -4.839  -3.456 -50.898  0.00  0.00    +0.000 A 
ENDBRANCH  19  22
ENDBRANCH  18  19
ENDBRANCH  16  18
ENDBRANCH   4  17
TORSDOF 5
ENDMDL
MODEL 6
REMARK VINA RESULT:      -4.8     16.765     17.982
REMARK  Name = 154040918
REMARK  5 active torsions:
REMARK  status: ('A' for Active; 'I' for Inactive)
REMARK    1  A    between atoms: O_5  and  N_8
REMARK    2  A    between atoms: O_5  and  C_21
REMARK    3  A    between atoms: C_9  and  C_14
REMARK    4  A    between atoms: C_10  and  C_12
REMARK    5  A    between atoms: C_20  and  C_21
REMARK                            x       y       z     vdW  Elec       q    Type
REMARK                         _______ _______ _______ _____ _____    ______ ____
ROOT
ATOM      1  S   UNL     1      -4.545   5.178 -54.843  0.00  0.00    +0.000 S 
ATOM      2  N   UNL     1      -4.084   2.673 -55.193  0.00  0.00    +0.000 N 
ATOM      3  N   UNL     1      -5.779   2.900 -53.758  0.00  0.00    +0.000 NA
ATOM      4  C   UNL     1      -4.430   1.385 -54.858  0.00  0.00    +0.000 A 
ATOM      5  C   UNL     1      -5.494   1.558 -53.964  0.00  0.00    +0.000 A 
ATOM      6  C   UNL     1      -4.893   3.512 -54.488  0.00  0.00    +0.000 A 
ATOM      7  C   UNL     1      -3.208   3.302 -56.054  0.00  0.00    +0.000 A 
ATOM      8  C   UNL     1      -3.302   4.642 -55.982  0.00  0.00    +0.000 A 
ENDROOT
BRANCH   5  10
ATOM      9  F   UNL     1      -8.550  -2.333 -51.354  0.00  0.00    +0.000 F 
ATOM     10  C   UNL     1      -6.279   0.509 -53.323  0.00  0.00    +0.000 A 
ATOM     11  C   UNL     1      -5.931   0.085 -52.030  0.00  0.00    +0.000 A 
ATOM     12  C   UNL     1      -7.373  -0.098 -53.959  0.00  0.00    +0.000 A 
ATOM     13  C   UNL     1      -6.694  -0.877 -51.363  0.00  0.00    +0.000 A 
ATOM     14  C   UNL     1      -8.143  -1.053 -53.290  0.00  0.00    +0.000 A 
ATOM     15  C   UNL     1      -7.800  -1.426 -51.996  0.00  0.00    +0.000 A 
ENDBRANCH   5  10
BRANCH   4  17
ATOM     16  N   UNL     1      -4.257  -0.465 -56.462  0.00  0.00    +0.000 NA
ATOM     17  C   UNL     1      -3.862   0.184 -55.405  0.00  0.00    +0.000 C 
BRANCH  16  18
ATOM     18  O   UNL     1      -5.251   0.234 -57.156  0.00  0.00    +0.000 OA
BRANCH  18  19
ATOM     19  C   UNL     1      -5.417  -0.314 -58.465  0.00  0.00    +0.000 C 
BRANCH  19  22
ATOM     20 CL   UNL     1      -4.888   4.756 -59.574  0.00  0.00    +0.000 Cl
ATOM     21 CL   UNL     1      -6.556   4.206 -62.313  0.00  0.00    +0.000 Cl
ATOM     22  C   UNL     1      -5.651   0.833 -59.414  0.00  0.00    +0.000 A 
ATOM     23  C   UNL     1      -5.205   2.131 -59.123  0.00  0.00    +0.000 A 
ATOM     24  C   UNL     1      -6.352   0.609 -60.609  0.00  0.00    +0.000 A 
ATOM     25  C   UNL     1      -5.466   3.186 -60.007  0.00  0.00    +0.000 A 
ATOM     26  C   UNL     1      -6.609   1.658 -61.490  0.00  0.00    +0.000 A 
ATOM     27  C   UNL     1      -6.177   2.950 -61.190  0.00  0.00    +0.000 A 
ENDBRANCH  19  22
ENDBRANCH  18  19
ENDBRANCH  16  18
ENDBRANCH   4  17
TORSDOF 5
ENDMDL
MODEL 7
REMARK VINA RESULT:      -4.7     10.801     13.161
REMARK  Name = 154040918
REMARK  5 active torsions:
REMARK  status: ('A' for Active; 'I' for Inactive)
REMARK    1  A    between atoms: O_5  and  N_8
REMARK    2  A    between atoms: O_5  and  C_21
REMARK    3  A    between atoms: C_9  and  C_14
REMARK    4  A    between atoms: C_10  and  C_12
REMARK    5  A    between atoms: C_20  and  C_21
REMARK                            x       y       z     vdW  Elec       q    Type
REMARK                         _______ _______ _______ _____ _____    ______ ____
ROOT
ATOM      1  S   UNL     1     -14.581  10.037 -58.399  0.00  0.00    +0.000 S 
ATOM      2  N   UNL     1     -12.357  11.265 -58.794  0.00  0.00    +0.000 N 
ATOM      3  N   UNL     1     -12.747  11.168 -56.598  0.00  0.00    +0.000 NA
ATOM      4  C   UNL     1     -11.288  11.915 -58.223  0.00  0.00    +0.000 A 
ATOM      5  C   UNL     1     -11.556  11.835 -56.851  0.00  0.00    +0.000 A 
ATOM      6  C   UNL     1     -13.190  10.881 -57.786  0.00  0.00    +0.000 A 
ATOM      7  C   UNL     1     -12.758  10.877 -60.056  0.00  0.00    +0.000 A 
ATOM      8  C   UNL     1     -13.936  10.228 -60.035  0.00  0.00    +0.000 A 
ENDROOT
BRANCH   5  10
ATOM      9  F   UNL     1      -8.395  13.563 -52.572  0.00  0.00    +0.000 F 
ATOM     10  C   UNL     1     -10.718  12.328 -55.764  0.00  0.00    +0.000 A 
ATOM     11  C   UNL     1     -11.302  12.590 -54.513  0.00  0.00    +0.000 A 
ATOM     12  C   UNL     1      -9.344  12.558 -55.927  0.00  0.00    +0.000 A 
ATOM     13  C   UNL     1     -10.520  13.011 -53.434  0.00  0.00    +0.000 A 
ATOM     14  C   UNL     1      -8.559  12.968 -54.846  0.00  0.00    +0.000 A 
ATOM     15  C   UNL     1      -9.154  13.182 -53.609  0.00  0.00    +0.000 A 
ENDBRANCH   5  10
BRANCH   4  17
ATOM     16  N   UNL     1     -10.058  13.588 -59.532  0.00  0.00    +0.000 NA
ATOM     17  C   UNL     1     -10.147  12.444 -58.917  0.00  0.00    +0.000 C 
BRANCH  16  18
ATOM     18  O   UNL     1     -11.191  14.381 -59.315  0.00  0.00    +0.000 OA
BRANCH  18  19
ATOM     19  C   UNL     1     -10.806  15.736 -59.073  0.00  0.00    +0.000 C 
BRANCH  19  22
ATOM     20 CL   UNL     1     -13.165  15.837 -54.422  0.00  0.00    +0.000 Cl
ATOM     21 CL   UNL     1     -10.298  16.659 -53.122  0.00  0.00    +0.000 Cl
ATOM     22  C   UNL     1     -10.714  15.925 -57.581  0.00  0.00    +0.000 A 
ATOM     23  C   UNL     1     -11.839  15.796 -56.753  0.00  0.00    +0.000 A 
ATOM     24  C   UNL     1      -9.481  16.260 -57.002  0.00  0.00    +0.000 A 
ATOM     25  C   UNL     1     -11.732  16.010 -55.373  0.00  0.00    +0.000 A 
ATOM     26  C   UNL     1      -9.374  16.470 -55.628  0.00  0.00    +0.000 A 
ATOM     27  C   UNL     1     -10.498  16.356 -54.810  0.00  0.00    +0.000 A 
ENDBRANCH  19  22
ENDBRANCH  18  19
ENDBRANCH  16  18
ENDBRANCH   4  17
TORSDOF 5
ENDMDL
MODEL 8
REMARK VINA RESULT:      -4.7     17.301     19.386
REMARK  Name = 154040918
REMARK  5 active torsions:
REMARK  status: ('A' for Active; 'I' for Inactive)
REMARK    1  A    between atoms: O_5  and  N_8
REMARK    2  A    between atoms: O_5  and  C_21
REMARK    3  A    between atoms: C_9  and  C_14
REMARK    4  A    between atoms: C_10  and  C_12
REMARK    5  A    between atoms: C_20  and  C_21
REMARK                            x       y       z     vdW  Elec       q    Type
REMARK                         _______ _______ _______ _____ _____    ______ ____
ROOT
ATOM      1  S   UNL     1      -0.284  -0.953 -53.635  0.00  0.00    +0.000 S 
ATOM      2  N   UNL     1      -1.972   0.520 -52.373  0.00  0.00    +0.000 N 
ATOM      3  N   UNL     1      -3.092  -0.925 -53.653  0.00  0.00    +0.000 NA
ATOM      4  C   UNL     1      -3.296   0.817 -52.153  0.00  0.00    +0.000 A 
ATOM      5  C   UNL     1      -3.973  -0.104 -52.962  0.00  0.00    +0.000 A 
ATOM      6  C   UNL     1      -1.923  -0.489 -53.286  0.00  0.00    +0.000 A 
ATOM      7  C   UNL     1      -0.743   0.925 -51.892  0.00  0.00    +0.000 A 
ATOM      8  C   UNL     1       0.271   0.260 -52.473  0.00  0.00    +0.000 A 
ENDROOT
BRANCH   5  10
ATOM      9  F   UNL     1      -9.482  -0.819 -53.616  0.00  0.00    +0.000 F 
ATOM     10  C   UNL     1      -5.417  -0.269 -53.084  0.00  0.00    +0.000 A 
ATOM     11  C   UNL     1      -6.090   0.354 -54.148  0.00  0.00    +0.000 A 
ATOM     12  C   UNL     1      -6.161  -1.027 -52.168  0.00  0.00    +0.000 A 
ATOM     13  C   UNL     1      -7.464   0.173 -54.328  0.00  0.00    +0.000 A 
ATOM     14  C   UNL     1      -7.533  -1.218 -52.353  0.00  0.00    +0.000 A 
ATOM     15  C   UNL     1      -8.168  -0.623 -53.436  0.00  0.00    +0.000 A 
ENDBRANCH   5  10
BRANCH   4  17
ATOM     16  N   UNL     1      -4.292   2.965 -51.502  0.00  0.00    +0.000 NA
ATOM     17  C   UNL     1      -3.806   1.789 -51.225  0.00  0.00    +0.000 C 
BRANCH  16  18
ATOM     18  O   UNL     1      -4.430   3.155 -52.882  0.00  0.00    +0.000 OA
BRANCH  18  19
ATOM     19  C   UNL     1      -4.649   4.537 -53.169  0.00  0.00    +0.000 C 
BRANCH  19  22
ATOM     20 CL   UNL     1      -2.880   7.659 -56.956  0.00  0.00    +0.000 Cl
ATOM     21 CL   UNL     1      -3.608   5.299 -59.074  0.00  0.00    +0.000 Cl
ATOM     22  C   UNL     1      -4.344   4.754 -54.629  0.00  0.00    +0.000 A 
ATOM     23  C   UNL     1      -3.795   5.958 -55.095  0.00  0.00    +0.000 A 
ATOM     24  C   UNL     1      -4.633   3.739 -55.553  0.00  0.00    +0.000 A 
ATOM     25  C   UNL     1      -3.552   6.145 -56.461  0.00  0.00    +0.000 A 
ATOM     26  C   UNL     1      -4.388   3.924 -56.913  0.00  0.00    +0.000 A 
ATOM     27  C   UNL     1      -3.857   5.128 -57.374  0.00  0.00    +0.000 A 
ENDBRANCH  19  22
ENDBRANCH  18  19
ENDBRANCH  16  18
ENDBRANCH   4  17
TORSDOF 5
ENDMDL
MODEL 9
REMARK VINA RESULT:      -4.6     17.227     18.689
REMARK  Name = 154040918
REMARK  5 active torsions:
REMARK  status: ('A' for Active; 'I' for Inactive)
REMARK    1  A    between atoms: O_5  and  N_8
REMARK    2  A    between atoms: O_5  and  C_21
REMARK    3  A    between atoms: C_9  and  C_14
REMARK    4  A    between atoms: C_10  and  C_12
REMARK    5  A    between atoms: C_20  and  C_21
REMARK                            x       y       z     vdW  Elec       q    Type
REMARK                         _______ _______ _______ _____ _____    ______ ____
ROOT
ATOM      1  S   UNL     1      -6.077   1.351 -60.881  0.00  0.00    +0.000 S 
ATOM      2  N   UNL     1      -4.657   1.144 -58.748  0.00  0.00    +0.000 N 
ATOM      3  N   UNL     1      -5.291   3.271 -58.987  0.00  0.00    +0.000 NA
ATOM      4  C   UNL     1      -4.095   1.797 -57.675  0.00  0.00    +0.000 A 
ATOM      5  C   UNL     1      -4.512   3.122 -57.848  0.00  0.00    +0.000 A 
ATOM      6  C   UNL     1      -5.317   2.073 -59.493  0.00  0.00    +0.000 A 
ATOM      7  C   UNL     1      -4.761  -0.151 -59.211  0.00  0.00    +0.000 A 
ATOM      8  C   UNL     1      -5.467  -0.224 -60.354  0.00  0.00    +0.000 A 
ENDROOT
BRANCH   5  10
ATOM      9  F   UNL     1      -3.550   7.571 -54.597  0.00  0.00    +0.000 F 
ATOM     10  C   UNL     1      -4.238   4.250 -56.965  0.00  0.00    +0.000 A 
ATOM     11  C   UNL     1      -3.450   5.314 -57.436  0.00  0.00    +0.000 A 
ATOM     12  C   UNL     1      -4.731   4.306 -55.653  0.00  0.00    +0.000 A 
ATOM     13  C   UNL     1      -3.213   6.435 -56.637  0.00  0.00    +0.000 A 
ATOM     14  C   UNL     1      -4.504   5.432 -54.856  0.00  0.00    +0.000 A 
ATOM     15  C   UNL     1      -3.754   6.488 -55.360  0.00  0.00    +0.000 A 
ENDBRANCH   5  10
BRANCH   4  17
ATOM     16  N   UNL     1      -3.811   0.752 -55.472  0.00  0.00    +0.000 NA
ATOM     17  C   UNL     1      -3.349   1.189 -56.607  0.00  0.00    +0.000 C 
BRANCH  16  18
ATOM     18  O   UNL     1      -5.210   0.782 -55.437  0.00  0.00    +0.000 OA
BRANCH  18  19
ATOM     19  C   UNL     1      -5.661   1.284 -54.177  0.00  0.00    +0.000 C 
BRANCH  19  22
ATOM     20 CL   UNL     1      -5.270  -2.559 -50.672  0.00  0.00    +0.000 Cl
ATOM     21 CL   UNL     1      -8.343  -3.355 -51.383  0.00  0.00    +0.000 Cl
ATOM     22  C   UNL     1      -6.304   0.142 -53.435  0.00  0.00    +0.000 A 
ATOM     23  C   UNL     1      -5.598  -0.606 -52.481  0.00  0.00    +0.000 A 
ATOM     24  C   UNL     1      -7.635  -0.203 -53.715  0.00  0.00    +0.000 A 
ATOM     25  C   UNL     1      -6.210  -1.684 -51.830  0.00  0.00    +0.000 A 
ATOM     26  C   UNL     1      -8.245  -1.274 -53.065  0.00  0.00    +0.000 A 
ATOM     27  C   UNL     1      -7.534  -2.024 -52.128  0.00  0.00    +0.000 A 
ENDBRANCH  19  22
ENDBRANCH  18  19
ENDBRANCH  16  18
ENDBRANCH   4  17
TORSDOF 5
ENDMDL
MODEL 10
REMARK VINA RESULT:      -4.6     17.510     18.937
REMARK  Name = 154040918
REMARK  5 active torsions:
REMARK  status: ('A' for Active; 'I' for Inactive)
REMARK    1  A    between atoms: O_5  and  N_8
REMARK    2  A    between atoms: O_5  and  C_21
REMARK    3  A    between atoms: C_9  and  C_14
REMARK    4  A    between atoms: C_10  and  C_12
REMARK    5  A    between atoms: C_20  and  C_21
REMARK                            x       y       z     vdW  Elec       q    Type
REMARK                         _______ _______ _______ _____ _____    ______ ____
ROOT
ATOM      1  S   UNL     1      -6.046   2.691 -60.662  0.00  0.00    +0.000 S 
ATOM      2  N   UNL     1      -4.593   2.231 -58.591  0.00  0.00    +0.000 N 
ATOM      3  N   UNL     1      -4.437   4.396 -59.114  0.00  0.00    +0.000 NA
ATOM      4  C   UNL     1      -3.731   2.753 -57.655  0.00  0.00    +0.000 A 
ATOM      5  C   UNL     1      -3.657   4.107 -58.004  0.00  0.00    +0.000 A 
ATOM      6  C   UNL     1      -4.944   3.241 -59.435  0.00  0.00    +0.000 A 
ATOM      7  C   UNL     1      -5.203   1.021 -58.852  0.00  0.00    +0.000 A 
ATOM      8  C   UNL     1      -5.997   1.078 -59.936  0.00  0.00    +0.000 A 
ENDROOT
BRANCH   5  10
ATOM      9  F   UNL     1      -0.817   8.008 -55.174  0.00  0.00    +0.000 F 
ATOM     10  C   UNL     1      -2.908   5.150 -57.312  0.00  0.00    +0.000 A 
ATOM     11  C   UNL     1      -3.543   5.898 -56.306  0.00  0.00    +0.000 A 
ATOM     12  C   UNL     1      -1.570   5.437 -57.622  0.00  0.00    +0.000 A 
ATOM     13  C   UNL     1      -2.840   6.866 -55.585  0.00  0.00    +0.000 A 
ATOM     14  C   UNL     1      -0.863   6.398 -56.894  0.00  0.00    +0.000 A 
ATOM     15  C   UNL     1      -1.503   7.096 -55.877  0.00  0.00    +0.000 A 
ENDBRANCH   5  10
BRANCH   4  17
ATOM     16  N   UNL     1      -3.599   1.996 -55.324  0.00  0.00    +0.000 NA
ATOM     17  C   UNL     1      -3.153   2.045 -56.546  0.00  0.00    +0.000 C 
BRANCH  16  18
ATOM     18  O   UNL     1      -4.856   2.601 -55.207  0.00  0.00    +0.000 OA
BRANCH  18  19
ATOM     19  C   UNL     1      -5.132   2.904 -53.838  0.00  0.00    +0.000 C 
BRANCH  19  22
ATOM     20 CL   UNL     1      -8.186  -1.314 -54.142  0.00  0.00    +0.000 Cl
ATOM     21 CL   UNL     1      -7.344  -1.994 -51.074  0.00  0.00    +0.000 Cl
ATOM     22  C   UNL     1      -5.680   1.656 -53.196  0.00  0.00    +0.000 A 
ATOM     23  C   UNL     1      -6.570   0.810 -53.874  0.00  0.00    +0.000 A 
ATOM     24  C   UNL     1      -5.311   1.337 -51.880  0.00  0.00    +0.000 A 
ATOM     25  C   UNL     1      -7.090  -0.326 -53.242  0.00  0.00    +0.000 A 
ATOM     26  C   UNL     1      -5.827   0.205 -51.252  0.00  0.00    +0.000 A 
ATOM     27  C   UNL     1      -6.724  -0.625 -51.924  0.00  0.00    +0.000 A 
ENDBRANCH  19  22
ENDBRANCH  18  19
ENDBRANCH  16  18
ENDBRANCH   4  17
TORSDOF 5
ENDMDL
