MODEL 1
REMARK VINA RESULT:      -6.1      0.000      0.000
REMARK  Name = 154040921
REMARK  6 active torsions:
REMARK  status: ('A' for Active; 'I' for Inactive)
REMARK    1  A    between atoms: O_7  and  N_10
REMARK    2  A    between atoms: O_7  and  C_25
REMARK    3  A    between atoms: C_11  and  C_13
REMARK    4  A    between atoms: C_12  and  C_18
REMARK    5  A    between atoms: C_19  and  C_23
REMARK    6  A    between atoms: C_24  and  C_25
REMARK                            x       y       z     vdW  Elec       q    Type
REMARK                         _______ _______ _______ _____ _____    ______ ____
ROOT
ATOM      1  S   UNL     1     -10.658  13.812  17.971  0.00  0.00    +0.000 S 
ATOM      2  N   UNL     1     -10.261  11.322  17.484  0.00  0.00    +0.000 N 
ATOM      3  N   UNL     1     -11.490  11.503  19.339  0.00  0.00    +0.000 NA
ATOM      4  C   UNL     1     -11.245  10.169  19.048  0.00  0.00    +0.000 A 
ATOM      5  C   UNL     1     -10.470  10.025  17.890  0.00  0.00    +0.000 A 
ATOM      6  C   UNL     1     -10.858  12.138  18.395  0.00  0.00    +0.000 A 
ATOM      7  C   UNL     1      -9.667  11.971  16.421  0.00  0.00    +0.000 A 
ATOM      8  C   UNL     1      -9.766  13.307  16.528  0.00  0.00    +0.000 A 
ENDROOT
BRANCH   4   9
ATOM      9  C   UNL     1     -11.795   9.094  19.866  0.00  0.00    +0.000 A 
ATOM     10  C   UNL     1     -12.800   9.382  20.802  0.00  0.00    +0.000 A 
ATOM     11  C   UNL     1     -11.356   7.771  19.745  0.00  0.00    +0.000 A 
ATOM     12  C   UNL     1     -13.003   7.026  21.368  0.00  0.00    +0.000 A 
ATOM     13  C   UNL     1     -13.401   8.359  21.545  0.00  0.00    +0.000 A 
ATOM     14  C   UNL     1     -11.964   6.745  20.472  0.00  0.00    +0.000 A 
BRANCH  12  18
ATOM     15  F   UNL     1     -14.354   6.287  23.221  0.00  0.00    +0.000 F 
ATOM     16  F   UNL     1     -14.589   5.246  21.327  0.00  0.00    +0.000 F 
ATOM     17  F   UNL     1     -12.796   4.940  22.518  0.00  0.00    +0.000 F 
ATOM     18  C   UNL     1     -13.678   5.894  22.106  0.00  0.00    +0.000 C 
ENDBRANCH  12  18
ENDBRANCH   4   9
BRANCH   5  20
ATOM     19  N   UNL     1     -10.592   8.328  16.121  0.00  0.00    +0.000 NA
ATOM     20  C   UNL     1     -10.055   8.839  17.190  0.00  0.00    +0.000 C 
BRANCH  19  21
ATOM     21  O   UNL     1     -11.576   9.168  15.583  0.00  0.00    +0.000 OA
BRANCH  21  22
ATOM     22  C   UNL     1     -12.804   8.453  15.434  0.00  0.00    +0.000 C 
BRANCH  22  25
ATOM     23 CL   UNL     1     -16.056   7.240  19.323  0.00  0.00    +0.000 Cl
ATOM     24 CL   UNL     1     -16.625  10.424  19.681  0.00  0.00    +0.000 Cl
ATOM     25  C   UNL     1     -13.735   8.909  16.527  0.00  0.00    +0.000 A 
ATOM     26  C   UNL     1     -14.391   7.991  17.357  0.00  0.00    +0.000 A 
ATOM     27  C   UNL     1     -13.975  10.278  16.707  0.00  0.00    +0.000 A 
ATOM     28  C   UNL     1     -15.281   8.436  18.344  0.00  0.00    +0.000 A 
ATOM     29  C   UNL     1     -14.860  10.724  17.690  0.00  0.00    +0.000 A 
ATOM     30  C   UNL     1     -15.521   9.804  18.506  0.00  0.00    +0.000 A 
ENDBRANCH  22  25
ENDBRANCH  21  22
ENDBRANCH  19  21
ENDBRANCH   5  20
TORSDOF 6
ENDMDL
MODEL 2
REMARK VINA RESULT:      -5.8     11.371     14.616
REMARK  Name = 154040921
REMARK  6 active torsions:
REMARK  status: ('A' for Active; 'I' for Inactive)
REMARK    1  A    between atoms: O_7  and  N_10
REMARK    2  A    between atoms: O_7  and  C_25
REMARK    3  A    between atoms: C_11  and  C_13
REMARK    4  A    between atoms: C_12  and  C_18
REMARK    5  A    between atoms: C_19  and  C_23
REMARK    6  A    between atoms: C_24  and  C_25
REMARK                            x       y       z     vdW  Elec       q    Type
REMARK                         _______ _______ _______ _____ _____    ______ ____
ROOT
ATOM      1  S   UNL     1     -16.745   4.740  25.015  0.00  0.00    +0.000 S 
ATOM      2  N   UNL     1     -16.824   2.912  26.818  0.00  0.00    +0.000 N 
ATOM      3  N   UNL     1     -17.564   4.823  27.702  0.00  0.00    +0.000 NA
ATOM      4  C   UNL     1     -17.582   3.812  28.651  0.00  0.00    +0.000 A 
ATOM      5  C   UNL     1     -17.117   2.599  28.125  0.00  0.00    +0.000 A 
ATOM      6  C   UNL     1     -17.078   4.238  26.646  0.00  0.00    +0.000 A 
ATOM      7  C   UNL     1     -16.400   2.249  25.684  0.00  0.00    +0.000 A 
ATOM      8  C   UNL     1     -16.283   3.076  24.631  0.00  0.00    +0.000 A 
ENDROOT
BRANCH   4   9
ATOM      9  C   UNL     1     -18.078   4.039  30.003  0.00  0.00    +0.000 A 
ATOM     10  C   UNL     1     -19.454   3.938  30.260  0.00  0.00    +0.000 A 
ATOM     11  C   UNL     1     -17.222   4.349  31.065  0.00  0.00    +0.000 A 
ATOM     12  C   UNL     1     -19.079   4.316  32.633  0.00  0.00    +0.000 A 
ATOM     13  C   UNL     1     -19.951   4.073  31.563  0.00  0.00    +0.000 A 
ATOM     14  C   UNL     1     -17.712   4.467  32.368  0.00  0.00    +0.000 A 
BRANCH  12  18
ATOM     15  F   UNL     1     -18.815   5.190  34.862  0.00  0.00    +0.000 F 
ATOM     16  F   UNL     1     -20.841   4.906  34.127  0.00  0.00    +0.000 F 
ATOM     17  F   UNL     1     -19.630   3.182  34.664  0.00  0.00    +0.000 F 
ATOM     18  C   UNL     1     -19.577   4.401  34.056  0.00  0.00    +0.000 C 
ENDBRANCH  12  18
ENDBRANCH   4   9
BRANCH   5  20
ATOM     19  N   UNL     1     -15.990   0.719  29.229  0.00  0.00    +0.000 NA
ATOM     20  C   UNL     1     -17.042   1.294  28.722  0.00  0.00    +0.000 C 
BRANCH  19  21
ATOM     21  O   UNL     1     -14.900   1.596  29.290  0.00  0.00    +0.000 OA
BRANCH  21  22
ATOM     22  C   UNL     1     -13.967   1.152  30.276  0.00  0.00    +0.000 C 
BRANCH  22  25
ATOM     23 CL   UNL     1     -13.491   5.844  32.496  0.00  0.00    +0.000 Cl
ATOM     24 CL   UNL     1     -14.548   4.508  35.269  0.00  0.00    +0.000 Cl
ATOM     25  C   UNL     1     -14.133   2.028  31.491  0.00  0.00    +0.000 A 
ATOM     26  C   UNL     1     -13.800   3.389  31.461  0.00  0.00    +0.000 A 
ATOM     27  C   UNL     1     -14.606   1.472  32.688  0.00  0.00    +0.000 A 
ATOM     28  C   UNL     1     -13.928   4.176  32.613  0.00  0.00    +0.000 A 
ATOM     29  C   UNL     1     -14.736   2.254  33.836  0.00  0.00    +0.000 A 
ATOM     30  C   UNL     1     -14.391   3.606  33.804  0.00  0.00    +0.000 A 
ENDBRANCH  22  25
ENDBRANCH  21  22
ENDBRANCH  19  21
ENDBRANCH   5  20
TORSDOF 6
ENDMDL
MODEL 3
REMARK VINA RESULT:      -5.6     21.494     23.284
REMARK  Name = 154040921
REMARK  6 active torsions:
REMARK  status: ('A' for Active; 'I' for Inactive)
REMARK    1  A    between atoms: O_7  and  N_10
REMARK    2  A    between atoms: O_7  and  C_25
REMARK    3  A    between atoms: C_11  and  C_13
REMARK    4  A    between atoms: C_12  and  C_18
REMARK    5  A    between atoms: C_19  and  C_23
REMARK    6  A    between atoms: C_24  and  C_25
REMARK                            x       y       z     vdW  Elec       q    Type
REMARK                         _______ _______ _______ _____ _____    ______ ____
ROOT
ATOM      1  S   UNL     1      -5.029 -13.737   7.103  0.00  0.00    +0.000 S 
ATOM      2  N   UNL     1      -4.738 -11.396   8.122  0.00  0.00    +0.000 N 
ATOM      3  N   UNL     1      -3.945 -12.909   9.560  0.00  0.00    +0.000 NA
ATOM      4  C   UNL     1      -3.814 -11.630  10.080  0.00  0.00    +0.000 A 
ATOM      5  C   UNL     1      -4.309 -10.659   9.200  0.00  0.00    +0.000 A 
ATOM      6  C   UNL     1      -4.524 -12.709   8.412  0.00  0.00    +0.000 A 
ATOM      7  C   UNL     1      -5.262 -11.155   6.869  0.00  0.00    +0.000 A 
ATOM      8  C   UNL     1      -5.499 -12.293   6.194  0.00  0.00    +0.000 A 
ENDROOT
BRANCH   4   9
ATOM      9  C   UNL     1      -3.188 -11.391  11.375  0.00  0.00    +0.000 A 
ATOM     10  C   UNL     1      -2.343 -10.283  11.540  0.00  0.00    +0.000 A 
ATOM     11  C   UNL     1      -3.408 -12.231  12.472  0.00  0.00    +0.000 A 
ATOM     12  C   UNL     1      -2.071 -10.791  13.903  0.00  0.00    +0.000 A 
ATOM     13  C   UNL     1      -1.790  -9.983  12.792  0.00  0.00    +0.000 A 
ATOM     14  C   UNL     1      -2.873 -11.926  13.726  0.00  0.00    +0.000 A 
BRANCH  12  18
ATOM     15  F   UNL     1      -0.550 -11.283  15.705  0.00  0.00    +0.000 F 
ATOM     16  F   UNL     1      -1.030  -9.195  15.336  0.00  0.00    +0.000 F 
ATOM     17  F   UNL     1      -2.512 -10.507  16.235  0.00  0.00    +0.000 F 
ATOM     18  C   UNL     1      -1.544 -10.456  15.278  0.00  0.00    +0.000 C 
ENDBRANCH  12  18
ENDBRANCH   4   9
BRANCH   5  20
ATOM     19  N   UNL     1      -5.132  -8.476   9.964  0.00  0.00    +0.000 NA
ATOM     20  C   UNL     1      -4.301  -9.225   9.297  0.00  0.00    +0.000 C 
BRANCH  19  21
ATOM     21  O   UNL     1      -5.997  -9.241  10.757  0.00  0.00    +0.000 OA
BRANCH  21  22
ATOM     22  C   UNL     1      -6.044  -8.713  12.083  0.00  0.00    +0.000 C 
BRANCH  22  25
ATOM     23 CL   UNL     1      -5.483 -10.737  16.854  0.00  0.00    +0.000 Cl
ATOM     24 CL   UNL     1      -6.826 -13.476  15.720  0.00  0.00    +0.000 Cl
ATOM     25  C   UNL     1      -6.255  -9.867  13.028  0.00  0.00    +0.000 A 
ATOM     26  C   UNL     1      -5.846  -9.799  14.366  0.00  0.00    +0.000 A 
ATOM     27  C   UNL     1      -6.851 -11.047  12.560  0.00  0.00    +0.000 A 
ATOM     28  C   UNL     1      -6.020 -10.898  15.219  0.00  0.00    +0.000 A 
ATOM     29  C   UNL     1      -7.026 -12.142  13.407  0.00  0.00    +0.000 A 
ATOM     30  C   UNL     1      -6.605 -12.073  14.736  0.00  0.00    +0.000 A 
ENDBRANCH  22  25
ENDBRANCH  21  22
ENDBRANCH  19  21
ENDBRANCH   5  20
TORSDOF 6
ENDMDL
MODEL 4
REMARK VINA RESULT:      -5.3     33.721     35.511
REMARK  Name = 154040921
REMARK  6 active torsions:
REMARK  status: ('A' for Active; 'I' for Inactive)
REMARK    1  A    between atoms: O_7  and  N_10
REMARK    2  A    between atoms: O_7  and  C_25
REMARK    3  A    between atoms: C_11  and  C_13
REMARK    4  A    between atoms: C_12  and  C_18
REMARK    5  A    between atoms: C_19  and  C_23
REMARK    6  A    between atoms: C_24  and  C_25
REMARK                            x       y       z     vdW  Elec       q    Type
REMARK                         _______ _______ _______ _____ _____    ______ ____
ROOT
ATOM      1  S   UNL     1      18.082  -9.693  27.234  0.00  0.00    +0.000 S 
ATOM      2  N   UNL     1      19.339  -8.484  25.347  0.00  0.00    +0.000 N 
ATOM      3  N   UNL     1      17.547  -7.276  25.906  0.00  0.00    +0.000 NA
ATOM      4  C   UNL     1      18.247  -6.658  24.881  0.00  0.00    +0.000 A 
ATOM      5  C   UNL     1      19.376  -7.398  24.505  0.00  0.00    +0.000 A 
ATOM      6  C   UNL     1      18.224  -8.366  26.120  0.00  0.00    +0.000 A 
ATOM      7  C   UNL     1      20.125  -9.583  25.625  0.00  0.00    +0.000 A 
ATOM      8  C   UNL     1      19.595 -10.351  26.592  0.00  0.00    +0.000 A 
ENDROOT
BRANCH   4   9
ATOM      9  C   UNL     1      17.830  -5.372  24.333  0.00  0.00    +0.000 A 
ATOM     10  C   UNL     1      16.821  -4.642  24.979  0.00  0.00    +0.000 A 
ATOM     11  C   UNL     1      18.410  -4.833  23.180  0.00  0.00    +0.000 A 
ATOM     12  C   UNL     1      17.088  -2.806  23.406  0.00  0.00    +0.000 A 
ATOM     13  C   UNL     1      16.454  -3.369  24.522  0.00  0.00    +0.000 A 
ATOM     14  C   UNL     1      18.059  -3.558  22.731  0.00  0.00    +0.000 A 
BRANCH  12  18
ATOM     15  F   UNL     1      16.798  -0.469  23.912  0.00  0.00    +0.000 F 
ATOM     16  F   UNL     1      17.627  -0.981  21.969  0.00  0.00    +0.000 F 
ATOM     17  F   UNL     1      15.520  -1.326  22.375  0.00  0.00    +0.000 F 
ATOM     18  C   UNL     1      16.761  -1.411  22.930  0.00  0.00    +0.000 C 
ENDBRANCH  12  18
ENDBRANCH   4   9
BRANCH   5  20
ATOM     19  N   UNL     1      21.476  -6.370  23.755  0.00  0.00    +0.000 NA
ATOM     20  C   UNL     1      20.413  -7.096  23.556  0.00  0.00    +0.000 C 
BRANCH  19  21
ATOM     21  O   UNL     1      21.613  -6.011  25.102  0.00  0.00    +0.000 OA
BRANCH  21  22
ATOM     22  C   UNL     1      21.810  -4.602  25.217  0.00  0.00    +0.000 C 
BRANCH  22  25
ATOM     23 CL   UNL     1      18.586  -5.298  29.254  0.00  0.00    +0.000 Cl
ATOM     24 CL   UNL     1      17.359  -2.350  28.629  0.00  0.00    +0.000 Cl
ATOM     25  C   UNL     1      20.725  -4.059  26.111  0.00  0.00    +0.000 A 
ATOM     26  C   UNL     1      20.208  -4.813  27.172  0.00  0.00    +0.000 A 
ATOM     27  C   UNL     1      20.199  -2.782  25.867  0.00  0.00    +0.000 A 
ATOM     28  C   UNL     1      19.174  -4.303  27.969  0.00  0.00    +0.000 A 
ATOM     29  C   UNL     1      19.172  -2.271  26.660  0.00  0.00    +0.000 A 
ATOM     30  C   UNL     1      18.651  -3.032  27.708  0.00  0.00    +0.000 A 
ENDBRANCH  22  25
ENDBRANCH  21  22
ENDBRANCH  19  21
ENDBRANCH   5  20
TORSDOF 6
ENDMDL
MODEL 5
REMARK VINA RESULT:      -5.2     25.651     27.645
REMARK  Name = 154040921
REMARK  6 active torsions:
REMARK  status: ('A' for Active; 'I' for Inactive)
REMARK    1  A    between atoms: O_7  and  N_10
REMARK    2  A    between atoms: O_7  and  C_25
REMARK    3  A    between atoms: C_11  and  C_13
REMARK    4  A    between atoms: C_12  and  C_18
REMARK    5  A    between atoms: C_19  and  C_23
REMARK    6  A    between atoms: C_24  and  C_25
REMARK                            x       y       z     vdW  Elec       q    Type
REMARK                         _______ _______ _______ _____ _____    ______ ____
ROOT
ATOM      1  S   UNL     1      11.613  13.395  25.516  0.00  0.00    +0.000 S 
ATOM      2  N   UNL     1      13.307  13.335  23.586  0.00  0.00    +0.000 N 
ATOM      3  N   UNL     1      11.706  11.833  23.182  0.00  0.00    +0.000 NA
ATOM      4  C   UNL     1      12.647  11.823  22.163  0.00  0.00    +0.000 A 
ATOM      5  C   UNL     1      13.669  12.754  22.393  0.00  0.00    +0.000 A 
ATOM      6  C   UNL     1      12.165  12.727  24.009  0.00  0.00    +0.000 A 
ATOM      7  C   UNL     1      13.758  14.354  24.399  0.00  0.00    +0.000 A 
ATOM      8  C   UNL     1      12.986  14.512  25.487  0.00  0.00    +0.000 A 
ENDROOT
BRANCH   4   9
ATOM      9  C   UNL     1      12.508  10.954  21.001  0.00  0.00    +0.000 A 
ATOM     10  C   UNL     1      13.050  11.355  19.770  0.00  0.00    +0.000 A 
ATOM     11  C   UNL     1      11.853   9.720  21.071  0.00  0.00    +0.000 A 
ATOM     12  C   UNL     1      12.404   9.243  18.752  0.00  0.00    +0.000 A 
ATOM     13  C   UNL     1      13.002  10.508  18.656  0.00  0.00    +0.000 A 
ATOM     14  C   UNL     1      11.818   8.865  19.967  0.00  0.00    +0.000 A 
BRANCH  12  18
ATOM     15  F   UNL     1      12.745   7.009  17.919  0.00  0.00    +0.000 F 
ATOM     16  F   UNL     1      11.165   8.191  17.008  0.00  0.00    +0.000 F 
ATOM     17  F   UNL     1      13.246   8.659  16.592  0.00  0.00    +0.000 F 
ATOM     18  C   UNL     1      12.395   8.282  17.588  0.00  0.00    +0.000 C 
ENDBRANCH  12  18
ENDBRANCH   4   9
BRANCH   5  20
ATOM     19  N   UNL     1      15.934  12.523  21.477  0.00  0.00    +0.000 NA
ATOM     20  C   UNL     1      14.787  13.130  21.571  0.00  0.00    +0.000 C 
BRANCH  19  21
ATOM     21  O   UNL     1      15.935  11.306  22.171  0.00  0.00    +0.000 OA
BRANCH  21  22
ATOM     22  C   UNL     1      17.227  10.702  22.102  0.00  0.00    +0.000 C 
BRANCH  22  25
ATOM     23 CL   UNL     1      19.285   6.149  20.617  0.00  0.00    +0.000 Cl
ATOM     24 CL   UNL     1      16.593   5.639  18.862  0.00  0.00    +0.000 Cl
ATOM     25  C   UNL     1      17.089   9.412  21.335  0.00  0.00    +0.000 A 
ATOM     26  C   UNL     1      18.111   8.454  21.328  0.00  0.00    +0.000 A 
ATOM     27  C   UNL     1      15.927   9.169  20.589  0.00  0.00    +0.000 A 
ATOM     28  C   UNL     1      17.977   7.278  20.579  0.00  0.00    +0.000 A 
ATOM     29  C   UNL     1      15.790   7.998  19.844  0.00  0.00    +0.000 A 
ATOM     30  C   UNL     1      16.817   7.052  19.830  0.00  0.00    +0.000 A 
ENDBRANCH  22  25
ENDBRANCH  21  22
ENDBRANCH  19  21
ENDBRANCH   5  20
TORSDOF 6
ENDMDL
MODEL 6
REMARK VINA RESULT:      -5.2     10.730     13.430
REMARK  Name = 154040921
REMARK  6 active torsions:
REMARK  status: ('A' for Active; 'I' for Inactive)
REMARK    1  A    between atoms: O_7  and  N_10
REMARK    2  A    between atoms: O_7  and  C_25
REMARK    3  A    between atoms: C_11  and  C_13
REMARK    4  A    between atoms: C_12  and  C_18
REMARK    5  A    between atoms: C_19  and  C_23
REMARK    6  A    between atoms: C_24  and  C_25
REMARK                            x       y       z     vdW  Elec       q    Type
REMARK                         _______ _______ _______ _____ _____    ______ ____
ROOT
ATOM      1  S   UNL     1     -17.865   5.078  23.432  0.00  0.00    +0.000 S 
ATOM      2  N   UNL     1     -18.912   4.478  25.700  0.00  0.00    +0.000 N 
ATOM      3  N   UNL     1     -16.768   3.855  25.712  0.00  0.00    +0.000 NA
ATOM      4  C   UNL     1     -17.371   3.537  26.920  0.00  0.00    +0.000 A 
ATOM      5  C   UNL     1     -18.721   3.912  26.939  0.00  0.00    +0.000 A 
ATOM      6  C   UNL     1     -17.736   4.382  25.020  0.00  0.00    +0.000 A 
ATOM      7  C   UNL     1     -19.926   5.122  25.021  0.00  0.00    +0.000 A 
ATOM      8  C   UNL     1     -19.549   5.493  23.786  0.00  0.00    +0.000 A 
ENDROOT
BRANCH   4   9
ATOM      9  C   UNL     1     -16.623   2.927  28.012  0.00  0.00    +0.000 A 
ATOM     10  C   UNL     1     -16.881   1.593  28.365  0.00  0.00    +0.000 A 
ATOM     11  C   UNL     1     -15.643   3.628  28.723  0.00  0.00    +0.000 A 
ATOM     12  C   UNL     1     -15.097   1.645  30.018  0.00  0.00    +0.000 A 
ATOM     13  C   UNL     1     -16.124   0.956  29.357  0.00  0.00    +0.000 A 
ATOM     14  C   UNL     1     -14.875   2.991  29.701  0.00  0.00    +0.000 A 
BRANCH  12  18
ATOM     15  F   UNL     1     -13.509  -0.085  30.553  0.00  0.00    +0.000 F 
ATOM     16  F   UNL     1     -13.305   1.819  31.581  0.00  0.00    +0.000 F 
ATOM     17  F   UNL     1     -14.935   0.477  32.097  0.00  0.00    +0.000 F 
ATOM     18  C   UNL     1     -14.222   0.965  31.044  0.00  0.00    +0.000 C 
ENDBRANCH  12  18
ENDBRANCH   4   9
BRANCH   5  20
ATOM     19  N   UNL     1     -19.666   4.493  29.129  0.00  0.00    +0.000 NA
ATOM     20  C   UNL     1     -19.690   3.846  27.999  0.00  0.00    +0.000 C 
BRANCH  19  21
ATOM     21  O   UNL     1     -18.632   5.437  29.163  0.00  0.00    +0.000 OA
BRANCH  21  22
ATOM     22  C   UNL     1     -18.673   6.166  30.391  0.00  0.00    +0.000 C 
BRANCH  22  25
ATOM     23 CL   UNL     1     -13.895   6.824  32.367  0.00  0.00    +0.000 Cl
ATOM     24 CL   UNL     1     -14.221   3.925  33.808  0.00  0.00    +0.000 Cl
ATOM     25  C   UNL     1     -17.556   5.656  31.264  0.00  0.00    +0.000 A 
ATOM     26  C   UNL     1     -16.369   6.382  31.429  0.00  0.00    +0.000 A 
ATOM     27  C   UNL     1     -17.689   4.418  31.908  0.00  0.00    +0.000 A 
ATOM     28  C   UNL     1     -15.329   5.872  32.217  0.00  0.00    +0.000 A 
ATOM     29  C   UNL     1     -16.656   3.908  32.694  0.00  0.00    +0.000 A 
ATOM     30  C   UNL     1     -15.470   4.630  32.845  0.00  0.00    +0.000 A 
ENDBRANCH  22  25
ENDBRANCH  21  22
ENDBRANCH  19  21
ENDBRANCH   5  20
TORSDOF 6
ENDMDL
MODEL 7
REMARK VINA RESULT:      -5.2     33.849     35.534
REMARK  Name = 154040921
REMARK  6 active torsions:
REMARK  status: ('A' for Active; 'I' for Inactive)
REMARK    1  A    between atoms: O_7  and  N_10
REMARK    2  A    between atoms: O_7  and  C_25
REMARK    3  A    between atoms: C_11  and  C_13
REMARK    4  A    between atoms: C_12  and  C_18
REMARK    5  A    between atoms: C_19  and  C_23
REMARK    6  A    between atoms: C_24  and  C_25
REMARK                            x       y       z     vdW  Elec       q    Type
REMARK                         _______ _______ _______ _____ _____    ______ ____
ROOT
ATOM      1  S   UNL     1      18.955  -2.769  31.951  0.00  0.00    +0.000 S 
ATOM      2  N   UNL     1      20.396  -2.098  29.933  0.00  0.00    +0.000 N 
ATOM      3  N   UNL     1      18.379  -2.715  29.201  0.00  0.00    +0.000 NA
ATOM      4  C   UNL     1      19.192  -2.353  28.136  0.00  0.00    +0.000 A 
ATOM      5  C   UNL     1      20.468  -1.966  28.566  0.00  0.00    +0.000 A 
ATOM      6  C   UNL     1      19.156  -2.571  30.235  0.00  0.00    +0.000 A 
ATOM      7  C   UNL     1      21.204  -1.846  31.022  0.00  0.00    +0.000 A 
ATOM      8  C   UNL     1      20.603  -2.166  32.181  0.00  0.00    +0.000 A 
ENDROOT
BRANCH   4   9
ATOM      9  C   UNL     1      18.701  -2.357  26.763  0.00  0.00    +0.000 A 
ATOM     10  C   UNL     1      17.645  -3.210  26.409  0.00  0.00    +0.000 A 
ATOM     11  C   UNL     1      19.247  -1.527  25.778  0.00  0.00    +0.000 A 
ATOM     12  C   UNL     1      17.608  -2.295  24.156  0.00  0.00    +0.000 A 
ATOM     13  C   UNL     1      17.102  -3.180  25.118  0.00  0.00    +0.000 A 
ATOM     14  C   UNL     1      18.696  -1.480  24.495  0.00  0.00    +0.000 A 
BRANCH  12  18
ATOM     15  F   UNL     1      15.977  -3.064  22.559  0.00  0.00    +0.000 F 
ATOM     16  F   UNL     1      16.491  -0.952  22.533  0.00  0.00    +0.000 F 
ATOM     17  F   UNL     1      17.908  -2.422  21.788  0.00  0.00    +0.000 F 
ATOM     18  C   UNL     1      17.000  -2.193  22.778  0.00  0.00    +0.000 C 
ENDBRANCH  12  18
ENDBRANCH   4   9
BRANCH   5  20
ATOM     19  N   UNL     1      22.449  -2.126  27.125  0.00  0.00    +0.000 NA
ATOM     20  C   UNL     1      21.583  -1.448  27.821  0.00  0.00    +0.000 C 
BRANCH  19  21
ATOM     21  O   UNL     1      22.091  -3.477  27.029  0.00  0.00    +0.000 OA
BRANCH  21  22
ATOM     22  C   UNL     1      22.242  -3.930  25.683  0.00  0.00    +0.000 C 
BRANCH  22  25
ATOM     23 CL   UNL     1      18.785  -5.664  22.188  0.00  0.00    +0.000 Cl
ATOM     24 CL   UNL     1      17.424  -7.406  24.576  0.00  0.00    +0.000 Cl
ATOM     25  C   UNL     1      21.064  -4.812  25.361  0.00  0.00    +0.000 A 
ATOM     26  C   UNL     1      20.520  -4.862  24.071  0.00  0.00    +0.000 A 
ATOM     27  C   UNL     1      20.479  -5.584  26.375  0.00  0.00    +0.000 A 
ATOM     28  C   UNL     1      19.401  -5.662  23.803  0.00  0.00    +0.000 A 
ATOM     29  C   UNL     1      19.366  -6.383  26.110  0.00  0.00    +0.000 A 
ATOM     30  C   UNL     1      18.820  -6.419  24.826  0.00  0.00    +0.000 A 
ENDBRANCH  22  25
ENDBRANCH  21  22
ENDBRANCH  19  21
ENDBRANCH   5  20
TORSDOF 6
ENDMDL
MODEL 8
REMARK VINA RESULT:      -5.2     16.740     19.166
REMARK  Name = 154040921
REMARK  6 active torsions:
REMARK  status: ('A' for Active; 'I' for Inactive)
REMARK    1  A    between atoms: O_7  and  N_10
REMARK    2  A    between atoms: O_7  and  C_25
REMARK    3  A    between atoms: C_11  and  C_13
REMARK    4  A    between atoms: C_12  and  C_18
REMARK    5  A    between atoms: C_19  and  C_23
REMARK    6  A    between atoms: C_24  and  C_25
REMARK                            x       y       z     vdW  Elec       q    Type
REMARK                         _______ _______ _______ _____ _____    ______ ____
ROOT
ATOM      1  S   UNL     1       6.722  20.233  17.587  0.00  0.00    +0.000 S 
ATOM      2  N   UNL     1       6.689  17.758  18.277  0.00  0.00    +0.000 N 
ATOM      3  N   UNL     1       4.656  18.622  18.604  0.00  0.00    +0.000 NA
ATOM      4  C   UNL     1       4.681  17.285  18.976  0.00  0.00    +0.000 A 
ATOM      5  C   UNL     1       5.948  16.718  18.786  0.00  0.00    +0.000 A 
ATOM      6  C   UNL     1       5.880  18.852  18.226  0.00  0.00    +0.000 A 
ATOM      7  C   UNL     1       7.964  17.955  17.789  0.00  0.00    +0.000 A 
ATOM      8  C   UNL     1       8.164  19.224  17.396  0.00  0.00    +0.000 A 
ENDROOT
BRANCH   4   9
ATOM      9  C   UNL     1       3.486  16.603  19.458  0.00  0.00    +0.000 A 
ATOM     10  C   UNL     1       2.979  16.913  20.728  0.00  0.00    +0.000 A 
ATOM     11  C   UNL     1       2.817  15.645  18.688  0.00  0.00    +0.000 A 
ATOM     12  C   UNL     1       1.087  15.424  20.380  0.00  0.00    +0.000 A 
ATOM     13  C   UNL     1       1.789  16.331  21.186  0.00  0.00    +0.000 A 
ATOM     14  C   UNL     1       1.621  15.076  19.133  0.00  0.00    +0.000 A 
BRANCH  12  18
ATOM     15  F   UNL     1      -0.561  15.112  22.109  0.00  0.00    +0.000 F 
ATOM     16  F   UNL     1      -1.272  15.281  20.062  0.00  0.00    +0.000 F 
ATOM     17  F   UNL     1      -0.255  13.473  20.711  0.00  0.00    +0.000 F 
ATOM     18  C   UNL     1      -0.231  14.831  20.818  0.00  0.00    +0.000 C 
ENDBRANCH  12  18
ENDBRANCH   4   9
BRANCH   5  20
ATOM     19  N   UNL     1       7.052  14.875  19.973  0.00  0.00    +0.000 NA
ATOM     20  C   UNL     1       6.396  15.363  18.960  0.00  0.00    +0.000 C 
BRANCH  19  21
ATOM     21  O   UNL     1       7.157  15.802  21.017  0.00  0.00    +0.000 OA
BRANCH  21  22
ATOM     22  C   UNL     1       6.939  15.155  22.272  0.00  0.00    +0.000 C 
BRANCH  22  25
ATOM     23 CL   UNL     1       2.531  16.665  24.609  0.00  0.00    +0.000 Cl
ATOM     24 CL   UNL     1       4.166  19.225  25.775  0.00  0.00    +0.000 Cl
ATOM     25  C   UNL     1       6.223  16.130  23.171  0.00  0.00    +0.000 A 
ATOM     26  C   UNL     1       4.864  15.979  23.475  0.00  0.00    +0.000 A 
ATOM     27  C   UNL     1       6.919  17.227  23.697  0.00  0.00    +0.000 A 
ATOM     28  C   UNL     1       4.210  16.918  24.285  0.00  0.00    +0.000 A 
ATOM     29  C   UNL     1       6.270  18.162  24.505  0.00  0.00    +0.000 A 
ATOM     30  C   UNL     1       4.913  18.014  24.795  0.00  0.00    +0.000 A 
ENDBRANCH  22  25
ENDBRANCH  21  22
ENDBRANCH  19  21
ENDBRANCH   5  20
TORSDOF 6
ENDMDL
MODEL 9
REMARK VINA RESULT:      -5.2     20.703     22.892
REMARK  Name = 154040921
REMARK  6 active torsions:
REMARK  status: ('A' for Active; 'I' for Inactive)
REMARK    1  A    between atoms: O_7  and  N_10
REMARK    2  A    between atoms: O_7  and  C_25
REMARK    3  A    between atoms: C_11  and  C_13
REMARK    4  A    between atoms: C_12  and  C_18
REMARK    5  A    between atoms: C_19  and  C_23
REMARK    6  A    between atoms: C_24  and  C_25
REMARK                            x       y       z     vdW  Elec       q    Type
REMARK                         _______ _______ _______ _____ _____    ______ ____
ROOT
ATOM      1  S   UNL     1     -11.487 -13.013  15.233  0.00  0.00    +0.000 S 
ATOM      2  N   UNL     1      -9.756 -11.195  15.777  0.00  0.00    +0.000 N 
ATOM      3  N   UNL     1      -9.025 -12.383  14.034  0.00  0.00    +0.000 NA
ATOM      4  C   UNL     1      -8.110 -11.394  14.364  0.00  0.00    +0.000 A 
ATOM      5  C   UNL     1      -8.540 -10.635  15.460  0.00  0.00    +0.000 A 
ATOM      6  C   UNL     1      -9.964 -12.234  14.922  0.00  0.00    +0.000 A 
ATOM      7  C   UNL     1     -10.784 -10.957  16.665  0.00  0.00    +0.000 A 
ATOM      8  C   UNL     1     -11.783 -11.846  16.531  0.00  0.00    +0.000 A 
ENDROOT
BRANCH   4   9
ATOM      9  C   UNL     1      -6.887 -11.196  13.596  0.00  0.00    +0.000 A 
ATOM     10  C   UNL     1      -6.457 -12.196  12.711  0.00  0.00    +0.000 A 
ATOM     11  C   UNL     1      -6.124 -10.028  13.705  0.00  0.00    +0.000 A 
ATOM     12  C   UNL     1      -4.609 -10.799  11.968  0.00  0.00    +0.000 A 
ATOM     13  C   UNL     1      -5.329 -12.000  11.902  0.00  0.00    +0.000 A 
ATOM     14  C   UNL     1      -5.009  -9.822  12.888  0.00  0.00    +0.000 A 
BRANCH  12  18
ATOM     15  F   UNL     1      -2.400  -9.885  11.673  0.00  0.00    +0.000 F 
ATOM     16  F   UNL     1      -2.900 -11.684  10.560  0.00  0.00    +0.000 F 
ATOM     17  F   UNL     1      -3.763  -9.775   9.980  0.00  0.00    +0.000 F 
ATOM     18  C   UNL     1      -3.430 -10.533  11.063  0.00  0.00    +0.000 C 
ENDBRANCH  12  18
ENDBRANCH   4   9
BRANCH   5  20
ATOM     19  N   UNL     1      -7.176  -9.452  17.123  0.00  0.00    +0.000 NA
ATOM     20  C   UNL     1      -7.953  -9.478  16.079  0.00  0.00    +0.000 C 
BRANCH  19  21
ATOM     21  O   UNL     1      -6.810 -10.742  17.528  0.00  0.00    +0.000 OA
BRANCH  21  22
ATOM     22  C   UNL     1      -5.472 -10.739  18.028  0.00  0.00    +0.000 C 
BRANCH  22  25
ATOM     23 CL   UNL     1      -1.395  -9.987  14.868  0.00  0.00    +0.000 Cl
ATOM     24 CL   UNL     1      -2.041 -12.886  13.539  0.00  0.00    +0.000 Cl
ATOM     25  C   UNL     1      -4.574 -11.256  16.935  0.00  0.00    +0.000 A 
ATOM     26  C   UNL     1      -3.499 -10.499  16.453  0.00  0.00    +0.000 A 
ATOM     27  C   UNL     1      -4.827 -12.513  16.366  0.00  0.00    +0.000 A 
ATOM     28  C   UNL     1      -2.698 -10.985  15.411  0.00  0.00    +0.000 A 
ATOM     29  C   UNL     1      -4.030 -13.000  15.329  0.00  0.00    +0.000 A 
ATOM     30  C   UNL     1      -2.968 -12.235  14.844  0.00  0.00    +0.000 A 
ENDBRANCH  22  25
ENDBRANCH  21  22
ENDBRANCH  19  21
ENDBRANCH   5  20
TORSDOF 6
ENDMDL
MODEL 10
REMARK VINA RESULT:      -5.1     32.323     34.149
REMARK  Name = 154040921
REMARK  6 active torsions:
REMARK  status: ('A' for Active; 'I' for Inactive)
REMARK    1  A    between atoms: O_7  and  N_10
REMARK    2  A    between atoms: O_7  and  C_25
REMARK    3  A    between atoms: C_11  and  C_13
REMARK    4  A    between atoms: C_12  and  C_18
REMARK    5  A    between atoms: C_19  and  C_23
REMARK    6  A    between atoms: C_24  and  C_25
REMARK                            x       y       z     vdW  Elec       q    Type
REMARK                         _______ _______ _______ _____ _____    ______ ____
ROOT
ATOM      1  S   UNL     1      22.228   9.172  25.183  0.00  0.00    +0.000 S 
ATOM      2  N   UNL     1      22.167   8.061  22.867  0.00  0.00    +0.000 N 
ATOM      3  N   UNL     1      20.074   8.502  23.507  0.00  0.00    +0.000 NA
ATOM      4  C   UNL     1      20.082   7.890  22.262  0.00  0.00    +0.000 A 
ATOM      5  C   UNL     1      21.384   7.596  21.837  0.00  0.00    +0.000 A 
ATOM      6  C   UNL     1      21.334   8.549  23.827  0.00  0.00    +0.000 A 
ATOM      7  C   UNL     1      23.512   8.190  23.143  0.00  0.00    +0.000 A 
ATOM      8  C   UNL     1      23.729   8.745  24.348  0.00  0.00    +0.000 A 
ENDROOT
BRANCH   4   9
ATOM      9  C   UNL     1      18.850   7.650  21.519  0.00  0.00    +0.000 A 
ATOM     10  C   UNL     1      17.889   8.668  21.427  0.00  0.00    +0.000 A 
ATOM     11  C   UNL     1      18.593   6.431  20.883  0.00  0.00    +0.000 A 
ATOM     12  C   UNL     1      16.515   7.294  19.964  0.00  0.00    +0.000 A 
ATOM     13  C   UNL     1      16.733   8.494  20.655  0.00  0.00    +0.000 A 
ATOM     14  C   UNL     1      17.450   6.259  20.099  0.00  0.00    +0.000 A 
BRANCH  12  18
ATOM     15  F   UNL     1      14.760   8.265  18.631  0.00  0.00    +0.000 F 
ATOM     16  F   UNL     1      15.613   6.384  17.953  0.00  0.00    +0.000 F 
ATOM     17  F   UNL     1      14.308   6.419  19.691  0.00  0.00    +0.000 F 
ATOM     18  C   UNL     1      15.312   7.101  19.073  0.00  0.00    +0.000 C 
ENDBRANCH  12  18
ENDBRANCH   4   9
BRANCH   5  20
ATOM     19  N   UNL     1      22.193   5.811  20.360  0.00  0.00    +0.000 NA
ATOM     20  C   UNL     1      21.855   7.046  20.595  0.00  0.00    +0.000 C 
BRANCH  19  21
ATOM     21  O   UNL     1      21.893   4.976  21.444  0.00  0.00    +0.000 OA
BRANCH  21  22
ATOM     22  C   UNL     1      21.650   3.645  20.986  0.00  0.00    +0.000 C 
BRANCH  22  25
ATOM     23 CL   UNL     1      23.740   1.632  25.316  0.00  0.00    +0.000 Cl
ATOM     24 CL   UNL     1      25.908   0.115  23.422  0.00  0.00    +0.000 Cl
ATOM     25  C   UNL     1      22.674   2.746  21.627  0.00  0.00    +0.000 A 
ATOM     26  C   UNL     1      22.739   2.586  23.017  0.00  0.00    +0.000 A 
ATOM     27  C   UNL     1      23.603   2.069  20.823  0.00  0.00    +0.000 A 
ATOM     28  C   UNL     1      23.723   1.772  23.594  0.00  0.00    +0.000 A 
ATOM     29  C   UNL     1      24.583   1.257  21.394  0.00  0.00    +0.000 A 
ATOM     30  C   UNL     1      24.651   1.112  22.781  0.00  0.00    +0.000 A 
ENDBRANCH  22  25
ENDBRANCH  21  22
ENDBRANCH  19  21
ENDBRANCH   5  20
TORSDOF 6
ENDMDL
