MODEL 1
REMARK VINA RESULT:      -6.6      0.000      0.000
REMARK  Name = 154040921
REMARK  6 active torsions:
REMARK  status: ('A' for Active; 'I' for Inactive)
REMARK    1  A    between atoms: O_7  and  N_10
REMARK    2  A    between atoms: O_7  and  C_25
REMARK    3  A    between atoms: C_11  and  C_13
REMARK    4  A    between atoms: C_12  and  C_18
REMARK    5  A    between atoms: C_19  and  C_23
REMARK    6  A    between atoms: C_24  and  C_25
REMARK                            x       y       z     vdW  Elec       q    Type
REMARK                         _______ _______ _______ _____ _____    ______ ____
ROOT
ATOM      1  S   UNL     1     -11.353   2.495 -31.789  0.00  0.00    +0.000 S 
ATOM      2  N   UNL     1     -11.423   3.836 -33.979  0.00  0.00    +0.000 N 
ATOM      3  N   UNL     1      -9.296   3.625 -33.334  0.00  0.00    +0.000 NA
ATOM      4  C   UNL     1      -9.375   4.355 -34.511  0.00  0.00    +0.000 A 
ATOM      5  C   UNL     1     -10.701   4.508 -34.937  0.00  0.00    +0.000 A 
ATOM      6  C   UNL     1     -10.540   3.371 -33.052  0.00  0.00    +0.000 A 
ATOM      7  C   UNL     1     -12.740   3.495 -33.751  0.00  0.00    +0.000 A 
ATOM      8  C   UNL     1     -12.890   2.794 -32.614  0.00  0.00    +0.000 A 
ENDROOT
BRANCH   4   9
ATOM      9  C   UNL     1      -8.181   4.838 -35.194  0.00  0.00    +0.000 A 
ATOM     10  C   UNL     1      -7.022   4.048 -35.202  0.00  0.00    +0.000 A 
ATOM     11  C   UNL     1      -8.152   6.071 -35.855  0.00  0.00    +0.000 A 
ATOM     12  C   UNL     1      -5.888   5.655 -36.633  0.00  0.00    +0.000 A 
ATOM     13  C   UNL     1      -5.886   4.450 -35.916  0.00  0.00    +0.000 A 
ATOM     14  C   UNL     1      -7.028   6.468 -36.582  0.00  0.00    +0.000 A 
BRANCH  12  18
ATOM     15  F   UNL     1      -4.997   7.025 -38.402  0.00  0.00    +0.000 F 
ATOM     16  F   UNL     1      -3.706   6.614 -36.702  0.00  0.00    +0.000 F 
ATOM     17  F   UNL     1      -4.137   5.044 -38.141  0.00  0.00    +0.000 F 
ATOM     18  C   UNL     1      -4.703   6.082 -37.465  0.00  0.00    +0.000 C 
ENDBRANCH  12  18
ENDBRANCH   4   9
BRANCH   5  20
ATOM     19  N   UNL     1     -11.570   6.359 -36.294  0.00  0.00    +0.000 NA
ATOM     20  C   UNL     1     -11.231   5.114 -36.128  0.00  0.00    +0.000 C 
BRANCH  19  21
ATOM     21  O   UNL     1     -11.208   7.146 -35.194  0.00  0.00    +0.000 OA
BRANCH  21  22
ATOM     22  C   UNL     1     -11.593   8.504 -35.412  0.00  0.00    +0.000 C 
BRANCH  22  25
ATOM     23 CL   UNL     1     -10.146  13.248 -33.809  0.00  0.00    +0.000 Cl
ATOM     24 CL   UNL     1      -8.391  11.797 -31.485  0.00  0.00    +0.000 Cl
ATOM     25  C   UNL     1     -10.836   9.358 -34.429  0.00  0.00    +0.000 A 
ATOM     26  C   UNL     1     -10.838  10.756 -34.524  0.00  0.00    +0.000 A 
ATOM     27  C   UNL     1     -10.091   8.749 -33.410  0.00  0.00    +0.000 A 
ATOM     28  C   UNL     1     -10.098  11.530 -33.621  0.00  0.00    +0.000 A 
ATOM     29  C   UNL     1      -9.354   9.517 -32.508  0.00  0.00    +0.000 A 
ATOM     30  C   UNL     1      -9.349  10.909 -32.615  0.00  0.00    +0.000 A 
ENDBRANCH  22  25
ENDBRANCH  21  22
ENDBRANCH  19  21
ENDBRANCH   5  20
TORSDOF 6
ENDMDL
MODEL 2
REMARK VINA RESULT:      -6.6      2.571      3.105
REMARK  Name = 154040921
REMARK  6 active torsions:
REMARK  status: ('A' for Active; 'I' for Inactive)
REMARK    1  A    between atoms: O_7  and  N_10
REMARK    2  A    between atoms: O_7  and  C_25
REMARK    3  A    between atoms: C_11  and  C_13
REMARK    4  A    between atoms: C_12  and  C_18
REMARK    5  A    between atoms: C_19  and  C_23
REMARK    6  A    between atoms: C_24  and  C_25
REMARK                            x       y       z     vdW  Elec       q    Type
REMARK                         _______ _______ _______ _____ _____    ______ ____
ROOT
ATOM      1  S   UNL     1     -11.606   2.560 -31.798  0.00  0.00    +0.000 S 
ATOM      2  N   UNL     1     -11.559   3.554 -34.167  0.00  0.00    +0.000 N 
ATOM      3  N   UNL     1      -9.489   3.590 -33.332  0.00  0.00    +0.000 NA
ATOM      4  C   UNL     1      -9.505   4.130 -34.610  0.00  0.00    +0.000 A 
ATOM      5  C   UNL     1     -10.795   4.125 -35.157  0.00  0.00    +0.000 A 
ATOM      6  C   UNL     1     -10.736   3.294 -33.113  0.00  0.00    +0.000 A 
ATOM      7  C   UNL     1     -12.869   3.158 -33.993  0.00  0.00    +0.000 A 
ATOM      8  C   UNL     1     -13.078   2.625 -32.778  0.00  0.00    +0.000 A 
ENDROOT
BRANCH   4   9
ATOM      9  C   UNL     1      -8.285   4.589 -35.263  0.00  0.00    +0.000 A 
ATOM     10  C   UNL     1      -7.383   3.648 -35.782  0.00  0.00    +0.000 A 
ATOM     11  C   UNL     1      -7.983   5.948 -35.399  0.00  0.00    +0.000 A 
ATOM     12  C   UNL     1      -5.983   5.424 -36.676  0.00  0.00    +0.000 A 
ATOM     13  C   UNL     1      -6.243   4.059 -36.484  0.00  0.00    +0.000 A 
ATOM     14  C   UNL     1      -6.856   6.363 -36.114  0.00  0.00    +0.000 A 
BRANCH  12  18
ATOM     15  F   UNL     1      -4.009   6.796 -36.833  0.00  0.00    +0.000 F 
ATOM     16  F   UNL     1      -3.976   4.869 -37.839  0.00  0.00    +0.000 F 
ATOM     17  F   UNL     1      -5.167   6.496 -38.651  0.00  0.00    +0.000 F 
ATOM     18  C   UNL     1      -4.798   5.897 -37.484  0.00  0.00    +0.000 C 
ENDBRANCH  12  18
ENDBRANCH   4   9
BRANCH   5  20
ATOM     19  N   UNL     1     -11.517   5.712 -36.885  0.00  0.00    +0.000 NA
ATOM     20  C   UNL     1     -11.252   4.508 -36.465  0.00  0.00    +0.000 C 
BRANCH  19  21
ATOM     21  O   UNL     1     -11.148   6.682 -35.945  0.00  0.00    +0.000 OA
BRANCH  21  22
ATOM     22  C   UNL     1     -11.745   7.936 -36.274  0.00  0.00    +0.000 C 
BRANCH  22  25
ATOM     23 CL   UNL     1     -16.878   8.106 -35.386  0.00  0.00    +0.000 Cl
ATOM     24 CL   UNL     1     -16.201   9.045 -32.345  0.00  0.00    +0.000 Cl
ATOM     25  C   UNL     1     -12.881   8.169 -35.312  0.00  0.00    +0.000 A 
ATOM     26  C   UNL     1     -14.217   8.033 -35.713  0.00  0.00    +0.000 A 
ATOM     27  C   UNL     1     -12.605   8.555 -33.992  0.00  0.00    +0.000 A 
ATOM     28  C   UNL     1     -15.258   8.290 -34.812  0.00  0.00    +0.000 A 
ATOM     29  C   UNL     1     -13.641   8.810 -33.093  0.00  0.00    +0.000 A 
ATOM     30  C   UNL     1     -14.970   8.685 -33.501  0.00  0.00    +0.000 A 
ENDBRANCH  22  25
ENDBRANCH  21  22
ENDBRANCH  19  21
ENDBRANCH   5  20
TORSDOF 6
ENDMDL
MODEL 3
REMARK VINA RESULT:      -6.3     15.238     16.905
REMARK  Name = 154040921
REMARK  6 active torsions:
REMARK  status: ('A' for Active; 'I' for Inactive)
REMARK    1  A    between atoms: O_7  and  N_10
REMARK    2  A    between atoms: O_7  and  C_25
REMARK    3  A    between atoms: C_11  and  C_13
REMARK    4  A    between atoms: C_12  and  C_18
REMARK    5  A    between atoms: C_19  and  C_23
REMARK    6  A    between atoms: C_24  and  C_25
REMARK                            x       y       z     vdW  Elec       q    Type
REMARK                         _______ _______ _______ _____ _____    ______ ____
ROOT
ATOM      1  S   UNL     1      -7.784  18.020 -42.955  0.00  0.00    +0.000 S 
ATOM      2  N   UNL     1     -10.171  18.953 -42.789  0.00  0.00    +0.000 N 
ATOM      3  N   UNL     1     -10.249  16.956 -43.783  0.00  0.00    +0.000 NA
ATOM      4  C   UNL     1     -11.522  17.497 -43.684  0.00  0.00    +0.000 A 
ATOM      5  C   UNL     1     -11.503  18.755 -43.068  0.00  0.00    +0.000 A 
ATOM      6  C   UNL     1      -9.489  17.875 -43.263  0.00  0.00    +0.000 A 
ATOM      7  C   UNL     1      -9.396  19.896 -42.146  0.00  0.00    +0.000 A 
ATOM      8  C   UNL     1      -8.093  19.570 -42.158  0.00  0.00    +0.000 A 
ENDROOT
BRANCH   4   9
ATOM      9  C   UNL     1     -12.700  16.773 -44.146  0.00  0.00    +0.000 A 
ATOM     10  C   UNL     1     -13.960  17.097 -43.621  0.00  0.00    +0.000 A 
ATOM     11  C   UNL     1     -12.619  15.762 -45.110  0.00  0.00    +0.000 A 
ATOM     12  C   UNL     1     -15.036  15.510 -45.118  0.00  0.00    +0.000 A 
ATOM     13  C   UNL     1     -15.119  16.474 -44.103  0.00  0.00    +0.000 A 
ATOM     14  C   UNL     1     -13.773  15.150 -45.605  0.00  0.00    +0.000 A 
BRANCH  12  18
ATOM     15  F   UNL     1     -16.900  14.007 -44.857  0.00  0.00    +0.000 F 
ATOM     16  F   UNL     1     -17.210  15.794 -46.055  0.00  0.00    +0.000 F 
ATOM     17  F   UNL     1     -16.006  14.160 -46.835  0.00  0.00    +0.000 F 
ATOM     18  C   UNL     1     -16.272  14.870 -45.703  0.00  0.00    +0.000 C 
ENDBRANCH  12  18
ENDBRANCH   4   9
BRANCH   5  20
ATOM     19  N   UNL     1     -13.127  20.563 -43.417  0.00  0.00    +0.000 NA
ATOM     20  C   UNL     1     -12.586  19.625 -42.695  0.00  0.00    +0.000 C 
BRANCH  19  21
ATOM     21  O   UNL     1     -12.638  20.553 -44.730  0.00  0.00    +0.000 OA
BRANCH  21  22
ATOM     22  C   UNL     1     -13.698  20.815 -45.650  0.00  0.00    +0.000 C 
BRANCH  22  25
ATOM     23 CL   UNL     1     -11.473  17.200 -48.674  0.00  0.00    +0.000 Cl
ATOM     24 CL   UNL     1     -14.455  16.060 -49.302  0.00  0.00    +0.000 Cl
ATOM     25  C   UNL     1     -13.845  19.606 -46.537  0.00  0.00    +0.000 A 
ATOM     26  C   UNL     1     -12.732  18.995 -47.128  0.00  0.00    +0.000 A 
ATOM     27  C   UNL     1     -15.122  19.091 -46.801  0.00  0.00    +0.000 A 
ATOM     28  C   UNL     1     -12.895  17.893 -47.978  0.00  0.00    +0.000 A 
ATOM     29  C   UNL     1     -15.287  17.993 -47.646  0.00  0.00    +0.000 A 
ATOM     30  C   UNL     1     -14.175  17.396 -48.243  0.00  0.00    +0.000 A 
ENDBRANCH  22  25
ENDBRANCH  21  22
ENDBRANCH  19  21
ENDBRANCH   5  20
TORSDOF 6
ENDMDL
MODEL 4
REMARK VINA RESULT:      -6.3     24.654     26.435
REMARK  Name = 154040921
REMARK  6 active torsions:
REMARK  status: ('A' for Active; 'I' for Inactive)
REMARK    1  A    between atoms: O_7  and  N_10
REMARK    2  A    between atoms: O_7  and  C_25
REMARK    3  A    between atoms: C_11  and  C_13
REMARK    4  A    between atoms: C_12  and  C_18
REMARK    5  A    between atoms: C_19  and  C_23
REMARK    6  A    between atoms: C_24  and  C_25
REMARK                            x       y       z     vdW  Elec       q    Type
REMARK                         _______ _______ _______ _____ _____    ______ ____
ROOT
ATOM      1  S   UNL     1     -25.393   3.327 -61.289  0.00  0.00    +0.000 S 
ATOM      2  N   UNL     1     -24.147   3.003 -59.066  0.00  0.00    +0.000 N 
ATOM      3  N   UNL     1     -23.466   4.914 -59.999  0.00  0.00    +0.000 NA
ATOM      4  C   UNL     1     -22.806   4.699 -58.798  0.00  0.00    +0.000 A 
ATOM      5  C   UNL     1     -23.210   3.502 -58.192  0.00  0.00    +0.000 A 
ATOM      6  C   UNL     1     -24.225   3.864 -60.118  0.00  0.00    +0.000 A 
ATOM      7  C   UNL     1     -25.014   1.932 -59.126  0.00  0.00    +0.000 A 
ATOM      8  C   UNL     1     -25.742   1.934 -60.255  0.00  0.00    +0.000 A 
ENDROOT
BRANCH   4   9
ATOM      9  C   UNL     1     -21.850   5.663 -58.265  0.00  0.00    +0.000 A 
ATOM     10  C   UNL     1     -21.053   5.311 -57.166  0.00  0.00    +0.000 A 
ATOM     11  C   UNL     1     -21.693   6.937 -58.823  0.00  0.00    +0.000 A 
ATOM     12  C   UNL     1     -19.873   7.434 -57.290  0.00  0.00    +0.000 A 
ATOM     13  C   UNL     1     -20.072   6.186 -56.683  0.00  0.00    +0.000 A 
ATOM     14  C   UNL     1     -20.704   7.806 -58.355  0.00  0.00    +0.000 A 
BRANCH  12  18
ATOM     15  F   UNL     1     -18.972   9.666 -57.207  0.00  0.00    +0.000 F 
ATOM     16  F   UNL     1     -18.655   8.389 -55.477  0.00  0.00    +0.000 F 
ATOM     17  F   UNL     1     -17.556   8.018 -57.315  0.00  0.00    +0.000 F 
ATOM     18  C   UNL     1     -18.781   8.371 -56.834  0.00  0.00    +0.000 C 
ENDBRANCH  12  18
ENDBRANCH   4   9
BRANCH   5  20
ATOM     19  N   UNL     1     -23.336   3.249 -55.753  0.00  0.00    +0.000 NA
ATOM     20  C   UNL     1     -22.851   2.935 -56.920  0.00  0.00    +0.000 C 
BRANCH  19  21
ATOM     21  O   UNL     1     -24.417   4.132 -55.862  0.00  0.00    +0.000 OA
BRANCH  21  22
ATOM     22  C   UNL     1     -24.528   4.921 -54.677  0.00  0.00    +0.000 C 
BRANCH  22  25
ATOM     23 CL   UNL     1     -24.490   9.227 -57.615  0.00  0.00    +0.000 Cl
ATOM     24 CL   UNL     1     -21.974  10.275 -55.837  0.00  0.00    +0.000 Cl
ATOM     25  C   UNL     1     -23.940   6.277 -54.973  0.00  0.00    +0.000 A 
ATOM     26  C   UNL     1     -24.425   7.070 -56.021  0.00  0.00    +0.000 A 
ATOM     27  C   UNL     1     -22.869   6.751 -54.203  0.00  0.00    +0.000 A 
ATOM     28  C   UNL     1     -23.839   8.312 -56.301  0.00  0.00    +0.000 A 
ATOM     29  C   UNL     1     -22.285   7.988 -54.478  0.00  0.00    +0.000 A 
ATOM     30  C   UNL     1     -22.763   8.768 -55.533  0.00  0.00    +0.000 A 
ENDBRANCH  22  25
ENDBRANCH  21  22
ENDBRANCH  19  21
ENDBRANCH   5  20
TORSDOF 6
ENDMDL
MODEL 5
REMARK VINA RESULT:      -6.3     23.199     25.197
REMARK  Name = 154040921
REMARK  6 active torsions:
REMARK  status: ('A' for Active; 'I' for Inactive)
REMARK    1  A    between atoms: O_7  and  N_10
REMARK    2  A    between atoms: O_7  and  C_25
REMARK    3  A    between atoms: C_11  and  C_13
REMARK    4  A    between atoms: C_12  and  C_18
REMARK    5  A    between atoms: C_19  and  C_23
REMARK    6  A    between atoms: C_24  and  C_25
REMARK                            x       y       z     vdW  Elec       q    Type
REMARK                         _______ _______ _______ _____ _____    ______ ____
ROOT
ATOM      1  S   UNL     1     -25.291   6.851 -59.346  0.00  0.00    +0.000 S 
ATOM      2  N   UNL     1     -23.759   5.470 -57.815  0.00  0.00    +0.000 N 
ATOM      3  N   UNL     1     -24.653   7.134 -56.624  0.00  0.00    +0.000 NA
ATOM      4  C   UNL     1     -23.809   6.370 -55.831  0.00  0.00    +0.000 A 
ATOM      5  C   UNL     1     -23.229   5.320 -56.555  0.00  0.00    +0.000 A 
ATOM      6  C   UNL     1     -24.560   6.571 -57.794  0.00  0.00    +0.000 A 
ATOM      7  C   UNL     1     -23.722   4.801 -59.020  0.00  0.00    +0.000 A 
ATOM      8  C   UNL     1     -24.467   5.410 -59.959  0.00  0.00    +0.000 A 
ENDROOT
BRANCH   4   9
ATOM      9  C   UNL     1     -23.626   6.653 -54.413  0.00  0.00    +0.000 A 
ATOM     10  C   UNL     1     -24.450   6.020 -53.470  0.00  0.00    +0.000 A 
ATOM     11  C   UNL     1     -22.643   7.536 -53.954  0.00  0.00    +0.000 A 
ATOM     12  C   UNL     1     -23.215   7.046 -51.643  0.00  0.00    +0.000 A 
ATOM     13  C   UNL     1     -24.246   6.212 -52.097  0.00  0.00    +0.000 A 
ATOM     14  C   UNL     1     -22.425   7.717 -52.586  0.00  0.00    +0.000 A 
BRANCH  12  18
ATOM     15  F   UNL     1     -23.576   6.327 -49.373  0.00  0.00    +0.000 F 
ATOM     16  F   UNL     1     -21.603   7.081 -49.886  0.00  0.00    +0.000 F 
ATOM     17  F   UNL     1     -23.279   8.455 -49.714  0.00  0.00    +0.000 F 
ATOM     18  C   UNL     1     -22.929   7.220 -50.171  0.00  0.00    +0.000 C 
ENDBRANCH  12  18
ENDBRANCH   4   9
BRANCH   5  20
ATOM     19  N   UNL     1     -21.099   4.113 -56.369  0.00  0.00    +0.000 NA
ATOM     20  C   UNL     1     -22.369   4.253 -56.119  0.00  0.00    +0.000 C 
BRANCH  19  21
ATOM     21  O   UNL     1     -20.570   5.241 -57.009  0.00  0.00    +0.000 OA
BRANCH  21  22
ATOM     22  C   UNL     1     -19.570   5.846 -56.190  0.00  0.00    +0.000 C 
BRANCH  22  25
ATOM     23 CL   UNL     1     -21.715  10.592 -56.421  0.00  0.00    +0.000 Cl
ATOM     24 CL   UNL     1     -19.051  11.589 -58.001  0.00  0.00    +0.000 Cl
ATOM     25  C   UNL     1     -19.461   7.293 -56.595  0.00  0.00    +0.000 A 
ATOM     26  C   UNL     1     -20.497   8.202 -56.344  0.00  0.00    +0.000 A 
ATOM     27  C   UNL     1     -18.310   7.743 -57.259  0.00  0.00    +0.000 A 
ATOM     28  C   UNL     1     -20.390   9.535 -56.762  0.00  0.00    +0.000 A 
ATOM     29  C   UNL     1     -18.200   9.071 -57.674  0.00  0.00    +0.000 A 
ATOM     30  C   UNL     1     -19.242   9.968 -57.433  0.00  0.00    +0.000 A 
ENDBRANCH  22  25
ENDBRANCH  21  22
ENDBRANCH  19  21
ENDBRANCH   5  20
TORSDOF 6
ENDMDL
MODEL 6
REMARK VINA RESULT:      -6.2     23.694     25.002
REMARK  Name = 154040921
REMARK  6 active torsions:
REMARK  status: ('A' for Active; 'I' for Inactive)
REMARK    1  A    between atoms: O_7  and  N_10
REMARK    2  A    between atoms: O_7  and  C_25
REMARK    3  A    between atoms: C_11  and  C_13
REMARK    4  A    between atoms: C_12  and  C_18
REMARK    5  A    between atoms: C_19  and  C_23
REMARK    6  A    between atoms: C_24  and  C_25
REMARK                            x       y       z     vdW  Elec       q    Type
REMARK                         _______ _______ _______ _____ _____    ______ ____
ROOT
ATOM      1  S   UNL     1     -27.114   5.099 -52.114  0.00  0.00    +0.000 S 
ATOM      2  N   UNL     1     -25.477   7.078 -52.169  0.00  0.00    +0.000 N 
ATOM      3  N   UNL     1     -24.756   5.509 -53.586  0.00  0.00    +0.000 NA
ATOM      4  C   UNL     1     -23.890   6.593 -53.580  0.00  0.00    +0.000 A 
ATOM      5  C   UNL     1     -24.314   7.592 -52.695  0.00  0.00    +0.000 A 
ATOM      6  C   UNL     1     -25.659   5.841 -52.710  0.00  0.00    +0.000 A 
ATOM      7  C   UNL     1     -26.475   7.491 -51.312  0.00  0.00    +0.000 A 
ATOM      8  C   UNL     1     -27.421   6.551 -51.149  0.00  0.00    +0.000 A 
ENDROOT
BRANCH   4   9
ATOM      9  C   UNL     1     -22.719   6.641 -54.448  0.00  0.00    +0.000 A 
ATOM     10  C   UNL     1     -21.768   7.657 -54.269  0.00  0.00    +0.000 A 
ATOM     11  C   UNL     1     -22.503   5.696 -55.457  0.00  0.00    +0.000 A 
ATOM     12  C   UNL     1     -20.354   6.694 -55.997  0.00  0.00    +0.000 A 
ATOM     13  C   UNL     1     -20.595   7.684 -55.035  0.00  0.00    +0.000 A 
ATOM     14  C   UNL     1     -21.327   5.709 -56.211  0.00  0.00    +0.000 A 
BRANCH  12  18
ATOM     15  F   UNL     1     -18.298   5.565 -56.543  0.00  0.00    +0.000 F 
ATOM     16  F   UNL     1     -19.298   6.656 -58.135  0.00  0.00    +0.000 F 
ATOM     17  F   UNL     1     -18.278   7.740 -56.552  0.00  0.00    +0.000 F 
ATOM     18  C   UNL     1     -19.070   6.658 -56.791  0.00  0.00    +0.000 C 
ENDBRANCH  12  18
ENDBRANCH   4   9
BRANCH   5  20
ATOM     19  N   UNL     1     -24.038  10.001 -53.073  0.00  0.00    +0.000 NA
ATOM     20  C   UNL     1     -23.772   8.898 -52.436  0.00  0.00    +0.000 C 
BRANCH  19  21
ATOM     21  O   UNL     1     -25.082   9.830 -53.992  0.00  0.00    +0.000 OA
BRANCH  21  22
ATOM     22  C   UNL     1     -24.862  10.648 -55.142  0.00  0.00    +0.000 C 
BRANCH  22  25
ATOM     23 CL   UNL     1     -20.781   9.794 -58.271  0.00  0.00    +0.000 Cl
ATOM     24 CL   UNL     1     -22.376   7.214 -59.450  0.00  0.00    +0.000 Cl
ATOM     25  C   UNL     1     -24.196   9.795 -56.190  0.00  0.00    +0.000 A 
ATOM     26  C   UNL     1     -22.929  10.116 -56.695  0.00  0.00    +0.000 A 
ATOM     27  C   UNL     1     -24.862   8.669 -56.694  0.00  0.00    +0.000 A 
ATOM     28  C   UNL     1     -22.343   9.329 -57.696  0.00  0.00    +0.000 A 
ATOM     29  C   UNL     1     -24.280   7.882 -57.689  0.00  0.00    +0.000 A 
ATOM     30  C   UNL     1     -23.023   8.214 -58.198  0.00  0.00    +0.000 A 
ENDBRANCH  22  25
ENDBRANCH  21  22
ENDBRANCH  19  21
ENDBRANCH   5  20
TORSDOF 6
ENDMDL
MODEL 7
REMARK VINA RESULT:      -6.0     20.859     23.451
REMARK  Name = 154040921
REMARK  6 active torsions:
REMARK  status: ('A' for Active; 'I' for Inactive)
REMARK    1  A    between atoms: O_7  and  N_10
REMARK    2  A    between atoms: O_7  and  C_25
REMARK    3  A    between atoms: C_11  and  C_13
REMARK    4  A    between atoms: C_12  and  C_18
REMARK    5  A    between atoms: C_19  and  C_23
REMARK    6  A    between atoms: C_24  and  C_25
REMARK                            x       y       z     vdW  Elec       q    Type
REMARK                         _______ _______ _______ _____ _____    ______ ____
ROOT
ATOM      1  S   UNL     1      -4.116   5.039 -55.677  0.00  0.00    +0.000 S 
ATOM      2  N   UNL     1      -3.902   2.481 -55.781  0.00  0.00    +0.000 N 
ATOM      3  N   UNL     1      -5.309   3.017 -54.133  0.00  0.00    +0.000 NA
ATOM      4  C   UNL     1      -5.161   1.641 -54.214  0.00  0.00    +0.000 A 
ATOM      5  C   UNL     1      -4.277   1.275 -55.238  0.00  0.00    +0.000 A 
ATOM      6  C   UNL     1      -4.519   3.462 -55.065  0.00  0.00    +0.000 A 
ATOM      7  C   UNL     1      -3.135   2.927 -56.837  0.00  0.00    +0.000 A 
ATOM      8  C   UNL     1      -3.119   4.268 -56.919  0.00  0.00    +0.000 A 
ENDROOT
BRANCH   4   9
ATOM      9  C   UNL     1      -5.897   0.738 -53.337  0.00  0.00    +0.000 A 
ATOM     10  C   UNL     1      -7.024   0.063 -53.830  0.00  0.00    +0.000 A 
ATOM     11  C   UNL     1      -5.511   0.512 -52.012  0.00  0.00    +0.000 A 
ATOM     12  C   UNL     1      -7.270  -1.141 -51.731  0.00  0.00    +0.000 A 
ATOM     13  C   UNL     1      -7.704  -0.870 -53.036  0.00  0.00    +0.000 A 
ATOM     14  C   UNL     1      -6.175  -0.430 -51.223  0.00  0.00    +0.000 A 
BRANCH  12  18
ATOM     15  F   UNL     1      -8.804  -2.990 -51.559  0.00  0.00    +0.000 F 
ATOM     16  F   UNL     1      -7.041  -3.026 -50.289  0.00  0.00    +0.000 F 
ATOM     17  F   UNL     1      -8.662  -1.645 -49.855  0.00  0.00    +0.000 F 
ATOM     18  C   UNL     1      -7.942  -2.188 -50.876  0.00  0.00    +0.000 C 
ENDBRANCH  12  18
ENDBRANCH   4   9
BRANCH   5  20
ATOM     19  N   UNL     1      -4.505  -0.735 -56.629  0.00  0.00    +0.000 NA
ATOM     20  C   UNL     1      -3.899  -0.026 -55.720  0.00  0.00    +0.000 C 
BRANCH  19  21
ATOM     21  O   UNL     1      -5.533  -0.014 -57.249  0.00  0.00    +0.000 OA
BRANCH  21  22
ATOM     22  C   UNL     1      -6.025  -0.734 -58.379  0.00  0.00    +0.000 C 
BRANCH  22  25
ATOM     23 CL   UNL     1      -8.187   0.461 -62.970  0.00  0.00    +0.000 Cl
ATOM     24 CL   UNL     1      -6.492   3.238 -62.910  0.00  0.00    +0.000 Cl
ATOM     25  C   UNL     1      -6.195   0.248 -59.509  0.00  0.00    +0.000 A 
ATOM     26  C   UNL     1      -7.028  -0.031 -60.600  0.00  0.00    +0.000 A 
ATOM     27  C   UNL     1      -5.487   1.458 -59.489  0.00  0.00    +0.000 A 
ATOM     28  C   UNL     1      -7.143   0.881 -61.658  0.00  0.00    +0.000 A 
ATOM     29  C   UNL     1      -5.600   2.369 -60.540  0.00  0.00    +0.000 A 
ATOM     30  C   UNL     1      -6.422   2.080 -61.630  0.00  0.00    +0.000 A 
ENDBRANCH  22  25
ENDBRANCH  21  22
ENDBRANCH  19  21
ENDBRANCH   5  20
TORSDOF 6
ENDMDL
MODEL 8
REMARK VINA RESULT:      -6.0     22.091     24.070
REMARK  Name = 154040921
REMARK  6 active torsions:
REMARK  status: ('A' for Active; 'I' for Inactive)
REMARK    1  A    between atoms: O_7  and  N_10
REMARK    2  A    between atoms: O_7  and  C_25
REMARK    3  A    between atoms: C_11  and  C_13
REMARK    4  A    between atoms: C_12  and  C_18
REMARK    5  A    between atoms: C_19  and  C_23
REMARK    6  A    between atoms: C_24  and  C_25
REMARK                            x       y       z     vdW  Elec       q    Type
REMARK                         _______ _______ _______ _____ _____    ______ ____
ROOT
ATOM      1  S   UNL     1     -25.794  11.435 -51.494  0.00  0.00    +0.000 S 
ATOM      2  N   UNL     1     -24.269   9.458 -50.891  0.00  0.00    +0.000 N 
ATOM      3  N   UNL     1     -24.389   9.619 -53.114  0.00  0.00    +0.000 NA
ATOM      4  C   UNL     1     -23.580   8.553 -52.749  0.00  0.00    +0.000 A 
ATOM      5  C   UNL     1     -23.491   8.424 -51.356  0.00  0.00    +0.000 A 
ATOM      6  C   UNL     1     -24.791  10.098 -51.973  0.00  0.00    +0.000 A 
ATOM      7  C   UNL     1     -24.604  10.009 -49.671  0.00  0.00    +0.000 A 
ATOM      8  C   UNL     1     -25.429  11.061 -49.803  0.00  0.00    +0.000 A 
ENDROOT
BRANCH   4   9
ATOM      9  C   UNL     1     -22.900   7.732 -53.743  0.00  0.00    +0.000 A 
ATOM     10  C   UNL     1     -21.637   8.122 -54.214  0.00  0.00    +0.000 A 
ATOM     11  C   UNL     1     -23.464   6.554 -54.243  0.00  0.00    +0.000 A 
ATOM     12  C   UNL     1     -21.468   6.099 -55.554  0.00  0.00    +0.000 A 
ATOM     13  C   UNL     1     -20.926   7.313 -55.110  0.00  0.00    +0.000 A 
ATOM     14  C   UNL     1     -22.751   5.735 -55.123  0.00  0.00    +0.000 A 
BRANCH  12  18
ATOM     15  F   UNL     1     -19.347   5.331 -56.398  0.00  0.00    +0.000 F 
ATOM     16  F   UNL     1     -20.936   3.862 -56.186  0.00  0.00    +0.000 F 
ATOM     17  F   UNL     1     -21.030   5.340 -57.778  0.00  0.00    +0.000 F 
ATOM     18  C   UNL     1     -20.698   5.175 -56.466  0.00  0.00    +0.000 C 
ENDBRANCH  12  18
ENDBRANCH   4   9
BRANCH   5  20
ATOM     19  N   UNL     1     -23.070   6.357 -50.102  0.00  0.00    +0.000 NA
ATOM     20  C   UNL     1     -22.709   7.523 -50.554  0.00  0.00    +0.000 C 
BRANCH  19  21
ATOM     21  O   UNL     1     -24.307   5.958 -50.626  0.00  0.00    +0.000 OA
BRANCH  21  22
ATOM     22  C   UNL     1     -24.771   4.788 -49.952  0.00  0.00    +0.000 C 
BRANCH  22  25
ATOM     23 CL   UNL     1     -25.957   3.508 -54.864  0.00  0.00    +0.000 Cl
ATOM     24 CL   UNL     1     -25.763   0.385 -53.972  0.00  0.00    +0.000 Cl
ATOM     25  C   UNL     1     -24.990   3.718 -50.990  0.00  0.00    +0.000 A 
ATOM     26  C   UNL     1     -25.317   4.041 -52.314  0.00  0.00    +0.000 A 
ATOM     27  C   UNL     1     -24.890   2.367 -50.626  0.00  0.00    +0.000 A 
ATOM     28  C   UNL     1     -25.552   3.029 -53.254  0.00  0.00    +0.000 A 
ATOM     29  C   UNL     1     -25.122   1.358 -51.561  0.00  0.00    +0.000 A 
ATOM     30  C   UNL     1     -25.460   1.685 -52.875  0.00  0.00    +0.000 A 
ENDBRANCH  22  25
ENDBRANCH  21  22
ENDBRANCH  19  21
ENDBRANCH   5  20
TORSDOF 6
ENDMDL
MODEL 9
REMARK VINA RESULT:      -6.0     21.582     23.302
REMARK  Name = 154040921
REMARK  6 active torsions:
REMARK  status: ('A' for Active; 'I' for Inactive)
REMARK    1  A    between atoms: O_7  and  N_10
REMARK    2  A    between atoms: O_7  and  C_25
REMARK    3  A    between atoms: C_11  and  C_13
REMARK    4  A    between atoms: C_12  and  C_18
REMARK    5  A    between atoms: C_19  and  C_23
REMARK    6  A    between atoms: C_24  and  C_25
REMARK                            x       y       z     vdW  Elec       q    Type
REMARK                         _______ _______ _______ _____ _____    ______ ____
ROOT
ATOM      1  S   UNL     1     -25.835  11.379 -51.500  0.00  0.00    +0.000 S 
ATOM      2  N   UNL     1     -24.181   9.507 -50.900  0.00  0.00    +0.000 N 
ATOM      3  N   UNL     1     -24.348   9.633 -53.123  0.00  0.00    +0.000 NA
ATOM      4  C   UNL     1     -23.468   8.624 -52.759  0.00  0.00    +0.000 A 
ATOM      5  C   UNL     1     -23.348   8.518 -51.367  0.00  0.00    +0.000 A 
ATOM      6  C   UNL     1     -24.760  10.100 -51.980  0.00  0.00    +0.000 A 
ATOM      7  C   UNL     1     -24.529  10.052 -49.681  0.00  0.00    +0.000 A 
ATOM      8  C   UNL     1     -25.420  11.050 -49.811  0.00  0.00    +0.000 A 
ENDROOT
BRANCH   4   9
ATOM      9  C   UNL     1     -22.754   7.834 -53.755  0.00  0.00    +0.000 A 
ATOM     10  C   UNL     1     -21.485   8.248 -54.185  0.00  0.00    +0.000 A 
ATOM     11  C   UNL     1     -23.293   6.662 -54.297  0.00  0.00    +0.000 A 
ATOM     12  C   UNL     1     -21.261   6.259 -55.568  0.00  0.00    +0.000 A 
ATOM     13  C   UNL     1     -20.743   7.468 -55.082  0.00  0.00    +0.000 A 
ATOM     14  C   UNL     1     -22.549   5.872 -55.178  0.00  0.00    +0.000 A 
BRANCH  12  18
ATOM     15  F   UNL     1     -19.112   5.541 -56.385  0.00  0.00    +0.000 F 
ATOM     16  F   UNL     1     -20.680   4.044 -56.232  0.00  0.00    +0.000 F 
ATOM     17  F   UNL     1     -20.767   5.551 -57.797  0.00  0.00    +0.000 F 
ATOM     18  C   UNL     1     -20.458   5.366 -56.483  0.00  0.00    +0.000 C 
ENDBRANCH  12  18
ENDBRANCH   4   9
BRANCH   5  20
ATOM     19  N   UNL     1     -22.764   6.481 -50.128  0.00  0.00    +0.000 NA
ATOM     20  C   UNL     1     -22.499   7.677 -50.567  0.00  0.00    +0.000 C 
BRANCH  19  21
ATOM     21  O   UNL     1     -23.960   5.986 -50.664  0.00  0.00    +0.000 OA
BRANCH  21  22
ATOM     22  C   UNL     1     -24.961   5.917 -49.647  0.00  0.00    +0.000 C 
BRANCH  22  25
ATOM     23 CL   UNL     1     -24.845   0.882 -50.994  0.00  0.00    +0.000 Cl
ATOM     24 CL   UNL     1     -25.745   0.170 -47.949  0.00  0.00    +0.000 Cl
ATOM     25  C   UNL     1     -25.112   4.471 -49.251  0.00  0.00    +0.000 A 
ATOM     26  C   UNL     1     -24.917   3.436 -50.175  0.00  0.00    +0.000 A 
ATOM     27  C   UNL     1     -25.480   4.147 -47.937  0.00  0.00    +0.000 A 
ATOM     28  C   UNL     1     -25.098   2.100 -49.794  0.00  0.00    +0.000 A 
ATOM     29  C   UNL     1     -25.659   2.817 -47.555  0.00  0.00    +0.000 A 
ATOM     30  C   UNL     1     -25.476   1.791 -48.483  0.00  0.00    +0.000 A 
ENDBRANCH  22  25
ENDBRANCH  21  22
ENDBRANCH  19  21
ENDBRANCH   5  20
TORSDOF 6
ENDMDL
MODEL 10
REMARK VINA RESULT:      -6.0      5.501      7.825
REMARK  Name = 154040921
REMARK  6 active torsions:
REMARK  status: ('A' for Active; 'I' for Inactive)
REMARK    1  A    between atoms: O_7  and  N_10
REMARK    2  A    between atoms: O_7  and  C_25
REMARK    3  A    between atoms: C_11  and  C_13
REMARK    4  A    between atoms: C_12  and  C_18
REMARK    5  A    between atoms: C_19  and  C_23
REMARK    6  A    between atoms: C_24  and  C_25
REMARK                            x       y       z     vdW  Elec       q    Type
REMARK                         _______ _______ _______ _____ _____    ______ ____
ROOT
ATOM      1  S   UNL     1      -4.174   2.549 -31.395  0.00  0.00    +0.000 S 
ATOM      2  N   UNL     1      -5.103   1.647 -33.614  0.00  0.00    +0.000 N 
ATOM      3  N   UNL     1      -6.295   3.435 -33.011  0.00  0.00    +0.000 NA
ATOM      4  C   UNL     1      -6.774   2.913 -34.204  0.00  0.00    +0.000 A 
ATOM      5  C   UNL     1      -6.048   1.784 -34.604  0.00  0.00    +0.000 A 
ATOM      6  C   UNL     1      -5.325   2.627 -32.696  0.00  0.00    +0.000 A 
ATOM      7  C   UNL     1      -4.018   0.837 -33.349  0.00  0.00    +0.000 A 
ATOM      8  C   UNL     1      -3.415   1.163 -32.193  0.00  0.00    +0.000 A 
ENDROOT
BRANCH   4   9
ATOM      9  C   UNL     1      -7.878   3.537 -34.924  0.00  0.00    +0.000 A 
ATOM     10  C   UNL     1      -9.058   2.810 -35.143  0.00  0.00    +0.000 A 
ATOM     11  C   UNL     1      -7.803   4.849 -35.404  0.00  0.00    +0.000 A 
ATOM     12  C   UNL     1     -10.105   4.746 -36.179  0.00  0.00    +0.000 A 
ATOM     13  C   UNL     1     -10.163   3.409 -35.762  0.00  0.00    +0.000 A 
ATOM     14  C   UNL     1      -8.909   5.455 -36.007  0.00  0.00    +0.000 A 
BRANCH  12  18
ATOM     15  F   UNL     1     -11.521   5.112 -38.092  0.00  0.00    +0.000 F 
ATOM     16  F   UNL     1     -12.456   5.141 -36.130  0.00  0.00    +0.000 F 
ATOM     17  F   UNL     1     -11.192   6.796 -36.754  0.00  0.00    +0.000 F 
ATOM     18  C   UNL     1     -11.300   5.438 -36.789  0.00  0.00    +0.000 C 
ENDBRANCH  12  18
ENDBRANCH   4   9
BRANCH   5  20
ATOM     19  N   UNL     1      -6.474  -0.269 -35.880  0.00  0.00    +0.000 NA
ATOM     20  C   UNL     1      -6.147   0.989 -35.797  0.00  0.00    +0.000 C 
BRANCH  19  21
ATOM     21  O   UNL     1      -6.899  -0.776 -34.646  0.00  0.00    +0.000 OA
BRANCH  21  22
ATOM     22  C   UNL     1      -8.310  -0.994 -34.665  0.00  0.00    +0.000 C 
BRANCH  22  25
ATOM     23 CL   UNL     1      -7.574   0.958 -29.888  0.00  0.00    +0.000 Cl
ATOM     24 CL   UNL     1     -10.792   1.407 -29.705  0.00  0.00    +0.000 Cl
ATOM     25  C   UNL     1      -8.889  -0.361 -33.427  0.00  0.00    +0.000 A 
ATOM     26  C   UNL     1      -8.077  -0.004 -32.342  0.00  0.00    +0.000 A 
ATOM     27  C   UNL     1     -10.271  -0.142 -33.340  0.00  0.00    +0.000 A 
ATOM     28  C   UNL     1      -8.642   0.551 -31.185  0.00  0.00    +0.000 A 
ATOM     29  C   UNL     1     -10.835   0.412 -32.191  0.00  0.00    +0.000 A 
ATOM     30  C   UNL     1     -10.024   0.753 -31.107  0.00  0.00    +0.000 A 
ENDBRANCH  22  25
ENDBRANCH  21  22
ENDBRANCH  19  21
ENDBRANCH   5  20
TORSDOF 6
ENDMDL
