REMARK  Name = 154040917
REMARK  5 active torsions:
REMARK  status: ('A' for Active; 'I' for Inactive)
REMARK    1  A    between atoms: O_5  and  N_8
REMARK    2  A    between atoms: O_5  and  C_21
REMARK    3  A    between atoms: C_9  and  C_14
REMARK    4  A    between atoms: C_10  and  C_12
REMARK    5  A    between atoms: C_20  and  C_21
REMARK                            x       y       z     vdW  Elec       q    Type
REMARK                         _______ _______ _______ _____ _____    ______ ____
ROOT
ATOM      1  S   UNL     1       3.526   5.882   1.476  0.00  0.00    +0.000 S 
ATOM      2  N   UNL     1       3.770   4.216  -0.478  0.00  0.00    +0.000 N 
ATOM      3  N   UNL     1       2.357   3.379   1.043  0.00  0.00    +0.000 NA
ATOM      4  C   UNL     1       3.360   3.009  -1.005  0.00  0.00    +0.000 A 
ATOM      5  C   UNL     1       2.507   2.503  -0.016  0.00  0.00    +0.000 A 
ATOM      6  C   UNL     1       3.138   4.366   0.723  0.00  0.00    +0.000 A 
ATOM      7  C   UNL     1       4.560   5.291  -0.839  0.00  0.00    +0.000 A 
ATOM      8  C   UNL     1       4.558   6.259   0.095  0.00  0.00    +0.000 A 
ENDROOT
BRANCH   5  10
ATOM      9 CL   UNL     1      -1.756  -0.124   1.240  0.00  0.00    +0.000 Cl
ATOM     10  C   UNL     1       1.792   1.232  -0.037  0.00  0.00    +0.000 A 
ATOM     11  C   UNL     1       0.508   1.162   0.527  0.00  0.00    +0.000 A 
ATOM     12  C   UNL     1       2.370   0.066  -0.557  0.00  0.00    +0.000 A 
ATOM     13  C   UNL     1      -0.187  -0.048   0.540  0.00  0.00    +0.000 A 
ATOM     14  C   UNL     1       1.663  -1.140  -0.552  0.00  0.00    +0.000 A 
ATOM     15  C   UNL     1       0.383  -1.195  -0.006  0.00  0.00    +0.000 A 
ENDBRANCH   5  10
BRANCH   4  17
ATOM     16  N   UNL     1       4.706   2.513  -3.034  0.00  0.00    +0.000 NA
ATOM     17  C   UNL     1       3.628   2.467  -2.310  0.00  0.00    +0.000 C 
BRANCH  16  18
ATOM     18  O   UNL     1       5.794   3.106  -2.384  0.00  0.00    +0.000 OA
BRANCH  18  19
ATOM     19  C   UNL     1       6.896   3.191  -3.295  0.00  0.00    +0.000 C 
BRANCH  19  22
ATOM     20 CL   UNL     1       8.312  -1.694  -4.365  0.00  0.00    +0.000 Cl
ATOM     21 CL   UNL     1      10.680  -1.378  -2.156  0.00  0.00    +0.000 Cl
ATOM     22  C   UNL     1       7.850   2.053  -3.044  0.00  0.00    +0.000 A 
ATOM     23  C   UNL     1       7.701   0.838  -3.731  0.00  0.00    +0.000 A 
ATOM     24  C   UNL     1       8.868   2.176  -2.092  0.00  0.00    +0.000 A 
ATOM     25  C   UNL     1       8.563  -0.234  -3.478  0.00  0.00    +0.000 A 
ATOM     26  C   UNL     1       9.731   1.108  -1.838  0.00  0.00    +0.000 A 
ATOM     27  C   UNL     1       9.581  -0.097  -2.529  0.00  0.00    +0.000 A 
ENDBRANCH  19  22
ENDBRANCH  18  19
ENDBRANCH  16  18
ENDBRANCH   4  17
TORSDOF 5
