MODEL 1
REMARK VINA RESULT:      -6.9      0.000      0.000
REMARK  Name = 154040923
REMARK  9 active torsions:
REMARK  status: ('A' for Active; 'I' for Inactive)
REMARK    1  A    between atoms: O_4  and  N_7
REMARK    2  A    between atoms: O_4  and  C_24
REMARK    3  A    between atoms: C_8  and  C_9
REMARK    4  A    between atoms: C_8  and  C_10
REMARK    5  A    between atoms: C_8  and  C_11
REMARK    6  A    between atoms: C_8  and  C_12
REMARK    7  A    between atoms: C_15  and  C_18
REMARK    8  A    between atoms: C_19  and  C_22
REMARK    9  A    between atoms: C_24  and  C_25
REMARK                            x       y       z     vdW  Elec       q    Type
REMARK                         _______ _______ _______ _____ _____    ______ ____
ROOT
ATOM      1  S   UNL     1      13.052  15.729  20.669  0.00  0.00    +0.000 S 
ATOM      2  N   UNL     1      11.824  14.857  22.746  0.00  0.00    +0.000 N 
ATOM      3  N   UNL     1      10.397  16.068  21.527  0.00  0.00    +0.000 NA
ATOM      4  C   UNL     1       9.777  15.598  22.677  0.00  0.00    +0.000 A 
ATOM      5  C   UNL     1      10.648  14.831  23.460  0.00  0.00    +0.000 A 
ATOM      6  C   UNL     1      11.611  15.622  21.637  0.00  0.00    +0.000 A 
ATOM      7  C   UNL     1      13.088  14.314  22.848  0.00  0.00    +0.000 A 
ATOM      8  C   UNL     1      13.885  14.705  21.848  0.00  0.00    +0.000 A 
ENDROOT
BRANCH   4  12
ATOM      9  C   UNL     1       5.651  16.537  23.409  0.00  0.00    +0.000 A 
ATOM     10  C   UNL     1       6.688  17.321  23.946  0.00  0.00    +0.000 A 
ATOM     11  C   UNL     1       6.017  15.394  22.687  0.00  0.00    +0.000 A 
ATOM     12  C   UNL     1       8.384  15.874  22.976  0.00  0.00    +0.000 A 
ATOM     13  C   UNL     1       8.034  16.994  23.738  0.00  0.00    +0.000 A 
ATOM     14  C   UNL     1       7.357  15.053  22.503  0.00  0.00    +0.000 A 
BRANCH   9  15
ATOM     15  C   UNL     1       4.163  16.881  23.582  0.00  0.00    +0.000 C 
ATOM     16  C   UNL     1       3.565  17.578  22.343  0.00  0.00    +0.000 C 
ATOM     17  C   UNL     1       3.362  15.587  23.843  0.00  0.00    +0.000 C 
ATOM     18  C   UNL     1       3.964  17.831  24.785  0.00  0.00    +0.000 C 
ENDBRANCH   9  15
ENDBRANCH   4  12
BRANCH   5  20
ATOM     19  N   UNL     1      10.239  12.821  24.820  0.00  0.00    +0.000 NA
ATOM     20  C   UNL     1      10.402  14.102  24.679  0.00  0.00    +0.000 C 
BRANCH  19  21
ATOM     21  O   UNL     1      10.496  12.142  23.626  0.00  0.00    +0.000 OA
BRANCH  21  22
ATOM     22  C   UNL     1      10.960  10.821  23.886  0.00  0.00    +0.000 C 
BRANCH  22  25
ATOM     23 CL   UNL     1      13.194  11.085  19.184  0.00  0.00    +0.000 Cl
ATOM     24 CL   UNL     1      11.717   8.276  18.463  0.00  0.00    +0.000 Cl
ATOM     25  C   UNL     1      11.231  10.184  22.548  0.00  0.00    +0.000 A 
ATOM     26  C   UNL     1      12.035  10.813  21.588  0.00  0.00    +0.000 A 
ATOM     27  C   UNL     1      10.642   8.948  22.240  0.00  0.00    +0.000 A 
ATOM     28  C   UNL     1      12.212  10.234  20.325  0.00  0.00    +0.000 A 
ATOM     29  C   UNL     1      10.819   8.370  20.984  0.00  0.00    +0.000 A 
ATOM     30  C   UNL     1      11.591   9.017  20.017  0.00  0.00    +0.000 A 
ENDBRANCH  22  25
ENDBRANCH  21  22
ENDBRANCH  19  21
ENDBRANCH   5  20
TORSDOF 6
ENDMDL
MODEL 2
REMARK VINA RESULT:      -6.7     22.270     26.040
REMARK  Name = 154040923
REMARK  9 active torsions:
REMARK  status: ('A' for Active; 'I' for Inactive)
REMARK    1  A    between atoms: O_4  and  N_7
REMARK    2  A    between atoms: O_4  and  C_24
REMARK    3  A    between atoms: C_8  and  C_9
REMARK    4  A    between atoms: C_8  and  C_10
REMARK    5  A    between atoms: C_8  and  C_11
REMARK    6  A    between atoms: C_8  and  C_12
REMARK    7  A    between atoms: C_15  and  C_18
REMARK    8  A    between atoms: C_19  and  C_22
REMARK    9  A    between atoms: C_24  and  C_25
REMARK                            x       y       z     vdW  Elec       q    Type
REMARK                         _______ _______ _______ _____ _____    ______ ____
ROOT
ATOM      1  S   UNL     1     -15.741   3.518  25.102  0.00  0.00    +0.000 S 
ATOM      2  N   UNL     1     -16.555   4.782  23.022  0.00  0.00    +0.000 N 
ATOM      3  N   UNL     1     -14.335   4.986  23.160  0.00  0.00    +0.000 NA
ATOM      4  C   UNL     1     -14.820   5.679  22.059  0.00  0.00    +0.000 A 
ATOM      5  C   UNL     1     -16.210   5.566  21.945  0.00  0.00    +0.000 A 
ATOM      6  C   UNL     1     -15.408   4.500  23.705  0.00  0.00    +0.000 A 
ATOM      7  C   UNL     1     -17.700   4.217  23.545  0.00  0.00    +0.000 A 
ATOM      8  C   UNL     1     -17.458   3.543  24.673  0.00  0.00    +0.000 A 
ENDROOT
BRANCH   4  12
ATOM      9  C   UNL     1     -12.266   7.971  19.476  0.00  0.00    +0.000 A 
ATOM     10  C   UNL     1     -13.659   7.934  19.286  0.00  0.00    +0.000 A 
ATOM     11  C   UNL     1     -11.735   7.171  20.496  0.00  0.00    +0.000 A 
ATOM     12  C   UNL     1     -13.947   6.399  21.149  0.00  0.00    +0.000 A 
ATOM     13  C   UNL     1     -14.489   7.158  20.105  0.00  0.00    +0.000 A 
ATOM     14  C   UNL     1     -12.559   6.376  21.295  0.00  0.00    +0.000 A 
BRANCH   9  15
ATOM     15  C   UNL     1     -11.325   8.837  18.624  0.00  0.00    +0.000 C 
ATOM     16  C   UNL     1     -10.661   8.044  17.479  0.00  0.00    +0.000 C 
ATOM     17  C   UNL     1     -12.121  10.006  18.004  0.00  0.00    +0.000 C 
ATOM     18  C   UNL     1     -10.193   9.423  19.495  0.00  0.00    +0.000 C 
ENDBRANCH   9  15
ENDBRANCH   4  12
BRANCH   5  20
ATOM     19  N   UNL     1     -17.929   7.057  21.007  0.00  0.00    +0.000 NA
ATOM     20  C   UNL     1     -17.101   6.059  20.925  0.00  0.00    +0.000 C 
BRANCH  19  21
ATOM     21  O   UNL     1     -17.759   7.762  22.202  0.00  0.00    +0.000 OA
BRANCH  21  22
ATOM     22  C   UNL     1     -17.843   9.165  21.977  0.00  0.00    +0.000 C 
BRANCH  22  25
ATOM     23 CL   UNL     1     -14.166  12.197  19.866  0.00  0.00    +0.000 Cl
ATOM     24 CL   UNL     1     -12.084  10.980  22.052  0.00  0.00    +0.000 Cl
ATOM     25  C   UNL     1     -16.433   9.696  22.007  0.00  0.00    +0.000 A 
ATOM     26  C   UNL     1     -15.985  10.635  21.069  0.00  0.00    +0.000 A 
ATOM     27  C   UNL     1     -15.536   9.219  22.975  0.00  0.00    +0.000 A 
ATOM     28  C   UNL     1     -14.650  11.058  21.074  0.00  0.00    +0.000 A 
ATOM     29  C   UNL     1     -14.207   9.640  22.983  0.00  0.00    +0.000 A 
ATOM     30  C   UNL     1     -13.756  10.549  22.024  0.00  0.00    +0.000 A 
ENDBRANCH  22  25
ENDBRANCH  21  22
ENDBRANCH  19  21
ENDBRANCH   5  20
TORSDOF 6
ENDMDL
MODEL 3
REMARK VINA RESULT:      -6.5      5.122      7.459
REMARK  Name = 154040923
REMARK  9 active torsions:
REMARK  status: ('A' for Active; 'I' for Inactive)
REMARK    1  A    between atoms: O_4  and  N_7
REMARK    2  A    between atoms: O_4  and  C_24
REMARK    3  A    between atoms: C_8  and  C_9
REMARK    4  A    between atoms: C_8  and  C_10
REMARK    5  A    between atoms: C_8  and  C_11
REMARK    6  A    between atoms: C_8  and  C_12
REMARK    7  A    between atoms: C_15  and  C_18
REMARK    8  A    between atoms: C_19  and  C_22
REMARK    9  A    between atoms: C_24  and  C_25
REMARK                            x       y       z     vdW  Elec       q    Type
REMARK                         _______ _______ _______ _____ _____    ______ ____
ROOT
ATOM      1  S   UNL     1      15.217  12.879  25.471  0.00  0.00    +0.000 S 
ATOM      2  N   UNL     1      13.193  12.378  23.975  0.00  0.00    +0.000 N 
ATOM      3  N   UNL     1      15.014  12.523  22.690  0.00  0.00    +0.000 NA
ATOM      4  C   UNL     1      13.889  12.278  21.914  0.00  0.00    +0.000 A 
ATOM      5  C   UNL     1      12.732  12.179  22.693  0.00  0.00    +0.000 A 
ATOM      6  C   UNL     1      14.537  12.599  23.894  0.00  0.00    +0.000 A 
ATOM      7  C   UNL     1      12.675  12.385  25.253  0.00  0.00    +0.000 A 
ATOM      8  C   UNL     1      13.604  12.674  26.170  0.00  0.00    +0.000 A 
ENDROOT
BRANCH   4  12
ATOM      9  C   UNL     1      14.262  11.931  17.649  0.00  0.00    +0.000 A 
ATOM     10  C   UNL     1      13.629  13.038  18.242  0.00  0.00    +0.000 A 
ATOM     11  C   UNL     1      14.700  10.909  18.501  0.00  0.00    +0.000 A 
ATOM     12  C   UNL     1      13.959  12.125  20.472  0.00  0.00    +0.000 A 
ATOM     13  C   UNL     1      13.475  13.134  19.631  0.00  0.00    +0.000 A 
ATOM     14  C   UNL     1      14.522  10.991  19.882  0.00  0.00    +0.000 A 
BRANCH   9  15
ATOM     15  C   UNL     1      14.484  11.804  16.134  0.00  0.00    +0.000 C 
ATOM     16  C   UNL     1      15.966  11.581  15.766  0.00  0.00    +0.000 C 
ATOM     17  C   UNL     1      13.667  10.612  15.591  0.00  0.00    +0.000 C 
ATOM     18  C   UNL     1      14.019  13.087  15.409  0.00  0.00    +0.000 C 
ENDBRANCH   9  15
ENDBRANCH   4  12
BRANCH   5  20
ATOM     19  N   UNL     1      10.840  10.686  22.189  0.00  0.00    +0.000 NA
ATOM     20  C   UNL     1      11.378  11.863  22.311  0.00  0.00    +0.000 C 
BRANCH  19  21
ATOM     21  O   UNL     1      11.701   9.684  22.644  0.00  0.00    +0.000 OA
BRANCH  21  22
ATOM     22  C   UNL     1      11.249   8.401  22.224  0.00  0.00    +0.000 C 
BRANCH  22  25
ATOM     23 CL   UNL     1      15.461   6.385  19.909  0.00  0.00    +0.000 Cl
ATOM     24 CL   UNL     1      14.238   7.409  17.072  0.00  0.00    +0.000 Cl
ATOM     25  C   UNL     1      11.991   8.073  20.955  0.00  0.00    +0.000 A 
ATOM     26  C   UNL     1      13.226   7.410  20.981  0.00  0.00    +0.000 A 
ATOM     27  C   UNL     1      11.453   8.463  19.719  0.00  0.00    +0.000 A 
ATOM     28  C   UNL     1      13.930   7.181  19.792  0.00  0.00    +0.000 A 
ATOM     29  C   UNL     1      12.152   8.234  18.535  0.00  0.00    +0.000 A 
ATOM     30  C   UNL     1      13.399   7.606  18.568  0.00  0.00    +0.000 A 
ENDBRANCH  22  25
ENDBRANCH  21  22
ENDBRANCH  19  21
ENDBRANCH   5  20
TORSDOF 6
ENDMDL
MODEL 4
REMARK VINA RESULT:      -6.4      5.476      9.464
REMARK  Name = 154040923
REMARK  9 active torsions:
REMARK  status: ('A' for Active; 'I' for Inactive)
REMARK    1  A    between atoms: O_4  and  N_7
REMARK    2  A    between atoms: O_4  and  C_24
REMARK    3  A    between atoms: C_8  and  C_9
REMARK    4  A    between atoms: C_8  and  C_10
REMARK    5  A    between atoms: C_8  and  C_11
REMARK    6  A    between atoms: C_8  and  C_12
REMARK    7  A    between atoms: C_15  and  C_18
REMARK    8  A    between atoms: C_19  and  C_22
REMARK    9  A    between atoms: C_24  and  C_25
REMARK                            x       y       z     vdW  Elec       q    Type
REMARK                         _______ _______ _______ _____ _____    ______ ____
ROOT
ATOM      1  S   UNL     1       2.107  19.510  20.157  0.00  0.00    +0.000 S 
ATOM      2  N   UNL     1       2.493  18.158  22.304  0.00  0.00    +0.000 N 
ATOM      3  N   UNL     1       4.415  18.265  21.172  0.00  0.00    +0.000 NA
ATOM      4  C   UNL     1       4.574  17.518  22.331  0.00  0.00    +0.000 A 
ATOM      5  C   UNL     1       3.385  17.436  23.063  0.00  0.00    +0.000 A 
ATOM      6  C   UNL     1       3.159  18.593  21.196  0.00  0.00    +0.000 A 
ATOM      7  C   UNL     1       1.173  18.553  22.386  0.00  0.00    +0.000 A 
ATOM      8  C   UNL     1       0.789  19.248  21.310  0.00  0.00    +0.000 A 
ENDROOT
BRANCH   4  12
ATOM      9  C   UNL     1       8.419  15.854  23.279  0.00  0.00    +0.000 A 
ATOM     10  C   UNL     1       7.487  15.149  22.497  0.00  0.00    +0.000 A 
ATOM     11  C   UNL     1       8.016  17.091  23.799  0.00  0.00    +0.000 A 
ATOM     12  C   UNL     1       5.848  16.932  22.707  0.00  0.00    +0.000 A 
ATOM     13  C   UNL     1       6.219  15.675  22.218  0.00  0.00    +0.000 A 
ATOM     14  C   UNL     1       6.743  17.603  23.544  0.00  0.00    +0.000 A 
BRANCH   9  15
ATOM     15  C   UNL     1       9.832  15.330  23.577  0.00  0.00    +0.000 C 
ATOM     16  C   UNL     1      10.791  15.489  22.379  0.00  0.00    +0.000 C 
ATOM     17  C   UNL     1      10.425  16.101  24.776  0.00  0.00    +0.000 C 
ATOM     18  C   UNL     1       9.787  13.827  23.934  0.00  0.00    +0.000 C 
ENDBRANCH   9  15
ENDBRANCH   4  12
BRANCH   5  20
ATOM     19  N   UNL     1       2.581  15.672  24.581  0.00  0.00    +0.000 NA
ATOM     20  C   UNL     1       3.124  16.829  24.345  0.00  0.00    +0.000 C 
BRANCH  19  21
ATOM     21  O   UNL     1       2.402  14.945  23.401  0.00  0.00    +0.000 OA
BRANCH  21  22
ATOM     22  C   UNL     1       1.031  14.600  23.225  0.00  0.00    +0.000 C 
BRANCH  22  25
ATOM     23 CL   UNL     1       2.426  15.749  18.337  0.00  0.00    +0.000 Cl
ATOM     24 CL   UNL     1      -0.628  16.752  17.833  0.00  0.00    +0.000 Cl
ATOM     25  C   UNL     1       0.640  15.065  21.847  0.00  0.00    +0.000 A 
ATOM     26  C   UNL     1       1.578  15.147  20.809  0.00  0.00    +0.000 A 
ATOM     27  C   UNL     1      -0.685  15.453  21.599  0.00  0.00    +0.000 A 
ATOM     28  C   UNL     1       1.205  15.650  19.556  0.00  0.00    +0.000 A 
ATOM     29  C   UNL     1      -1.059  15.953  20.352  0.00  0.00    +0.000 A 
ATOM     30  C   UNL     1      -0.113  16.068  19.332  0.00  0.00    +0.000 A 
ENDBRANCH  22  25
ENDBRANCH  21  22
ENDBRANCH  19  21
ENDBRANCH   5  20
TORSDOF 6
ENDMDL
MODEL 5
REMARK VINA RESULT:      -6.4     24.359     27.965
REMARK  Name = 154040923
REMARK  9 active torsions:
REMARK  status: ('A' for Active; 'I' for Inactive)
REMARK    1  A    between atoms: O_4  and  N_7
REMARK    2  A    between atoms: O_4  and  C_24
REMARK    3  A    between atoms: C_8  and  C_9
REMARK    4  A    between atoms: C_8  and  C_10
REMARK    5  A    between atoms: C_8  and  C_11
REMARK    6  A    between atoms: C_8  and  C_12
REMARK    7  A    between atoms: C_15  and  C_18
REMARK    8  A    between atoms: C_19  and  C_22
REMARK    9  A    between atoms: C_24  and  C_25
REMARK                            x       y       z     vdW  Elec       q    Type
REMARK                         _______ _______ _______ _____ _____    ______ ____
ROOT
ATOM      1  S   UNL     1     -18.885   5.998  31.872  0.00  0.00    +0.000 S 
ATOM      2  N   UNL     1     -16.918   5.532  33.452  0.00  0.00    +0.000 N 
ATOM      3  N   UNL     1     -16.475   7.384  32.284  0.00  0.00    +0.000 NA
ATOM      4  C   UNL     1     -15.420   7.081  33.135  0.00  0.00    +0.000 A 
ATOM      5  C   UNL     1     -15.672   5.926  33.883  0.00  0.00    +0.000 A 
ATOM      6  C   UNL     1     -17.317   6.420  32.496  0.00  0.00    +0.000 A 
ATOM      7  C   UNL     1     -17.828   4.537  33.743  0.00  0.00    +0.000 A 
ATOM      8  C   UNL     1     -18.916   4.610  32.969  0.00  0.00    +0.000 A 
ENDROOT
BRANCH   4  12
ATOM      9  C   UNL     1     -11.963   9.628  33.235  0.00  0.00    +0.000 A 
ATOM     10  C   UNL     1     -11.997   8.468  32.441  0.00  0.00    +0.000 A 
ATOM     11  C   UNL     1     -13.075   9.882  34.050  0.00  0.00    +0.000 A 
ATOM     12  C   UNL     1     -14.231   7.909  33.222  0.00  0.00    +0.000 A 
ATOM     13  C   UNL     1     -13.110   7.617  32.436  0.00  0.00    +0.000 A 
ATOM     14  C   UNL     1     -14.171   9.020  34.066  0.00  0.00    +0.000 A 
BRANCH   9  15
ATOM     15  C   UNL     1     -10.778  10.607  33.241  0.00  0.00    +0.000 C 
ATOM     16  C   UNL     1     -10.541  11.263  31.865  0.00  0.00    +0.000 C 
ATOM     17  C   UNL     1     -11.041  11.726  34.272  0.00  0.00    +0.000 C 
ATOM     18  C   UNL     1      -9.475   9.875  33.633  0.00  0.00    +0.000 C 
ENDBRANCH   9  15
ENDBRANCH   4  12
BRANCH   5  20
ATOM     19  N   UNL     1     -14.205   4.202  34.852  0.00  0.00    +0.000 NA
ATOM     20  C   UNL     1     -14.890   5.304  34.923  0.00  0.00    +0.000 C 
BRANCH  19  21
ATOM     21  O   UNL     1     -14.160   3.716  33.542  0.00  0.00    +0.000 OA
BRANCH  21  22
ATOM     22  C   UNL     1     -14.583   2.358  33.493  0.00  0.00    +0.000 C 
BRANCH  22  25
ATOM     23 CL   UNL     1     -16.169   4.117  28.851  0.00  0.00    +0.000 Cl
ATOM     24 CL   UNL     1     -16.326   1.018  27.869  0.00  0.00    +0.000 Cl
ATOM     25  C   UNL     1     -14.955   2.070  32.062  0.00  0.00    +0.000 A 
ATOM     26  C   UNL     1     -15.308   3.098  31.177  0.00  0.00    +0.000 A 
ATOM     27  C   UNL     1     -14.979   0.742  31.608  0.00  0.00    +0.000 A 
ATOM     28  C   UNL     1     -15.720   2.797  29.873  0.00  0.00    +0.000 A 
ATOM     29  C   UNL     1     -15.386   0.442  30.309  0.00  0.00    +0.000 A 
ATOM     30  C   UNL     1     -15.773   1.466  29.442  0.00  0.00    +0.000 A 
ENDBRANCH  22  25
ENDBRANCH  21  22
ENDBRANCH  19  21
ENDBRANCH   5  20
TORSDOF 6
ENDMDL
MODEL 6
REMARK VINA RESULT:      -6.4      5.943      9.237
REMARK  Name = 154040923
REMARK  9 active torsions:
REMARK  status: ('A' for Active; 'I' for Inactive)
REMARK    1  A    between atoms: O_4  and  N_7
REMARK    2  A    between atoms: O_4  and  C_24
REMARK    3  A    between atoms: C_8  and  C_9
REMARK    4  A    between atoms: C_8  and  C_10
REMARK    5  A    between atoms: C_8  and  C_11
REMARK    6  A    between atoms: C_8  and  C_12
REMARK    7  A    between atoms: C_15  and  C_18
REMARK    8  A    between atoms: C_19  and  C_22
REMARK    9  A    between atoms: C_24  and  C_25
REMARK                            x       y       z     vdW  Elec       q    Type
REMARK                         _______ _______ _______ _____ _____    ______ ____
ROOT
ATOM      1  S   UNL     1      -0.051  19.745  24.809  0.00  0.00    +0.000 S 
ATOM      2  N   UNL     1       0.633  17.425  23.953  0.00  0.00    +0.000 N 
ATOM      3  N   UNL     1       2.479  18.635  24.291  0.00  0.00    +0.000 NA
ATOM      4  C   UNL     1       2.805  17.377  23.801  0.00  0.00    +0.000 A 
ATOM      5  C   UNL     1       1.666  16.594  23.583  0.00  0.00    +0.000 A 
ATOM      6  C   UNL     1       1.182  18.614  24.333  0.00  0.00    +0.000 A 
ATOM      7  C   UNL     1      -0.741  17.356  24.056  0.00  0.00    +0.000 A 
ATOM      8  C   UNL     1      -1.274  18.514  24.460  0.00  0.00    +0.000 A 
ENDROOT
BRANCH   4  12
ATOM      9  C   UNL     1       6.848  16.194  22.964  0.00  0.00    +0.000 A 
ATOM     10  C   UNL     1       5.772  15.304  22.793  0.00  0.00    +0.000 A 
ATOM     11  C   UNL     1       6.557  17.460  23.489  0.00  0.00    +0.000 A 
ATOM     12  C   UNL     1       4.178  16.961  23.582  0.00  0.00    +0.000 A 
ATOM     13  C   UNL     1       4.458  15.677  23.101  0.00  0.00    +0.000 A 
ATOM     14  C   UNL     1       5.251  17.822  23.821  0.00  0.00    +0.000 A 
BRANCH   9  15
ATOM     15  C   UNL     1       8.298  15.837  22.604  0.00  0.00    +0.000 C 
ATOM     16  C   UNL     1       8.403  15.005  21.308  0.00  0.00    +0.000 C 
ATOM     17  C   UNL     1       9.116  17.132  22.414  0.00  0.00    +0.000 C 
ATOM     18  C   UNL     1       8.948  15.009  23.735  0.00  0.00    +0.000 C 
ENDBRANCH   9  15
ENDBRANCH   4  12
BRANCH   5  20
ATOM     19  N   UNL     1       1.170  14.780  21.995  0.00  0.00    +0.000 NA
ATOM     20  C   UNL     1       1.550  15.222  23.157  0.00  0.00    +0.000 C 
BRANCH  19  21
ATOM     21  O   UNL     1       1.021  15.823  21.078  0.00  0.00    +0.000 OA
BRANCH  21  22
ATOM     22  C   UNL     1       1.503  15.439  19.794  0.00  0.00    +0.000 C 
BRANCH  22  25
ATOM     23 CL   UNL     1       6.471  14.929  18.305  0.00  0.00    +0.000 Cl
ATOM     24 CL   UNL     1       7.012  17.897  19.528  0.00  0.00    +0.000 Cl
ATOM     25  C   UNL     1       2.874  16.045  19.645  0.00  0.00    +0.000 A 
ATOM     26  C   UNL     1       3.931  15.328  19.067  0.00  0.00    +0.000 A 
ATOM     27  C   UNL     1       3.111  17.343  20.121  0.00  0.00    +0.000 A 
ATOM     28  C   UNL     1       5.214  15.887  19.006  0.00  0.00    +0.000 A 
ATOM     29  C   UNL     1       4.387  17.901  20.060  0.00  0.00    +0.000 A 
ATOM     30  C   UNL     1       5.446  17.170  19.516  0.00  0.00    +0.000 A 
ENDBRANCH  22  25
ENDBRANCH  21  22
ENDBRANCH  19  21
ENDBRANCH   5  20
TORSDOF 6
ENDMDL
MODEL 7
REMARK VINA RESULT:      -6.3      2.783      7.315
REMARK  Name = 154040923
REMARK  9 active torsions:
REMARK  status: ('A' for Active; 'I' for Inactive)
REMARK    1  A    between atoms: O_4  and  N_7
REMARK    2  A    between atoms: O_4  and  C_24
REMARK    3  A    between atoms: C_8  and  C_9
REMARK    4  A    between atoms: C_8  and  C_10
REMARK    5  A    between atoms: C_8  and  C_11
REMARK    6  A    between atoms: C_8  and  C_12
REMARK    7  A    between atoms: C_15  and  C_18
REMARK    8  A    between atoms: C_19  and  C_22
REMARK    9  A    between atoms: C_24  and  C_25
REMARK                            x       y       z     vdW  Elec       q    Type
REMARK                         _______ _______ _______ _____ _____    ______ ____
ROOT
ATOM      1  S   UNL     1       9.035  15.730  20.388  0.00  0.00    +0.000 S 
ATOM      2  N   UNL     1       9.897  14.098  22.171  0.00  0.00    +0.000 N 
ATOM      3  N   UNL     1      11.429  14.267  20.554  0.00  0.00    +0.000 NA
ATOM      4  C   UNL     1      11.847  13.370  21.528  0.00  0.00    +0.000 A 
ATOM      5  C   UNL     1      10.907  13.246  22.557  0.00  0.00    +0.000 A 
ATOM      6  C   UNL     1      10.260  14.643  20.974  0.00  0.00    +0.000 A 
ATOM      7  C   UNL     1       8.688  14.537  22.670  0.00  0.00    +0.000 A 
ATOM      8  C   UNL     1       8.075  15.380  21.834  0.00  0.00    +0.000 A 
ENDROOT
BRANCH   4  12
ATOM      9  C   UNL     1      15.709  11.512  21.250  0.00  0.00    +0.000 A 
ATOM     10  C   UNL     1      14.835  11.556  20.150  0.00  0.00    +0.000 A 
ATOM     11  C   UNL     1      15.241  12.033  22.464  0.00  0.00    +0.000 A 
ATOM     12  C   UNL     1      13.125  12.686  21.457  0.00  0.00    +0.000 A 
ATOM     13  C   UNL     1      13.561  12.129  20.250  0.00  0.00    +0.000 A 
ATOM     14  C   UNL     1      13.962  12.579  22.571  0.00  0.00    +0.000 A 
BRANCH   9  15
ATOM     15  C   UNL     1      17.128  10.926  21.173  0.00  0.00    +0.000 C 
ATOM     16  C   UNL     1      17.947  11.179  22.456  0.00  0.00    +0.000 C 
ATOM     17  C   UNL     1      17.043   9.401  20.947  0.00  0.00    +0.000 C 
ATOM     18  C   UNL     1      17.909  11.553  19.997  0.00  0.00    +0.000 C 
ENDBRANCH   9  15
ENDBRANCH   4  12
BRANCH   5  20
ATOM     19  N   UNL     1      10.752  11.220  23.947  0.00  0.00    +0.000 NA
ATOM     20  C   UNL     1      10.967  12.492  23.784  0.00  0.00    +0.000 C 
BRANCH  19  21
ATOM     21  O   UNL     1      10.600  10.569  22.720  0.00  0.00    +0.000 OA
BRANCH  21  22
ATOM     22  C   UNL     1      10.963   9.197  22.829  0.00  0.00    +0.000 C 
BRANCH  22  25
ATOM     23 CL   UNL     1      11.271   8.564  17.665  0.00  0.00    +0.000 Cl
ATOM     24 CL   UNL     1      14.344   7.582  18.094  0.00  0.00    +0.000 Cl
ATOM     25  C   UNL     1      11.794   8.870  21.616  0.00  0.00    +0.000 A 
ATOM     26  C   UNL     1      11.249   8.904  20.325  0.00  0.00    +0.000 A 
ATOM     27  C   UNL     1      13.136   8.493  21.779  0.00  0.00    +0.000 A 
ATOM     28  C   UNL     1      12.023   8.525  19.221  0.00  0.00    +0.000 A 
ATOM     29  C   UNL     1      13.908   8.118  20.681  0.00  0.00    +0.000 A 
ATOM     30  C   UNL     1      13.351   8.117  19.401  0.00  0.00    +0.000 A 
ENDBRANCH  22  25
ENDBRANCH  21  22
ENDBRANCH  19  21
ENDBRANCH   5  20
TORSDOF 6
ENDMDL
MODEL 8
REMARK VINA RESULT:      -6.2      5.768      7.914
REMARK  Name = 154040923
REMARK  9 active torsions:
REMARK  status: ('A' for Active; 'I' for Inactive)
REMARK    1  A    between atoms: O_4  and  N_7
REMARK    2  A    between atoms: O_4  and  C_24
REMARK    3  A    between atoms: C_8  and  C_9
REMARK    4  A    between atoms: C_8  and  C_10
REMARK    5  A    between atoms: C_8  and  C_11
REMARK    6  A    between atoms: C_8  and  C_12
REMARK    7  A    between atoms: C_15  and  C_18
REMARK    8  A    between atoms: C_19  and  C_22
REMARK    9  A    between atoms: C_24  and  C_25
REMARK                            x       y       z     vdW  Elec       q    Type
REMARK                         _______ _______ _______ _____ _____    ______ ____
ROOT
ATOM      1  S   UNL     1       7.768  19.998  17.939  0.00  0.00    +0.000 S 
ATOM      2  N   UNL     1       7.174  17.652  18.795  0.00  0.00    +0.000 N 
ATOM      3  N   UNL     1       5.297  18.852  18.635  0.00  0.00    +0.000 NA
ATOM      4  C   UNL     1       5.022  17.580  19.121  0.00  0.00    +0.000 A 
ATOM      5  C   UNL     1       6.181  16.804  19.229  0.00  0.00    +0.000 A 
ATOM      6  C   UNL     1       6.586  18.844  18.487  0.00  0.00    +0.000 A 
ATOM      7  C   UNL     1       8.536  17.600  18.580  0.00  0.00    +0.000 A 
ATOM      8  C   UNL     1       9.024  18.771  18.161  0.00  0.00    +0.000 A 
ENDROOT
BRANCH   4  12
ATOM      9  C   UNL     1       1.112  16.159  20.186  0.00  0.00    +0.000 A 
ATOM     10  C   UNL     1       1.843  15.577  19.135  0.00  0.00    +0.000 A 
ATOM     11  C   UNL     1       1.678  17.269  20.825  0.00  0.00    +0.000 A 
ATOM     12  C   UNL     1       3.675  17.146  19.441  0.00  0.00    +0.000 A 
ATOM     13  C   UNL     1       3.102  16.064  18.763  0.00  0.00    +0.000 A 
ATOM     14  C   UNL     1       2.921  17.771  20.437  0.00  0.00    +0.000 A 
BRANCH   9  15
ATOM     15  C   UNL     1      -0.256  15.632  20.649  0.00  0.00    +0.000 C 
ATOM     16  C   UNL     1      -1.380  15.923  19.633  0.00  0.00    +0.000 C 
ATOM     17  C   UNL     1      -0.176  14.105  20.858  0.00  0.00    +0.000 C 
ATOM     18  C   UNL     1      -0.664  16.290  21.986  0.00  0.00    +0.000 C 
ENDBRANCH   9  15
ENDBRANCH   4  12
BRANCH   5  20
ATOM     19  N   UNL     1       6.977  14.955  20.646  0.00  0.00    +0.000 NA
ATOM     20  C   UNL     1       6.342  15.424  19.613  0.00  0.00    +0.000 C 
BRANCH  19  21
ATOM     21  O   UNL     1       7.387  15.983  21.500  0.00  0.00    +0.000 OA
BRANCH  21  22
ATOM     22  C   UNL     1       7.291  15.577  22.861  0.00  0.00    +0.000 C 
BRANCH  22  25
ATOM     23 CL   UNL     1       2.159  14.894  23.463  0.00  0.00    +0.000 Cl
ATOM     24 CL   UNL     1       2.032  17.896  24.714  0.00  0.00    +0.000 Cl
ATOM     25  C   UNL     1       5.972  16.092  23.376  0.00  0.00    +0.000 A 
ATOM     26  C   UNL     1       4.795  15.339  23.254  0.00  0.00    +0.000 A 
ATOM     27  C   UNL     1       5.909  17.364  23.964  0.00  0.00    +0.000 A 
ATOM     28  C   UNL     1       3.570  15.871  23.674  0.00  0.00    +0.000 A 
ATOM     29  C   UNL     1       4.690  17.893  24.385  0.00  0.00    +0.000 A 
ATOM     30  C   UNL     1       3.515  17.156  24.228  0.00  0.00    +0.000 A 
ENDBRANCH  22  25
ENDBRANCH  21  22
ENDBRANCH  19  21
ENDBRANCH   5  20
TORSDOF 6
ENDMDL
MODEL 9
REMARK VINA RESULT:      -6.0     26.521     30.042
REMARK  Name = 154040923
REMARK  9 active torsions:
REMARK  status: ('A' for Active; 'I' for Inactive)
REMARK    1  A    between atoms: O_4  and  N_7
REMARK    2  A    between atoms: O_4  and  C_24
REMARK    3  A    between atoms: C_8  and  C_9
REMARK    4  A    between atoms: C_8  and  C_10
REMARK    5  A    between atoms: C_8  and  C_11
REMARK    6  A    between atoms: C_8  and  C_12
REMARK    7  A    between atoms: C_15  and  C_18
REMARK    8  A    between atoms: C_19  and  C_22
REMARK    9  A    between atoms: C_24  and  C_25
REMARK                            x       y       z     vdW  Elec       q    Type
REMARK                         _______ _______ _______ _____ _____    ______ ____
ROOT
ATOM      1  S   UNL     1     -14.379   8.923  31.596  0.00  0.00    +0.000 S 
ATOM      2  N   UNL     1     -14.440   7.042  33.340  0.00  0.00    +0.000 N 
ATOM      3  N   UNL     1     -16.511   7.374  32.573  0.00  0.00    +0.000 NA
ATOM      4  C   UNL     1     -16.505   6.379  33.541  0.00  0.00    +0.000 A 
ATOM      5  C   UNL     1     -15.218   6.146  34.038  0.00  0.00    +0.000 A 
ATOM      6  C   UNL     1     -15.270   7.746  32.517  0.00  0.00    +0.000 A 
ATOM      7  C   UNL     1     -13.104   7.373  33.247  0.00  0.00    +0.000 A 
ATOM      8  C   UNL     1     -12.895   8.381  32.394  0.00  0.00    +0.000 A 
ENDROOT
BRANCH   4  12
ATOM      9  C   UNL     1     -19.962   4.138  34.755  0.00  0.00    +0.000 A 
ATOM     10  C   UNL     1     -19.480   4.086  33.435  0.00  0.00    +0.000 A 
ATOM     11  C   UNL     1     -19.314   5.008  35.642  0.00  0.00    +0.000 A 
ATOM     12  C   UNL     1     -17.711   5.675  33.939  0.00  0.00    +0.000 A 
ATOM     13  C   UNL     1     -18.375   4.845  33.029  0.00  0.00    +0.000 A 
ATOM     14  C   UNL     1     -18.230   5.785  35.231  0.00  0.00    +0.000 A 
BRANCH   9  15
ATOM     15  C   UNL     1     -21.148   3.295  35.250  0.00  0.00    +0.000 C 
ATOM     16  C   UNL     1     -21.510   2.150  34.280  0.00  0.00    +0.000 C 
ATOM     17  C   UNL     1     -20.802   2.675  36.621  0.00  0.00    +0.000 C 
ATOM     18  C   UNL     1     -22.406   4.175  35.413  0.00  0.00    +0.000 C 
ENDBRANCH   9  15
ENDBRANCH   4  12
BRANCH   5  20
ATOM     19  N   UNL     1     -14.420   3.930  34.755  0.00  0.00    +0.000 NA
ATOM     20  C   UNL     1     -14.752   5.166  34.987  0.00  0.00    +0.000 C 
BRANCH  19  21
ATOM     21  O   UNL     1     -14.403   3.658  33.384  0.00  0.00    +0.000 OA
BRANCH  21  22
ATOM     22  C   UNL     1     -14.334   2.255  33.150  0.00  0.00    +0.000 C 
BRANCH  22  25
ATOM     23 CL   UNL     1     -17.417   3.973  29.315  0.00  0.00    +0.000 Cl
ATOM     24 CL   UNL     1     -17.267   0.988  28.026  0.00  0.00    +0.000 Cl
ATOM     25  C   UNL     1     -15.022   1.999  31.835  0.00  0.00    +0.000 A 
ATOM     26  C   UNL     1     -15.784   2.991  31.203  0.00  0.00    +0.000 A 
ATOM     27  C   UNL     1     -14.926   0.732  31.240  0.00  0.00    +0.000 A 
ATOM     28  C   UNL     1     -16.474   2.706  30.018  0.00  0.00    +0.000 A 
ATOM     29  C   UNL     1     -15.610   0.447  30.059  0.00  0.00    +0.000 A 
ATOM     30  C   UNL     1     -16.398   1.427  29.453  0.00  0.00    +0.000 A 
ENDBRANCH  22  25
ENDBRANCH  21  22
ENDBRANCH  19  21
ENDBRANCH   5  20
TORSDOF 6
ENDMDL
MODEL 10
REMARK VINA RESULT:      -6.0     21.457     23.379
REMARK  Name = 154040923
REMARK  9 active torsions:
REMARK  status: ('A' for Active; 'I' for Inactive)
REMARK    1  A    between atoms: O_4  and  N_7
REMARK    2  A    between atoms: O_4  and  C_24
REMARK    3  A    between atoms: C_8  and  C_9
REMARK    4  A    between atoms: C_8  and  C_10
REMARK    5  A    between atoms: C_8  and  C_11
REMARK    6  A    between atoms: C_8  and  C_12
REMARK    7  A    between atoms: C_15  and  C_18
REMARK    8  A    between atoms: C_19  and  C_22
REMARK    9  A    between atoms: C_24  and  C_25
REMARK                            x       y       z     vdW  Elec       q    Type
REMARK                         _______ _______ _______ _____ _____    ______ ____
ROOT
ATOM      1  S   UNL     1     -16.206  12.040  18.913  0.00  0.00    +0.000 S 
ATOM      2  N   UNL     1     -15.431  10.006  20.272  0.00  0.00    +0.000 N 
ATOM      3  N   UNL     1     -14.847  11.863  21.367  0.00  0.00    +0.000 NA
ATOM      4  C   UNL     1     -14.421  10.737  22.058  0.00  0.00    +0.000 A 
ATOM      5  C   UNL     1     -14.776   9.557  21.396  0.00  0.00    +0.000 A 
ATOM      6  C   UNL     1     -15.411  11.370  20.308  0.00  0.00    +0.000 A 
ATOM      7  C   UNL     1     -16.087   9.460  19.189  0.00  0.00    +0.000 A 
ATOM      8  C   UNL     1     -16.530  10.396  18.344  0.00  0.00    +0.000 A 
ENDROOT
BRANCH   4  12
ATOM      9  C   UNL     1     -12.301  10.800  25.793  0.00  0.00    +0.000 A 
ATOM     10  C   UNL     1     -13.668  10.476  25.731  0.00  0.00    +0.000 A 
ATOM     11  C   UNL     1     -11.674  11.174  24.597  0.00  0.00    +0.000 A 
ATOM     12  C   UNL     1     -13.717  10.823  23.325  0.00  0.00    +0.000 A 
ATOM     13  C   UNL     1     -14.369  10.491  24.518  0.00  0.00    +0.000 A 
ATOM     14  C   UNL     1     -12.379  11.215  23.394  0.00  0.00    +0.000 A 
BRANCH   9  15
ATOM     15  C   UNL     1     -11.488  10.760  27.096  0.00  0.00    +0.000 C 
ATOM     16  C   UNL     1     -10.012  10.374  26.865  0.00  0.00    +0.000 C 
ATOM     17  C   UNL     1     -11.524  12.149  27.769  0.00  0.00    +0.000 C 
ATOM     18  C   UNL     1     -12.086   9.725  28.076  0.00  0.00    +0.000 C 
ENDBRANCH   9  15
ENDBRANCH   4  12
BRANCH   5  20
ATOM     19  N   UNL     1     -13.515   7.470  21.731  0.00  0.00    +0.000 NA
ATOM     20  C   UNL     1     -14.601   8.181  21.791  0.00  0.00    +0.000 C 
BRANCH  19  21
ATOM     21  O   UNL     1     -12.414   8.252  21.372  0.00  0.00    +0.000 OA
BRANCH  21  22
ATOM     22  C   UNL     1     -11.427   7.462  20.716  0.00  0.00    +0.000 C 
BRANCH  22  25
ATOM     23 CL   UNL     1     -10.078  11.770  18.111  0.00  0.00    +0.000 Cl
ATOM     24 CL   UNL     1     -10.564  10.106  15.356  0.00  0.00    +0.000 Cl
ATOM     25  C   UNL     1     -11.133   8.137  19.401  0.00  0.00    +0.000 A 
ATOM     26  C   UNL     1     -10.735   9.479  19.341  0.00  0.00    +0.000 A 
ATOM     27  C   UNL     1     -11.289   7.418  18.207  0.00  0.00    +0.000 A 
ATOM     28  C   UNL     1     -10.539  10.104  18.103  0.00  0.00    +0.000 A 
ATOM     29  C   UNL     1     -11.093   8.038  16.973  0.00  0.00    +0.000 A 
ATOM     30  C   UNL     1     -10.732   9.386  16.917  0.00  0.00    +0.000 A 
ENDBRANCH  22  25
ENDBRANCH  21  22
ENDBRANCH  19  21
ENDBRANCH   5  20
TORSDOF 6
ENDMDL
