MODEL 1
REMARK VINA RESULT:      -5.2      0.000      0.000
REMARK  Name = 154040928
REMARK  6 active torsions:
REMARK  status: ('A' for Active; 'I' for Inactive)
REMARK    1  A    between atoms: O_4  and  N_7
REMARK    2  A    between atoms: O_4  and  C_17
REMARK    3  A    between atoms: C_8  and  C_13
REMARK    4  A    between atoms: C_9  and  C_10
REMARK    5  A    between atoms: C_10  and  C_14
REMARK    6  A    between atoms: C_16  and  C_17
REMARK                            x       y       z     vdW  Elec       q    Type
REMARK                         _______ _______ _______ _____ _____    ______ ____
ROOT
ATOM      1  N   UNL     1      -6.689 -10.568  12.522  0.00  0.00    +0.000 NA
ATOM      2  C   UNL     1      -5.827 -11.157  11.747  0.00  0.00    +0.000 C 
ENDROOT
BRANCH   2   6
ATOM      3  S   UNL     1      -1.554 -13.069  13.638  0.00  0.00    +0.000 S 
ATOM      4  N   UNL     1      -3.779 -12.173  12.721  0.00  0.00    +0.000 N 
ATOM      5  N   UNL     1      -2.112 -10.981  11.847  0.00  0.00    +0.000 NA
ATOM      6  C   UNL     1      -4.402 -11.261  11.904  0.00  0.00    +0.000 A 
ATOM      7  C   UNL     1      -3.337 -10.497  11.404  0.00  0.00    +0.000 A 
ATOM      8  C   UNL     1      -2.437 -11.969  12.626  0.00  0.00    +0.000 A 
ATOM      9  C   UNL     1      -4.158 -13.187  13.576  0.00  0.00    +0.000 A 
ATOM     10  C   UNL     1      -3.094 -13.769  14.158  0.00  0.00    +0.000 A 
BRANCH   7  11
ATOM     11  C   UNL     1      -3.379  -9.261  10.563  0.00  0.00    +0.000 C 
ATOM     12  C   UNL     1      -4.038  -9.469   9.208  0.00  0.00    +0.000 C 
ENDBRANCH   7  11
ENDBRANCH   2   6
BRANCH   1  13
ATOM     13  O   UNL     1      -6.075  -9.880  13.578  0.00  0.00    +0.000 OA
BRANCH  13  14
ATOM     14  C   UNL     1      -6.867  -9.986  14.762  0.00  0.00    +0.000 C 
BRANCH  14  17
ATOM     15 CL   UNL     1      -2.070 -10.829  16.557  0.00  0.00    +0.000 Cl
ATOM     16 CL   UNL     1      -3.408 -12.031  19.269  0.00  0.00    +0.000 Cl
ATOM     17  C   UNL     1      -5.995 -10.424  15.909  0.00  0.00    +0.000 A 
ATOM     18  C   UNL     1      -4.598 -10.400  15.780  0.00  0.00    +0.000 A 
ATOM     19  C   UNL     1      -6.562 -10.932  17.085  0.00  0.00    +0.000 A 
ATOM     20  C   UNL     1      -3.779 -10.880  16.806  0.00  0.00    +0.000 A 
ATOM     21  C   UNL     1      -5.745 -11.410  18.113  0.00  0.00    +0.000 A 
ATOM     22  C   UNL     1      -4.355 -11.391  17.974  0.00  0.00    +0.000 A 
ENDBRANCH  14  17
ENDBRANCH  13  14
ENDBRANCH   1  13
TORSDOF 5
ENDMDL
MODEL 2
REMARK VINA RESULT:      -5.0     27.764     28.838
REMARK  Name = 154040928
REMARK  6 active torsions:
REMARK  status: ('A' for Active; 'I' for Inactive)
REMARK    1  A    between atoms: O_4  and  N_7
REMARK    2  A    between atoms: O_4  and  C_17
REMARK    3  A    between atoms: C_8  and  C_13
REMARK    4  A    between atoms: C_9  and  C_10
REMARK    5  A    between atoms: C_10  and  C_14
REMARK    6  A    between atoms: C_16  and  C_17
REMARK                            x       y       z     vdW  Elec       q    Type
REMARK                         _______ _______ _______ _____ _____    ______ ____
ROOT
ATOM      1  N   UNL     1      14.727  10.829  18.781  0.00  0.00    +0.000 NA
ATOM      2  C   UNL     1      14.613   9.567  18.491  0.00  0.00    +0.000 C 
ENDROOT
BRANCH   2   6
ATOM      3  S   UNL     1      11.489   6.809  21.340  0.00  0.00    +0.000 S 
ATOM      4  N   UNL     1      12.997   8.265  19.858  0.00  0.00    +0.000 N 
ATOM      5  N   UNL     1      14.223   6.625  20.736  0.00  0.00    +0.000 NA
ATOM      6  C   UNL     1      14.259   8.475  19.356  0.00  0.00    +0.000 A 
ATOM      7  C   UNL     1      15.017   7.460  19.958  0.00  0.00    +0.000 A 
ATOM      8  C   UNL     1      13.040   7.154  20.641  0.00  0.00    +0.000 A 
ATOM      9  C   UNL     1      11.763   8.877  19.776  0.00  0.00    +0.000 A 
ATOM     10  C   UNL     1      10.841   8.233  20.514  0.00  0.00    +0.000 A 
BRANCH   7  11
ATOM     11  C   UNL     1      16.495   7.237  19.913  0.00  0.00    +0.000 C 
ATOM     12  C   UNL     1      16.898   5.975  19.166  0.00  0.00    +0.000 C 
ENDBRANCH   7  11
ENDBRANCH   2   6
BRANCH   1  13
ATOM     13  O   UNL     1      14.565  11.079  20.151  0.00  0.00    +0.000 OA
BRANCH  13  14
ATOM     14  C   UNL     1      14.540  12.486  20.396  0.00  0.00    +0.000 C 
BRANCH  14  17
ATOM     15 CL   UNL     1      13.050  14.689  24.854  0.00  0.00    +0.000 Cl
ATOM     16 CL   UNL     1      10.067  13.500  24.323  0.00  0.00    +0.000 Cl
ATOM     17  C   UNL     1      13.415  12.808  21.344  0.00  0.00    +0.000 A 
ATOM     18  C   UNL     1      13.666  13.548  22.509  0.00  0.00    +0.000 A 
ATOM     19  C   UNL     1      12.125  12.310  21.118  0.00  0.00    +0.000 A 
ATOM     20  C   UNL     1      12.649  13.783  23.438  0.00  0.00    +0.000 A 
ATOM     21  C   UNL     1      11.105  12.546  22.043  0.00  0.00    +0.000 A 
ATOM     22  C   UNL     1      11.366  13.277  23.206  0.00  0.00    +0.000 A 
ENDBRANCH  14  17
ENDBRANCH  13  14
ENDBRANCH   1  13
TORSDOF 5
ENDMDL
MODEL 3
REMARK VINA RESULT:      -5.0     16.795     19.192
REMARK  Name = 154040928
REMARK  6 active torsions:
REMARK  status: ('A' for Active; 'I' for Inactive)
REMARK    1  A    between atoms: O_4  and  N_7
REMARK    2  A    between atoms: O_4  and  C_17
REMARK    3  A    between atoms: C_8  and  C_13
REMARK    4  A    between atoms: C_9  and  C_10
REMARK    5  A    between atoms: C_10  and  C_14
REMARK    6  A    between atoms: C_16  and  C_17
REMARK                            x       y       z     vdW  Elec       q    Type
REMARK                         _______ _______ _______ _____ _____    ______ ____
ROOT
ATOM      1  N   UNL     1       3.150 -14.639  -4.063  0.00  0.00    +0.000 NA
ATOM      2  C   UNL     1       2.879 -14.339  -5.298  0.00  0.00    +0.000 C 
ENDROOT
BRANCH   2   6
ATOM      3  S   UNL     1      -1.656 -14.382  -7.516  0.00  0.00    +0.000 S 
ATOM      4  N   UNL     1       0.646 -14.462  -6.380  0.00  0.00    +0.000 N 
ATOM      5  N   UNL     1       0.035 -12.332  -6.614  0.00  0.00    +0.000 NA
ATOM      6  C   UNL     1       1.685 -13.747  -5.838  0.00  0.00    +0.000 A 
ATOM      7  C   UNL     1       1.298 -12.414  -6.038  0.00  0.00    +0.000 A 
ATOM      8  C   UNL     1      -0.298 -13.575  -6.797  0.00  0.00    +0.000 A 
ATOM      9  C   UNL     1       0.341 -15.789  -6.604  0.00  0.00    +0.000 A 
ATOM     10  C   UNL     1      -0.852 -15.928  -7.211  0.00  0.00    +0.000 A 
BRANCH   7  11
ATOM     11  C   UNL     1       2.072 -11.160  -5.783  0.00  0.00    +0.000 C 
ATOM     12  C   UNL     1       1.688 -10.460  -4.489  0.00  0.00    +0.000 C 
ENDBRANCH   7  11
ENDBRANCH   2   6
BRANCH   1  13
ATOM     13  O   UNL     1       2.059 -14.422  -3.209  0.00  0.00    +0.000 OA
BRANCH  13  14
ATOM     14  C   UNL     1       2.409 -13.483  -2.191  0.00  0.00    +0.000 C 
BRANCH  14  17
ATOM     15 CL   UNL     1       1.832 -15.938   2.346  0.00  0.00    +0.000 Cl
ATOM     16 CL   UNL     1       5.075 -16.123   2.539  0.00  0.00    +0.000 Cl
ATOM     17  C   UNL     1       3.061 -14.209  -1.044  0.00  0.00    +0.000 A 
ATOM     18  C   UNL     1       2.276 -14.732  -0.006  0.00  0.00    +0.000 A 
ATOM     19  C   UNL     1       4.456 -14.303  -0.958  0.00  0.00    +0.000 A 
ATOM     20  C   UNL     1       2.873 -15.335   1.105  0.00  0.00    +0.000 A 
ATOM     21  C   UNL     1       5.055 -14.908   0.149  0.00  0.00    +0.000 A 
ATOM     22  C   UNL     1       4.267 -15.420   1.184  0.00  0.00    +0.000 A 
ENDBRANCH  14  17
ENDBRANCH  13  14
ENDBRANCH   1  13
TORSDOF 5
ENDMDL
MODEL 4
REMARK VINA RESULT:      -4.9     20.980     22.778
REMARK  Name = 154040928
REMARK  6 active torsions:
REMARK  status: ('A' for Active; 'I' for Inactive)
REMARK    1  A    between atoms: O_4  and  N_7
REMARK    2  A    between atoms: O_4  and  C_17
REMARK    3  A    between atoms: C_8  and  C_13
REMARK    4  A    between atoms: C_9  and  C_10
REMARK    5  A    between atoms: C_10  and  C_14
REMARK    6  A    between atoms: C_16  and  C_17
REMARK                            x       y       z     vdW  Elec       q    Type
REMARK                         _______ _______ _______ _____ _____    ______ ____
ROOT
ATOM      1  N   UNL     1     -17.152   5.151  26.833  0.00  0.00    +0.000 NA
ATOM      2  C   UNL     1     -17.312   5.262  25.547  0.00  0.00    +0.000 C 
ENDROOT
BRANCH   2   6
ATOM      3  S   UNL     1     -18.275   1.167  22.755  0.00  0.00    +0.000 S 
ATOM      4  N   UNL     1     -17.880   3.243  24.214  0.00  0.00    +0.000 N 
ATOM      5  N   UNL     1     -16.140   2.987  22.846  0.00  0.00    +0.000 NA
ATOM      6  C   UNL     1     -17.045   4.290  24.522  0.00  0.00    +0.000 A 
ATOM      7  C   UNL     1     -15.942   4.079  23.681  0.00  0.00    +0.000 A 
ATOM      8  C   UNL     1     -17.301   2.530  23.210  0.00  0.00    +0.000 A 
ATOM      9  C   UNL     1     -19.092   2.755  24.655  0.00  0.00    +0.000 A 
ATOM     10  C   UNL     1     -19.452   1.643  23.987  0.00  0.00    +0.000 A 
BRANCH   7  11
ATOM     11  C   UNL     1     -14.638   4.810  23.641  0.00  0.00    +0.000 C 
ATOM     12  C   UNL     1     -14.089   4.997  22.235  0.00  0.00    +0.000 C 
ENDBRANCH   7  11
ENDBRANCH   2   6
BRANCH   1  13
ATOM     13  O   UNL     1     -16.547   3.939  27.193  0.00  0.00    +0.000 OA
BRANCH  13  14
ATOM     14  C   UNL     1     -17.371   3.233  28.122  0.00  0.00    +0.000 C 
BRANCH  14  17
ATOM     15 CL   UNL     1     -15.035  -0.495  30.877  0.00  0.00    +0.000 Cl
ATOM     16 CL   UNL     1     -14.365   1.743  33.142  0.00  0.00    +0.000 Cl
ATOM     17  C   UNL     1     -16.557   2.866  29.334  0.00  0.00    +0.000 A 
ATOM     18  C   UNL     1     -16.158   1.536  29.538  0.00  0.00    +0.000 A 
ATOM     19  C   UNL     1     -16.254   3.825  30.310  0.00  0.00    +0.000 A 
ATOM     20  C   UNL     1     -15.473   1.167  30.699  0.00  0.00    +0.000 A 
ATOM     21  C   UNL     1     -15.566   3.459  31.469  0.00  0.00    +0.000 A 
ATOM     22  C   UNL     1     -15.180   2.131  31.669  0.00  0.00    +0.000 A 
ENDBRANCH  14  17
ENDBRANCH  13  14
ENDBRANCH   1  13
TORSDOF 5
ENDMDL
MODEL 5
REMARK VINA RESULT:      -4.9     23.321     26.071
REMARK  Name = 154040928
REMARK  6 active torsions:
REMARK  status: ('A' for Active; 'I' for Inactive)
REMARK    1  A    between atoms: O_4  and  N_7
REMARK    2  A    between atoms: O_4  and  C_17
REMARK    3  A    between atoms: C_8  and  C_13
REMARK    4  A    between atoms: C_9  and  C_10
REMARK    5  A    between atoms: C_10  and  C_14
REMARK    6  A    between atoms: C_16  and  C_17
REMARK                            x       y       z     vdW  Elec       q    Type
REMARK                         _______ _______ _______ _____ _____    ______ ____
ROOT
ATOM      1  N   UNL     1      12.171   6.471   5.097  0.00  0.00    +0.000 NA
ATOM      2  C   UNL     1      12.122   6.916   6.318  0.00  0.00    +0.000 C 
ENDROOT
BRANCH   2   6
ATOM      3  S   UNL     1       9.512  10.657   8.481  0.00  0.00    +0.000 S 
ATOM      4  N   UNL     1      10.905   8.824   7.344  0.00  0.00    +0.000 N 
ATOM      5  N   UNL     1       9.061   7.903   8.190  0.00  0.00    +0.000 NA
ATOM      6  C   UNL     1      11.007   7.493   7.019  0.00  0.00    +0.000 A 
ATOM      7  C   UNL     1       9.861   6.931   7.600  0.00  0.00    +0.000 A 
ATOM      8  C   UNL     1       9.732   9.001   8.010  0.00  0.00    +0.000 A 
ATOM      9  C   UNL     1      11.662   9.965   7.178  0.00  0.00    +0.000 A 
ATOM     10  C   UNL     1      11.069  11.038   7.733  0.00  0.00    +0.000 A 
BRANCH   7  11
ATOM     11  C   UNL     1       9.471   5.492   7.709  0.00  0.00    +0.000 C 
ATOM     12  C   UNL     1       9.492   4.961   9.134  0.00  0.00    +0.000 C 
ENDBRANCH   7  11
ENDBRANCH   2   6
BRANCH   1  13
ATOM     13  O   UNL     1      10.979   6.703   4.396  0.00  0.00    +0.000 OA
BRANCH  13  14
ATOM     14  C   UNL     1      10.361   5.461   4.053  0.00  0.00    +0.000 C 
BRANCH  14  17
ATOM     15 CL   UNL     1      13.818   3.247   0.877  0.00  0.00    +0.000 Cl
ATOM     16 CL   UNL     1      11.996   4.240  -1.629  0.00  0.00    +0.000 Cl
ATOM     17  C   UNL     1      10.739   5.087   2.644  0.00  0.00    +0.000 A 
ATOM     18  C   UNL     1      11.928   4.384   2.398  0.00  0.00    +0.000 A 
ATOM     19  C   UNL     1       9.954   5.500   1.560  0.00  0.00    +0.000 A 
ATOM     20  C   UNL     1      12.332   4.102   1.090  0.00  0.00    +0.000 A 
ATOM     21  C   UNL     1      10.355   5.217   0.252  0.00  0.00    +0.000 A 
ATOM     22  C   UNL     1      11.545   4.524   0.014  0.00  0.00    +0.000 A 
ENDBRANCH  14  17
ENDBRANCH  13  14
ENDBRANCH   1  13
TORSDOF 5
ENDMDL
MODEL 6
REMARK VINA RESULT:      -4.8     15.275     17.150
REMARK  Name = 154040928
REMARK  6 active torsions:
REMARK  status: ('A' for Active; 'I' for Inactive)
REMARK    1  A    between atoms: O_4  and  N_7
REMARK    2  A    between atoms: O_4  and  C_17
REMARK    3  A    between atoms: C_8  and  C_13
REMARK    4  A    between atoms: C_9  and  C_10
REMARK    5  A    between atoms: C_10  and  C_14
REMARK    6  A    between atoms: C_16  and  C_17
REMARK                            x       y       z     vdW  Elec       q    Type
REMARK                         _______ _______ _______ _____ _____    ______ ____
ROOT
ATOM      1  N   UNL     1      -1.080 -13.999  -1.306  0.00  0.00    +0.000 NA
ATOM      2  C   UNL     1      -0.633 -14.541  -2.400  0.00  0.00    +0.000 C 
ENDROOT
BRANCH   2   6
ATOM      3  S   UNL     1       3.824 -16.892  -2.707  0.00  0.00    +0.000 S 
ATOM      4  N   UNL     1       1.518 -15.780  -2.505  0.00  0.00    +0.000 N 
ATOM      5  N   UNL     1       2.845 -14.464  -3.720  0.00  0.00    +0.000 NA
ATOM      6  C   UNL     1       0.728 -14.704  -2.831  0.00  0.00    +0.000 A 
ATOM      7  C   UNL     1       1.598 -13.874  -3.554  0.00  0.00    +0.000 A 
ATOM      8  C   UNL     1       2.739 -15.587  -3.074  0.00  0.00    +0.000 A 
ATOM      9  C   UNL     1       1.390 -16.942  -1.773  0.00  0.00    +0.000 A 
ATOM     10  C   UNL     1       2.531 -17.654  -1.770  0.00  0.00    +0.000 A 
BRANCH   7  11
ATOM     11  C   UNL     1       1.365 -12.489  -4.068  0.00  0.00    +0.000 C 
ATOM     12  C   UNL     1       2.086 -12.195  -5.375  0.00  0.00    +0.000 C 
ENDBRANCH   7  11
ENDBRANCH   2   6
BRANCH   1  13
ATOM     13  O   UNL     1      -0.055 -13.430  -0.535  0.00  0.00    +0.000 OA
BRANCH  13  14
ATOM     14  C   UNL     1       0.001 -14.057   0.747  0.00  0.00    +0.000 C 
BRANCH  14  17
ATOM     15 CL   UNL     1       5.025 -13.886  -0.549  0.00  0.00    +0.000 Cl
ATOM     16 CL   UNL     1       5.544 -16.312   1.557  0.00  0.00    +0.000 Cl
ATOM     17  C   UNL     1       1.399 -14.561   0.996  0.00  0.00    +0.000 A 
ATOM     18  C   UNL     1       2.474 -14.048   0.254  0.00  0.00    +0.000 A 
ATOM     19  C   UNL     1       1.633 -15.597   1.909  0.00  0.00    +0.000 A 
ATOM     20  C   UNL     1       3.762 -14.564   0.416  0.00  0.00    +0.000 A 
ATOM     21  C   UNL     1       2.921 -16.113   2.074  0.00  0.00    +0.000 A 
ATOM     22  C   UNL     1       3.986 -15.603   1.326  0.00  0.00    +0.000 A 
ENDBRANCH  14  17
ENDBRANCH  13  14
ENDBRANCH   1  13
TORSDOF 5
ENDMDL
MODEL 7
REMARK VINA RESULT:      -4.8     21.200     22.390
REMARK  Name = 154040928
REMARK  6 active torsions:
REMARK  status: ('A' for Active; 'I' for Inactive)
REMARK    1  A    between atoms: O_4  and  N_7
REMARK    2  A    between atoms: O_4  and  C_17
REMARK    3  A    between atoms: C_8  and  C_13
REMARK    4  A    between atoms: C_9  and  C_10
REMARK    5  A    between atoms: C_10  and  C_14
REMARK    6  A    between atoms: C_16  and  C_17
REMARK                            x       y       z     vdW  Elec       q    Type
REMARK                         _______ _______ _______ _____ _____    ______ ____
ROOT
ATOM      1  N   UNL     1     -13.462   7.943  21.648  0.00  0.00    +0.000 NA
ATOM      2  C   UNL     1     -14.682   7.651  21.989  0.00  0.00    +0.000 C 
ENDROOT
BRANCH   2   6
ATOM      3  S   UNL     1     -17.614   4.801  19.028  0.00  0.00    +0.000 S 
ATOM      4  N   UNL     1     -16.108   6.314  20.455  0.00  0.00    +0.000 N 
ATOM      5  N   UNL     1     -16.599   4.482  21.625  0.00  0.00    +0.000 NA
ATOM      6  C   UNL     1     -15.456   6.487  21.651  0.00  0.00    +0.000 A 
ATOM      7  C   UNL     1     -15.817   5.346  22.383  0.00  0.00    +0.000 A 
ATOM      8  C   UNL     1     -16.741   5.111  20.496  0.00  0.00    +0.000 A 
ATOM      9  C   UNL     1     -16.279   7.026  19.286  0.00  0.00    +0.000 A 
ATOM     10  C   UNL     1     -17.064   6.367  18.414  0.00  0.00    +0.000 A 
BRANCH   7  11
ATOM     11  C   UNL     1     -15.531   5.016  23.813  0.00  0.00    +0.000 C 
ATOM     12  C   UNL     1     -15.772   3.555  24.160  0.00  0.00    +0.000 C 
ENDBRANCH   7  11
ENDBRANCH   2   6
BRANCH   1  13
ATOM     13  O   UNL     1     -12.920   7.009  20.753  0.00  0.00    +0.000 OA
BRANCH  13  14
ATOM     14  C   UNL     1     -11.520   7.240  20.588  0.00  0.00    +0.000 C 
BRANCH  14  17
ATOM     15 CL   UNL     1     -12.530   8.417  15.634  0.00  0.00    +0.000 Cl
ATOM     16 CL   UNL     1     -10.392  10.857  15.887  0.00  0.00    +0.000 Cl
ATOM     17  C   UNL     1     -11.302   8.181  19.433  0.00  0.00    +0.000 A 
ATOM     18  C   UNL     1     -11.954   7.957  18.211  0.00  0.00    +0.000 A 
ATOM     19  C   UNL     1     -10.392   9.241  19.536  0.00  0.00    +0.000 A 
ATOM     20  C   UNL     1     -11.697   8.774  17.106  0.00  0.00    +0.000 A 
ATOM     21  C   UNL     1     -10.136  10.061  18.434  0.00  0.00    +0.000 A 
ATOM     22  C   UNL     1     -10.782   9.826  17.217  0.00  0.00    +0.000 A 
ENDBRANCH  14  17
ENDBRANCH  13  14
ENDBRANCH   1  13
TORSDOF 5
ENDMDL
MODEL 8
REMARK VINA RESULT:      -4.8      3.228      4.335
REMARK  Name = 154040928
REMARK  6 active torsions:
REMARK  status: ('A' for Active; 'I' for Inactive)
REMARK    1  A    between atoms: O_4  and  N_7
REMARK    2  A    between atoms: O_4  and  C_17
REMARK    3  A    between atoms: C_8  and  C_13
REMARK    4  A    between atoms: C_9  and  C_10
REMARK    5  A    between atoms: C_10  and  C_14
REMARK    6  A    between atoms: C_16  and  C_17
REMARK                            x       y       z     vdW  Elec       q    Type
REMARK                         _______ _______ _______ _____ _____    ______ ____
ROOT
ATOM      1  N   UNL     1      -5.231 -12.175  15.394  0.00  0.00    +0.000 NA
ATOM      2  C   UNL     1      -4.568 -12.429  14.305  0.00  0.00    +0.000 C 
ENDROOT
BRANCH   2   6
ATOM      3  S   UNL     1      -3.278  -9.556  10.360  0.00  0.00    +0.000 S 
ATOM      4  N   UNL     1      -4.028 -11.025  12.328  0.00  0.00    +0.000 N 
ATOM      5  N   UNL     1      -1.972 -10.272  12.739  0.00  0.00    +0.000 NA
ATOM      6  C   UNL     1      -3.707 -11.557  13.553  0.00  0.00    +0.000 A 
ATOM      7  C   UNL     1      -2.397 -11.106  13.766  0.00  0.00    +0.000 A 
ATOM      8  C   UNL     1      -2.978 -10.265  11.915  0.00  0.00    +0.000 A 
ATOM      9  C   UNL     1      -5.093 -11.075  11.452  0.00  0.00    +0.000 A 
ATOM     10  C   UNL     1      -4.858 -10.351  10.343  0.00  0.00    +0.000 A 
BRANCH   7  11
ATOM     11  C   UNL     1      -1.448 -11.460  14.866  0.00  0.00    +0.000 C 
ATOM     12  C   UNL     1      -1.518 -10.517  16.057  0.00  0.00    +0.000 C 
ENDBRANCH   7  11
ENDBRANCH   2   6
BRANCH   1  13
ATOM     13  O   UNL     1      -5.130 -10.830  15.779  0.00  0.00    +0.000 OA
BRANCH  13  14
ATOM     14  C   UNL     1      -5.307 -10.708  17.192  0.00  0.00    +0.000 C 
BRANCH  14  17
ATOM     15 CL   UNL     1      -9.528  -7.785  16.421  0.00  0.00    +0.000 Cl
ATOM     16 CL   UNL     1     -11.060  -9.595  18.649  0.00  0.00    +0.000 Cl
ATOM     17  C   UNL     1      -6.763 -10.468  17.493  0.00  0.00    +0.000 A 
ATOM     18  C   UNL     1      -7.443  -9.406  16.879  0.00  0.00    +0.000 A 
ATOM     19  C   UNL     1      -7.435 -11.250  18.443  0.00  0.00    +0.000 A 
ATOM     20  C   UNL     1      -8.771  -9.122  17.212  0.00  0.00    +0.000 A 
ATOM     21  C   UNL     1      -8.763 -10.970  18.774  0.00  0.00    +0.000 A 
ATOM     22  C   UNL     1      -9.431  -9.904  18.165  0.00  0.00    +0.000 A 
ENDBRANCH  14  17
ENDBRANCH  13  14
ENDBRANCH   1  13
TORSDOF 5
ENDMDL
MODEL 9
REMARK VINA RESULT:      -4.8     20.883     22.223
REMARK  Name = 154040928
REMARK  6 active torsions:
REMARK  status: ('A' for Active; 'I' for Inactive)
REMARK    1  A    between atoms: O_4  and  N_7
REMARK    2  A    between atoms: O_4  and  C_17
REMARK    3  A    between atoms: C_8  and  C_13
REMARK    4  A    between atoms: C_9  and  C_10
REMARK    5  A    between atoms: C_10  and  C_14
REMARK    6  A    between atoms: C_16  and  C_17
REMARK                            x       y       z     vdW  Elec       q    Type
REMARK                         _______ _______ _______ _____ _____    ______ ____
ROOT
ATOM      1  N   UNL     1     -10.705   7.865  17.508  0.00  0.00    +0.000 NA
ATOM      2  C   UNL     1     -10.470   8.283  16.300  0.00  0.00    +0.000 C 
ENDROOT
BRANCH   2   6
ATOM      3  S   UNL     1     -12.790  11.127  12.834  0.00  0.00    +0.000 S 
ATOM      4  N   UNL     1     -11.657   9.598  14.558  0.00  0.00    +0.000 N 
ATOM      5  N   UNL     1     -11.184  11.717  15.058  0.00  0.00    +0.000 NA
ATOM      6  C   UNL     1     -10.872   9.518  15.682  0.00  0.00    +0.000 A 
ATOM      7  C   UNL     1     -10.552  10.857  15.948  0.00  0.00    +0.000 A 
ATOM      8  C   UNL     1     -11.819  10.915  14.257  0.00  0.00    +0.000 A 
ATOM      9  C   UNL     1     -12.282   8.720  13.697  0.00  0.00    +0.000 A 
ATOM     10  C   UNL     1     -12.930   9.368  12.711  0.00  0.00    +0.000 A 
BRANCH   7  11
ATOM     11  C   UNL     1      -9.613  11.415  16.969  0.00  0.00    +0.000 C 
ATOM     12  C   UNL     1      -8.954  12.718  16.544  0.00  0.00    +0.000 C 
ENDBRANCH   7  11
ENDBRANCH   2   6
BRANCH   1  13
ATOM     13  O   UNL     1     -11.548   8.732  18.218  0.00  0.00    +0.000 OA
BRANCH  13  14
ATOM     14  C   UNL     1     -11.180   8.755  19.599  0.00  0.00    +0.000 C 
BRANCH  14  17
ATOM     15 CL   UNL     1     -15.733   8.560  22.086  0.00  0.00    +0.000 Cl
ATOM     16 CL   UNL     1     -14.968   5.542  23.031  0.00  0.00    +0.000 Cl
ATOM     17  C   UNL     1     -12.164   7.936  20.392  0.00  0.00    +0.000 A 
ATOM     18  C   UNL     1     -13.380   8.502  20.804  0.00  0.00    +0.000 A 
ATOM     19  C   UNL     1     -11.849   6.632  20.794  0.00  0.00    +0.000 A 
ATOM     20  C   UNL     1     -14.265   7.781  21.610  0.00  0.00    +0.000 A 
ATOM     21  C   UNL     1     -12.733   5.908  21.597  0.00  0.00    +0.000 A 
ATOM     22  C   UNL     1     -13.939   6.481  22.011  0.00  0.00    +0.000 A 
ENDBRANCH  14  17
ENDBRANCH  13  14
ENDBRANCH   1  13
TORSDOF 5
ENDMDL
MODEL 10
REMARK VINA RESULT:      -4.7     22.417     23.922
REMARK  Name = 154040928
REMARK  6 active torsions:
REMARK  status: ('A' for Active; 'I' for Inactive)
REMARK    1  A    between atoms: O_4  and  N_7
REMARK    2  A    between atoms: O_4  and  C_17
REMARK    3  A    between atoms: C_8  and  C_13
REMARK    4  A    between atoms: C_9  and  C_10
REMARK    5  A    between atoms: C_10  and  C_14
REMARK    6  A    between atoms: C_16  and  C_17
REMARK                            x       y       z     vdW  Elec       q    Type
REMARK                         _______ _______ _______ _____ _____    ______ ____
ROOT
ATOM      1  N   UNL     1     -11.105  12.709  16.547  0.00  0.00    +0.000 NA
ATOM      2  C   UNL     1     -11.744  11.578  16.618  0.00  0.00    +0.000 C 
ENDROOT
BRANCH   2   6
ATOM      3  S   UNL     1     -10.904   7.605  13.618  0.00  0.00    +0.000 S 
ATOM      4  N   UNL     1     -11.360   9.680  15.061  0.00  0.00    +0.000 N 
ATOM      5  N   UNL     1     -10.420   8.112  16.336  0.00  0.00    +0.000 NA
ATOM      6  C   UNL     1     -11.270  10.257  16.304  0.00  0.00    +0.000 A 
ATOM      7  C   UNL     1     -10.720   9.238  17.094  0.00  0.00    +0.000 A 
ATOM      8  C   UNL     1     -10.825   8.431  15.143  0.00  0.00    +0.000 A 
ATOM      9  C   UNL     1     -11.841  10.030  13.817  0.00  0.00    +0.000 A 
ATOM     10  C   UNL     1     -11.684   9.034  12.926  0.00  0.00    +0.000 A 
BRANCH   7  11
ATOM     11  C   UNL     1     -10.502   9.207  18.573  0.00  0.00    +0.000 C 
ATOM     12  C   UNL     1     -11.194   8.044  19.267  0.00  0.00    +0.000 C 
ENDBRANCH   7  11
ENDBRANCH   2   6
BRANCH   1  13
ATOM     13  O   UNL     1      -9.825  12.565  15.993  0.00  0.00    +0.000 OA
BRANCH  13  14
ATOM     14  C   UNL     1      -8.832  12.976  16.935  0.00  0.00    +0.000 C 
BRANCH  14  17
ATOM     15 CL   UNL     1      -6.774  14.400  12.387  0.00  0.00    +0.000 Cl
ATOM     16 CL   UNL     1      -4.082  15.267  13.995  0.00  0.00    +0.000 Cl
ATOM     17  C   UNL     1      -7.683  13.615  16.201  0.00  0.00    +0.000 A 
ATOM     18  C   UNL     1      -7.731  13.758  14.806  0.00  0.00    +0.000 A 
ATOM     19  C   UNL     1      -6.524  14.002  16.887  0.00  0.00    +0.000 A 
ATOM     20  C   UNL     1      -6.637  14.274  14.105  0.00  0.00    +0.000 A 
ATOM     21  C   UNL     1      -5.431  14.520  16.188  0.00  0.00    +0.000 A 
ATOM     22  C   UNL     1      -5.482  14.652  14.797  0.00  0.00    +0.000 A 
ENDBRANCH  14  17
ENDBRANCH  13  14
ENDBRANCH   1  13
TORSDOF 5
ENDMDL
