REMARK  Name = 154040928
REMARK  6 active torsions:
REMARK  status: ('A' for Active; 'I' for Inactive)
REMARK    1  A    between atoms: O_4  and  N_7
REMARK    2  A    between atoms: O_4  and  C_17
REMARK    3  A    between atoms: C_8  and  C_13
REMARK    4  A    between atoms: C_9  and  C_10
REMARK    5  A    between atoms: C_10  and  C_14
REMARK    6  A    between atoms: C_16  and  C_17
REMARK                            x       y       z     vdW  Elec       q    Type
REMARK                         _______ _______ _______ _____ _____    ______ ____
ROOT
ATOM      1  N   UNL     1      -3.938   1.032  -2.536  0.00  0.00    +0.000 NA
ATOM      2  C   UNL     1      -4.833   0.787  -3.447  0.00  0.00    +0.000 C 
ENDROOT
BRANCH   2   6
ATOM      3  S   UNL     1      -8.863  -1.905  -4.860  0.00  0.00    +0.000 S 
ATOM      4  N   UNL     1      -6.763  -0.572  -4.223  0.00  0.00    +0.000 N 
ATOM      5  N   UNL     1      -8.260  -0.378  -2.584  0.00  0.00    +0.000 NA
ATOM      6  C   UNL     1      -6.146   0.223  -3.288  0.00  0.00    +0.000 A 
ATOM      7  C   UNL     1      -7.123   0.366  -2.292  0.00  0.00    +0.000 A 
ATOM      8  C   UNL     1      -7.990  -0.907  -3.740  0.00  0.00    +0.000 A 
ATOM      9  C   UNL     1      -6.466  -1.081  -5.470  0.00  0.00    +0.000 A 
ATOM     10  C   UNL     1      -7.482  -1.813  -5.962  0.00  0.00    +0.000 A 
BRANCH   7  11
ATOM     11  C   UNL     1      -7.102   1.229  -1.071  0.00  0.00    +0.000 C 
ATOM     12  C   UNL     1      -8.471   1.763  -0.679  0.00  0.00    +0.000 C 
ENDBRANCH   7  11
ENDBRANCH   2   6
BRANCH   1  13
ATOM     13  O   UNL     1      -4.327   0.574  -1.269  0.00  0.00    +0.000 OA
BRANCH  13  14
ATOM     14  C   UNL     1      -3.314   0.870  -0.306  0.00  0.00    +0.000 C 
BRANCH  14  17
ATOM     15 CL   UNL     1       0.969  -1.416  -2.144  0.00  0.00    +0.000 Cl
ATOM     16 CL   UNL     1       0.360  -3.919  -0.156  0.00  0.00    +0.000 Cl
ATOM     17  C   UNL     1      -2.351  -0.285  -0.223  0.00  0.00    +0.000 A 
ATOM     18  C   UNL     1      -1.232  -0.330  -1.068  0.00  0.00    +0.000 A 
ATOM     19  C   UNL     1      -2.599  -1.362   0.638  0.00  0.00    +0.000 A 
ATOM     20  C   UNL     1      -0.376  -1.435  -1.059  0.00  0.00    +0.000 A 
ATOM     21  C   UNL     1      -1.743  -2.466   0.651  0.00  0.00    +0.000 A 
ATOM     22  C   UNL     1      -0.635  -2.508  -0.200  0.00  0.00    +0.000 A 
ENDBRANCH  14  17
ENDBRANCH  13  14
ENDBRANCH   1  13
TORSDOF 5
