MODEL 1
REMARK VINA RESULT:      -7.0      0.000      0.000
REMARK  Name = 154040924
REMARK  6 active torsions:
REMARK  status: ('A' for Active; 'I' for Inactive)
REMARK    1  A    between atoms: O_4  and  N_7
REMARK    2  A    between atoms: O_4  and  C_23
REMARK    3  A    between atoms: C_8  and  C_10
REMARK    4  A    between atoms: C_9  and  C_18
REMARK    5  A    between atoms: C_12  and  C_19
REMARK    6  A    between atoms: C_23  and  C_24
REMARK                            x       y       z     vdW  Elec       q    Type
REMARK                         _______ _______ _______ _____ _____    ______ ____
ROOT
ATOM      1  S   UNL     1     -19.720   5.241  27.869  0.00  0.00    +0.000 S 
ATOM      2  N   UNL     1     -18.868   3.896  25.864  0.00  0.00    +0.000 N 
ATOM      3  N   UNL     1     -17.841   5.861  25.870  0.00  0.00    +0.000 NA
ATOM      4  C   UNL     1     -17.403   5.097  24.801  0.00  0.00    +0.000 A 
ATOM      5  C   UNL     1     -18.043   3.835  24.768  0.00  0.00    +0.000 A 
ATOM      6  C   UNL     1     -18.717   5.097  26.456  0.00  0.00    +0.000 A 
ATOM      7  C   UNL     1     -19.761   3.037  26.496  0.00  0.00    +0.000 A 
ATOM      8  C   UNL     1     -20.329   3.610  27.561  0.00  0.00    +0.000 A 
ENDROOT
BRANCH   4   9
ATOM      9  C   UNL     1     -16.382   5.590  23.877  0.00  0.00    +0.000 A 
ATOM     10  C   UNL     1     -14.488   6.446  21.925  0.00  0.00    +0.000 A 
ATOM     11  C   UNL     1     -15.160   4.925  23.728  0.00  0.00    +0.000 A 
ATOM     12  C   UNL     1     -16.597   6.715  23.085  0.00  0.00    +0.000 A 
ATOM     13  C   UNL     1     -14.217   5.355  22.773  0.00  0.00    +0.000 A 
ATOM     14  C   UNL     1     -15.710   7.090  22.098  0.00  0.00    +0.000 A 
BRANCH  10  15
ATOM     15  C   UNL     1     -13.562   6.946  20.895  0.00  0.00    +0.000 A 
ATOM     16  C   UNL     1     -12.173   6.824  21.018  0.00  0.00    +0.000 A 
ATOM     17  C   UNL     1     -14.064   7.527  19.711  0.00  0.00    +0.000 A 
ATOM     18  C   UNL     1     -11.327   7.253  19.992  0.00  0.00    +0.000 A 
ATOM     19  C   UNL     1     -13.227   7.929  18.675  0.00  0.00    +0.000 A 
ATOM     20  C   UNL     1     -11.854   7.794  18.820  0.00  0.00    +0.000 A 
ENDBRANCH  10  15
ENDBRANCH   4   9
BRANCH   5  22
ATOM     21  N   UNL     1     -16.986   1.740  24.031  0.00  0.00    +0.000 NA
ATOM     22  C   UNL     1     -17.877   2.685  23.928  0.00  0.00    +0.000 C 
BRANCH  21  23
ATOM     23  O   UNL     1     -16.217   1.889  25.181  0.00  0.00    +0.000 OA
BRANCH  23  24
ATOM     24  C   UNL     1     -16.707   1.032  26.204  0.00  0.00    +0.000 C 
BRANCH  24  27
ATOM     25 CL   UNL     1     -15.233   0.217  31.123  0.00  0.00    +0.000 Cl
ATOM     26 CL   UNL     1     -14.904   3.441  31.425  0.00  0.00    +0.000 Cl
ATOM     27  C   UNL     1     -16.187   1.588  27.498  0.00  0.00    +0.000 A 
ATOM     28  C   UNL     1     -15.921   0.756  28.592  0.00  0.00    +0.000 A 
ATOM     29  C   UNL     1     -15.988   2.971  27.623  0.00  0.00    +0.000 A 
ATOM     30  C   UNL     1     -15.507   1.306  29.809  0.00  0.00    +0.000 A 
ATOM     31  C   UNL     1     -15.577   3.520  28.835  0.00  0.00    +0.000 A 
ATOM     32  C   UNL     1     -15.350   2.691  29.936  0.00  0.00    +0.000 A 
ENDBRANCH  24  27
ENDBRANCH  23  24
ENDBRANCH  21  23
ENDBRANCH   5  22
TORSDOF 6
ENDMDL
MODEL 2
REMARK VINA RESULT:      -6.9     19.561     21.064
REMARK  Name = 154040924
REMARK  6 active torsions:
REMARK  status: ('A' for Active; 'I' for Inactive)
REMARK    1  A    between atoms: O_4  and  N_7
REMARK    2  A    between atoms: O_4  and  C_23
REMARK    3  A    between atoms: C_8  and  C_10
REMARK    4  A    between atoms: C_9  and  C_18
REMARK    5  A    between atoms: C_12  and  C_19
REMARK    6  A    between atoms: C_23  and  C_24
REMARK                            x       y       z     vdW  Elec       q    Type
REMARK                         _______ _______ _______ _____ _____    ______ ____
ROOT
ATOM      1  S   UNL     1     -11.343 -13.150  18.415  0.00  0.00    +0.000 S 
ATOM      2  N   UNL     1      -9.340 -11.564  18.583  0.00  0.00    +0.000 N 
ATOM      3  N   UNL     1      -9.423 -12.361  16.516  0.00  0.00    +0.000 NA
ATOM      4  C   UNL     1      -8.353 -11.492  16.650  0.00  0.00    +0.000 A 
ATOM      5  C   UNL     1      -8.272 -10.965  17.961  0.00  0.00    +0.000 A 
ATOM      6  C   UNL     1      -9.962 -12.370  17.701  0.00  0.00    +0.000 A 
ATOM      7  C   UNL     1      -9.923 -11.512  19.846  0.00  0.00    +0.000 A 
ATOM      8  C   UNL     1     -10.980 -12.325  19.935  0.00  0.00    +0.000 A 
ENDROOT
BRANCH   4   9
ATOM      9  C   UNL     1      -7.476 -11.180  15.522  0.00  0.00    +0.000 A 
ATOM     10  C   UNL     1      -5.909 -10.440  13.258  0.00  0.00    +0.000 A 
ATOM     11  C   UNL     1      -7.484 -11.961  14.362  0.00  0.00    +0.000 A 
ATOM     12  C   UNL     1      -6.625 -10.077  15.542  0.00  0.00    +0.000 A 
ATOM     13  C   UNL     1      -6.699 -11.604  13.246  0.00  0.00    +0.000 A 
ATOM     14  C   UNL     1      -5.917  -9.684  14.427  0.00  0.00    +0.000 A 
BRANCH  10  15
ATOM     15  C   UNL     1      -5.074  -9.992  12.130  0.00  0.00    +0.000 A 
ATOM     16  C   UNL     1      -5.529  -9.063  11.188  0.00  0.00    +0.000 A 
ATOM     17  C   UNL     1      -3.749 -10.461  11.998  0.00  0.00    +0.000 A 
ATOM     18  C   UNL     1      -4.688  -8.614  10.166  0.00  0.00    +0.000 A 
ATOM     19  C   UNL     1      -2.898  -9.994  11.001  0.00  0.00    +0.000 A 
ATOM     20  C   UNL     1      -3.373  -9.071  10.081  0.00  0.00    +0.000 A 
ENDBRANCH  10  15
ENDBRANCH   4   9
BRANCH   5  22
ATOM     21  N   UNL     1      -6.349 -10.189  19.283  0.00  0.00    +0.000 NA
ATOM     22  C   UNL     1      -7.415  -9.986  18.562  0.00  0.00    +0.000 C 
BRANCH  21  23
ATOM     23  O   UNL     1      -6.018 -11.539  19.333  0.00  0.00    +0.000 OA
BRANCH  23  24
ATOM     24  C   UNL     1      -4.614 -11.698  19.176  0.00  0.00    +0.000 C 
BRANCH  24  27
ATOM     25 CL   UNL     1      -5.503 -15.119  15.363  0.00  0.00    +0.000 Cl
ATOM     26 CL   UNL     1      -3.429 -13.416  13.522  0.00  0.00    +0.000 Cl
ATOM     27  C   UNL     1      -4.399 -12.117  17.749  0.00  0.00    +0.000 A 
ATOM     28  C   UNL     1      -5.011 -13.263  17.229  0.00  0.00    +0.000 A 
ATOM     29  C   UNL     1      -3.551 -11.359  16.928  0.00  0.00    +0.000 A 
ATOM     30  C   UNL     1      -4.738 -13.674  15.921  0.00  0.00    +0.000 A 
ATOM     31  C   UNL     1      -3.278 -11.767  15.625  0.00  0.00    +0.000 A 
ATOM     32  C   UNL     1      -3.858 -12.933  15.122  0.00  0.00    +0.000 A 
ENDBRANCH  24  27
ENDBRANCH  23  24
ENDBRANCH  21  23
ENDBRANCH   5  22
TORSDOF 6
ENDMDL
MODEL 3
REMARK VINA RESULT:      -6.8     33.295     36.871
REMARK  Name = 154040924
REMARK  6 active torsions:
REMARK  status: ('A' for Active; 'I' for Inactive)
REMARK    1  A    between atoms: O_4  and  N_7
REMARK    2  A    between atoms: O_4  and  C_23
REMARK    3  A    between atoms: C_8  and  C_10
REMARK    4  A    between atoms: C_9  and  C_18
REMARK    5  A    between atoms: C_12  and  C_19
REMARK    6  A    between atoms: C_23  and  C_24
REMARK                            x       y       z     vdW  Elec       q    Type
REMARK                         _______ _______ _______ _____ _____    ______ ____
ROOT
ATOM      1  S   UNL     1      22.062   6.596  25.665  0.00  0.00    +0.000 S 
ATOM      2  N   UNL     1      22.110   6.917  23.125  0.00  0.00    +0.000 N 
ATOM      3  N   UNL     1      19.995   6.725  23.761  0.00  0.00    +0.000 NA
ATOM      4  C   UNL     1      20.066   6.906  22.389  0.00  0.00    +0.000 A 
ATOM      5  C   UNL     1      21.407   7.031  21.951  0.00  0.00    +0.000 A 
ATOM      6  C   UNL     1      21.241   6.729  24.137  0.00  0.00    +0.000 A 
ATOM      7  C   UNL     1      23.448   6.977  23.502  0.00  0.00    +0.000 A 
ATOM      8  C   UNL     1      23.600   6.791  24.816  0.00  0.00    +0.000 A 
ENDROOT
BRANCH   4   9
ATOM      9  C   UNL     1      18.861   6.978  21.564  0.00  0.00    +0.000 A 
ATOM     10  C   UNL     1      16.413   7.016  20.103  0.00  0.00    +0.000 A 
ATOM     11  C   UNL     1      18.617   6.041  20.555  0.00  0.00    +0.000 A 
ATOM     12  C   UNL     1      17.894   7.959  21.771  0.00  0.00    +0.000 A 
ATOM     13  C   UNL     1      17.414   6.066  19.823  0.00  0.00    +0.000 A 
ATOM     14  C   UNL     1      16.685   7.939  21.109  0.00  0.00    +0.000 A 
BRANCH  10  15
ATOM     15  C   UNL     1      15.125   7.098  19.393  0.00  0.00    +0.000 A 
ATOM     16  C   UNL     1      13.905   6.844  20.030  0.00  0.00    +0.000 A 
ATOM     17  C   UNL     1      15.086   7.492  18.038  0.00  0.00    +0.000 A 
ATOM     18  C   UNL     1      12.698   6.993  19.342  0.00  0.00    +0.000 A 
ATOM     19  C   UNL     1      13.885   7.670  17.358  0.00  0.00    +0.000 A 
ATOM     20  C   UNL     1      12.689   7.415  18.012  0.00  0.00    +0.000 A 
ENDBRANCH  10  15
ENDBRANCH   4   9
BRANCH   5  22
ATOM     21  N   UNL     1      22.552   6.472  19.848  0.00  0.00    +0.000 NA
ATOM     22  C   UNL     1      21.987   7.309  20.670  0.00  0.00    +0.000 C 
BRANCH  21  23
ATOM     23  O   UNL     1      22.440   5.161  20.299  0.00  0.00    +0.000 OA
BRANCH  23  24
ATOM     24  C   UNL     1      23.703   4.513  20.218  0.00  0.00    +0.000 C 
BRANCH  24  27
ATOM     25 CL   UNL     1      25.611   0.067  22.124  0.00  0.00    +0.000 Cl
ATOM     26 CL   UNL     1      23.430   0.310  24.528  0.00  0.00    +0.000 Cl
ATOM     27  C   UNL     1      23.714   3.483  21.312  0.00  0.00    +0.000 A 
ATOM     28  C   UNL     1      24.585   2.389  21.271  0.00  0.00    +0.000 A 
ATOM     29  C   UNL     1      22.816   3.607  22.384  0.00  0.00    +0.000 A 
ATOM     30  C   UNL     1      24.526   1.406  22.263  0.00  0.00    +0.000 A 
ATOM     31  C   UNL     1      22.756   2.628  23.372  0.00  0.00    +0.000 A 
ATOM     32  C   UNL     1      23.600   1.517  23.307  0.00  0.00    +0.000 A 
ENDBRANCH  24  27
ENDBRANCH  23  24
ENDBRANCH  21  23
ENDBRANCH   5  22
TORSDOF 6
ENDMDL
MODEL 4
REMARK VINA RESULT:      -6.6     34.120     37.043
REMARK  Name = 154040924
REMARK  6 active torsions:
REMARK  status: ('A' for Active; 'I' for Inactive)
REMARK    1  A    between atoms: O_4  and  N_7
REMARK    2  A    between atoms: O_4  and  C_23
REMARK    3  A    between atoms: C_8  and  C_10
REMARK    4  A    between atoms: C_9  and  C_18
REMARK    5  A    between atoms: C_12  and  C_19
REMARK    6  A    between atoms: C_23  and  C_24
REMARK                            x       y       z     vdW  Elec       q    Type
REMARK                         _______ _______ _______ _____ _____    ______ ____
ROOT
ATOM      1  S   UNL     1      -2.261 -14.519   3.841  0.00  0.00    +0.000 S 
ATOM      2  N   UNL     1       0.147 -14.924   3.071  0.00  0.00    +0.000 N 
ATOM      3  N   UNL     1      -0.984 -14.043   1.380  0.00  0.00    +0.000 NA
ATOM      4  C   UNL     1       0.329 -14.274   1.007  0.00  0.00    +0.000 A 
ATOM      5  C   UNL     1       1.079 -14.839   2.066  0.00  0.00    +0.000 A 
ATOM      6  C   UNL     1      -1.031 -14.460   2.612  0.00  0.00    +0.000 A 
ATOM      7  C   UNL     1       0.141 -15.331   4.402  0.00  0.00    +0.000 A 
ATOM      8  C   UNL     1      -1.072 -15.213   4.949  0.00  0.00    +0.000 A 
ENDROOT
BRANCH   4   9
ATOM      9  C   UNL     1       0.818 -13.924  -0.327  0.00  0.00    +0.000 A 
ATOM     10  C   UNL     1       1.734 -13.437  -2.982  0.00  0.00    +0.000 A 
ATOM     11  C   UNL     1       2.184 -13.946  -0.626  0.00  0.00    +0.000 A 
ATOM     12  C   UNL     1      -0.056 -13.590  -1.359  0.00  0.00    +0.000 A 
ATOM     13  C   UNL     1       2.640 -13.692  -1.935  0.00  0.00    +0.000 A 
ATOM     14  C   UNL     1       0.381 -13.418  -2.655  0.00  0.00    +0.000 A 
BRANCH  10  15
ATOM     15  C   UNL     1       2.131 -13.178  -4.377  0.00  0.00    +0.000 A 
ATOM     16  C   UNL     1       3.098 -13.947  -5.033  0.00  0.00    +0.000 A 
ATOM     17  C   UNL     1       1.495 -12.157  -5.117  0.00  0.00    +0.000 A 
ATOM     18  C   UNL     1       3.404 -13.712  -6.376  0.00  0.00    +0.000 A 
ATOM     19  C   UNL     1       1.775 -11.940  -6.463  0.00  0.00    +0.000 A 
ATOM     20  C   UNL     1       2.735 -12.718  -7.091  0.00  0.00    +0.000 A 
ENDBRANCH  10  15
ENDBRANCH   4   9
BRANCH   5  22
ATOM     21  N   UNL     1       3.035 -16.328   1.999  0.00  0.00    +0.000 NA
ATOM     22  C   UNL     1       2.467 -15.174   2.202  0.00  0.00    +0.000 C 
BRANCH  21  23
ATOM     23  O   UNL     1       2.134 -17.258   1.490  0.00  0.00    +0.000 OA
BRANCH  23  24
ATOM     24  C   UNL     1       2.779 -18.074   0.522  0.00  0.00    +0.000 C 
BRANCH  24  27
ATOM     25 CL   UNL     1      -1.328 -16.949  -2.463  0.00  0.00    +0.000 Cl
ATOM     26 CL   UNL     1       0.735 -16.630  -4.960  0.00  0.00    +0.000 Cl
ATOM     27  C   UNL     1       2.239 -17.644  -0.812  0.00  0.00    +0.000 A 
ATOM     28  C   UNL     1       0.867 -17.457  -1.015  0.00  0.00    +0.000 A 
ATOM     29  C   UNL     1       3.124 -17.449  -1.883  0.00  0.00    +0.000 A 
ATOM     30  C   UNL     1       0.382 -17.127  -2.284  0.00  0.00    +0.000 A 
ATOM     31  C   UNL     1       2.643 -17.121  -3.148  0.00  0.00    +0.000 A 
ATOM     32  C   UNL     1       1.269 -16.975  -3.356  0.00  0.00    +0.000 A 
ENDBRANCH  24  27
ENDBRANCH  23  24
ENDBRANCH  21  23
ENDBRANCH   5  22
TORSDOF 6
ENDMDL
MODEL 5
REMARK VINA RESULT:      -6.6     19.694     22.057
REMARK  Name = 154040924
REMARK  6 active torsions:
REMARK  status: ('A' for Active; 'I' for Inactive)
REMARK    1  A    between atoms: O_4  and  N_7
REMARK    2  A    between atoms: O_4  and  C_23
REMARK    3  A    between atoms: C_8  and  C_10
REMARK    4  A    between atoms: C_9  and  C_18
REMARK    5  A    between atoms: C_12  and  C_19
REMARK    6  A    between atoms: C_23  and  C_24
REMARK                            x       y       z     vdW  Elec       q    Type
REMARK                         _______ _______ _______ _____ _____    ______ ____
ROOT
ATOM      1  S   UNL     1      -8.654 -11.940  41.062  0.00  0.00    +0.000 S 
ATOM      2  N   UNL     1      -8.210 -11.626  38.560  0.00  0.00    +0.000 N 
ATOM      3  N   UNL     1     -10.305 -12.306  38.814  0.00  0.00    +0.000 NA
ATOM      4  C   UNL     1     -10.024 -12.119  37.471  0.00  0.00    +0.000 A 
ATOM      5  C   UNL     1      -8.691 -11.685  37.274  0.00  0.00    +0.000 A 
ATOM      6  C   UNL     1      -9.186 -12.009  39.407  0.00  0.00    +0.000 A 
ATOM      7  C   UNL     1      -7.016 -11.253  39.167  0.00  0.00    +0.000 A 
ATOM      8  C   UNL     1      -7.072 -11.394  40.495  0.00  0.00    +0.000 A 
ENDROOT
BRANCH   4   9
ATOM      9  C   UNL     1     -11.039 -12.334  36.440  0.00  0.00    +0.000 A 
ATOM     10  C   UNL     1     -12.885 -12.670  34.293  0.00  0.00    +0.000 A 
ATOM     11  C   UNL     1     -12.059 -11.402  36.223  0.00  0.00    +0.000 A 
ATOM     12  C   UNL     1     -11.010 -13.453  35.610  0.00  0.00    +0.000 A 
ATOM     13  C   UNL     1     -12.982 -11.573  35.171  0.00  0.00    +0.000 A 
ATOM     14  C   UNL     1     -11.862 -13.583  34.535  0.00  0.00    +0.000 A 
BRANCH  10  15
ATOM     15  C   UNL     1     -13.800 -12.911  33.164  0.00  0.00    +0.000 A 
ATOM     16  C   UNL     1     -13.534 -13.869  32.180  0.00  0.00    +0.000 A 
ATOM     17  C   UNL     1     -15.017 -12.201  33.073  0.00  0.00    +0.000 A 
ATOM     18  C   UNL     1     -14.454 -14.115  31.158  0.00  0.00    +0.000 A 
ATOM     19  C   UNL     1     -15.949 -12.464  32.074  0.00  0.00    +0.000 A 
ATOM     20  C   UNL     1     -15.663 -13.421  31.113  0.00  0.00    +0.000 A 
ENDBRANCH  10  15
ENDBRANCH   4   9
BRANCH   5  22
ATOM     21  N   UNL     1      -7.294 -12.037  35.282  0.00  0.00    +0.000 NA
ATOM     22  C   UNL     1      -7.963 -11.283  36.106  0.00  0.00    +0.000 C 
BRANCH  21  23
ATOM     23  O   UNL     1      -7.447 -13.386  35.585  0.00  0.00    +0.000 OA
BRANCH  23  24
ATOM     24  C   UNL     1      -6.866 -14.180  34.559  0.00  0.00    +0.000 C 
BRANCH  24  27
ATOM     25 CL   UNL     1     -10.190 -14.765  30.605  0.00  0.00    +0.000 Cl
ATOM     26 CL   UNL     1     -11.596 -17.157  32.306  0.00  0.00    +0.000 Cl
ATOM     27  C   UNL     1      -7.997 -14.945  33.934  0.00  0.00    +0.000 A 
ATOM     28  C   UNL     1      -8.502 -14.597  32.676  0.00  0.00    +0.000 A 
ATOM     29  C   UNL     1      -8.576 -16.015  34.634  0.00  0.00    +0.000 A 
ATOM     30  C   UNL     1      -9.602 -15.278  32.147  0.00  0.00    +0.000 A 
ATOM     31  C   UNL     1      -9.672 -16.693  34.108  0.00  0.00    +0.000 A 
ATOM     32  C   UNL     1     -10.199 -16.317  32.871  0.00  0.00    +0.000 A 
ENDBRANCH  24  27
ENDBRANCH  23  24
ENDBRANCH  21  23
ENDBRANCH   5  22
TORSDOF 6
ENDMDL
MODEL 6
REMARK VINA RESULT:      -6.6     27.719     30.839
REMARK  Name = 154040924
REMARK  6 active torsions:
REMARK  status: ('A' for Active; 'I' for Inactive)
REMARK    1  A    between atoms: O_4  and  N_7
REMARK    2  A    between atoms: O_4  and  C_23
REMARK    3  A    between atoms: C_8  and  C_10
REMARK    4  A    between atoms: C_9  and  C_18
REMARK    5  A    between atoms: C_12  and  C_19
REMARK    6  A    between atoms: C_23  and  C_24
REMARK                            x       y       z     vdW  Elec       q    Type
REMARK                         _______ _______ _______ _____ _____    ______ ____
ROOT
ATOM      1  S   UNL     1       9.814  16.190  21.311  0.00  0.00    +0.000 S 
ATOM      2  N   UNL     1      10.290  14.045  22.624  0.00  0.00    +0.000 N 
ATOM      3  N   UNL     1      11.975  14.391  21.225  0.00  0.00    +0.000 NA
ATOM      4  C   UNL     1      12.195  13.238  21.961  0.00  0.00    +0.000 A 
ATOM      5  C   UNL     1      11.134  12.988  22.864  0.00  0.00    +0.000 A 
ATOM      6  C   UNL     1      10.823  14.816  21.657  0.00  0.00    +0.000 A 
ATOM      7  C   UNL     1       9.082  14.501  23.142  0.00  0.00    +0.000 A 
ATOM      8  C   UNL     1       8.671  15.615  22.529  0.00  0.00    +0.000 A 
ENDROOT
BRANCH   4   9
ATOM      9  C   UNL     1      13.412  12.444  21.792  0.00  0.00    +0.000 A 
ATOM     10  C   UNL     1      15.888  11.074  21.446  0.00  0.00    +0.000 A 
ATOM     11  C   UNL     1      13.781  11.943  20.540  0.00  0.00    +0.000 A 
ATOM     12  C   UNL     1      14.268  12.186  22.861  0.00  0.00    +0.000 A 
ATOM     13  C   UNL     1      14.998  11.253  20.369  0.00  0.00    +0.000 A 
ATOM     14  C   UNL     1      15.493  11.580  22.681  0.00  0.00    +0.000 A 
BRANCH  10  15
ATOM     15  C   UNL     1      17.182  10.378  21.345  0.00  0.00    +0.000 A 
ATOM     16  C   UNL     1      18.364  11.047  21.006  0.00  0.00    +0.000 A 
ATOM     17  C   UNL     1      17.273   9.001  21.644  0.00  0.00    +0.000 A 
ATOM     18  C   UNL     1      19.585  10.367  20.981  0.00  0.00    +0.000 A 
ATOM     19  C   UNL     1      18.490   8.328  21.649  0.00  0.00    +0.000 A 
ATOM     20  C   UNL     1      19.648   9.014  21.313  0.00  0.00    +0.000 A 
ENDBRANCH  10  15
ENDBRANCH   4   9
BRANCH   5  22
ATOM     21  N   UNL     1      10.694  10.724  23.717  0.00  0.00    +0.000 NA
ATOM     22  C   UNL     1      10.937  11.993  23.878  0.00  0.00    +0.000 C 
BRANCH  21  23
ATOM     23  O   UNL     1      10.758  10.359  22.376  0.00  0.00    +0.000 OA
BRANCH  23  24
ATOM     24  C   UNL     1      10.675   8.945  22.256  0.00  0.00    +0.000 C 
BRANCH  24  27
ATOM     25 CL   UNL     1      12.484   7.902  17.495  0.00  0.00    +0.000 Cl
ATOM     26 CL   UNL     1      15.280   6.995  18.893  0.00  0.00    +0.000 Cl
ATOM     27  C   UNL     1      11.823   8.533  21.379  0.00  0.00    +0.000 A 
ATOM     28  C   UNL     1      11.684   8.457  19.989  0.00  0.00    +0.000 A 
ATOM     29  C   UNL     1      13.051   8.193  21.966  0.00  0.00    +0.000 A 
ATOM     30  C   UNL     1      12.745   8.001  19.200  0.00  0.00    +0.000 A 
ATOM     31  C   UNL     1      14.108   7.737  21.182  0.00  0.00    +0.000 A 
ATOM     32  C   UNL     1      13.953   7.625  19.799  0.00  0.00    +0.000 A 
ENDBRANCH  24  27
ENDBRANCH  23  24
ENDBRANCH  21  23
ENDBRANCH   5  22
TORSDOF 6
ENDMDL
MODEL 7
REMARK VINA RESULT:      -6.6     20.973     24.946
REMARK  Name = 154040924
REMARK  6 active torsions:
REMARK  status: ('A' for Active; 'I' for Inactive)
REMARK    1  A    between atoms: O_4  and  N_7
REMARK    2  A    between atoms: O_4  and  C_23
REMARK    3  A    between atoms: C_8  and  C_10
REMARK    4  A    between atoms: C_9  and  C_18
REMARK    5  A    between atoms: C_12  and  C_19
REMARK    6  A    between atoms: C_23  and  C_24
REMARK                            x       y       z     vdW  Elec       q    Type
REMARK                         _______ _______ _______ _____ _____    ______ ____
ROOT
ATOM      1  S   UNL     1      10.051  17.773  17.778  0.00  0.00    +0.000 S 
ATOM      2  N   UNL     1       8.849  16.415  19.585  0.00  0.00    +0.000 N 
ATOM      3  N   UNL     1       7.316  17.375  18.302  0.00  0.00    +0.000 NA
ATOM      4  C   UNL     1       6.706  16.623  19.294  0.00  0.00    +0.000 A 
ATOM      5  C   UNL     1       7.660  15.997  20.132  0.00  0.00    +0.000 A 
ATOM      6  C   UNL     1       8.587  17.219  18.536  0.00  0.00    +0.000 A 
ATOM      7  C   UNL     1      10.200  16.188  19.830  0.00  0.00    +0.000 A 
ATOM      8  C   UNL     1      10.976  16.865  18.979  0.00  0.00    +0.000 A 
ENDROOT
BRANCH   4   9
ATOM      9  C   UNL     1       5.251  16.513  19.383  0.00  0.00    +0.000 A 
ATOM     10  C   UNL     1       2.438  16.228  19.751  0.00  0.00    +0.000 A 
ATOM     11  C   UNL     1       4.581  15.377  18.917  0.00  0.00    +0.000 A 
ATOM     12  C   UNL     1       4.478  17.514  19.967  0.00  0.00    +0.000 A 
ATOM     13  C   UNL     1       3.188  15.240  19.085  0.00  0.00    +0.000 A 
ATOM     14  C   UNL     1       3.130  17.349  20.202  0.00  0.00    +0.000 A 
BRANCH  10  15
ATOM     15  C   UNL     1       0.985  16.152  19.979  0.00  0.00    +0.000 A 
ATOM     16  C   UNL     1       0.343  14.953  20.309  0.00  0.00    +0.000 A 
ATOM     17  C   UNL     1       0.195  17.321  19.919  0.00  0.00    +0.000 A 
ATOM     18  C   UNL     1      -1.028  14.930  20.580  0.00  0.00    +0.000 A 
ATOM     19  C   UNL     1      -1.164  17.307  20.217  0.00  0.00    +0.000 A 
ATOM     20  C   UNL     1      -1.776  16.107  20.545  0.00  0.00    +0.000 A 
ENDBRANCH  10  15
ENDBRANCH   4   9
BRANCH   5  22
ATOM     21  N   UNL     1       7.087  15.304  22.420  0.00  0.00    +0.000 NA
ATOM     22  C   UNL     1       7.537  15.073  21.221  0.00  0.00    +0.000 C 
BRANCH  21  23
ATOM     23  O   UNL     1       6.590  16.599  22.537  0.00  0.00    +0.000 OA
BRANCH  23  24
ATOM     24  C   UNL     1       6.176  16.837  23.876  0.00  0.00    +0.000 C 
BRANCH  24  27
ATOM     25 CL   UNL     1       1.759  14.178  23.205  0.00  0.00    +0.000 Cl
ATOM     26 CL   UNL     1       0.161  16.994  23.537  0.00  0.00    +0.000 Cl
ATOM     27  C   UNL     1       4.674  16.824  23.857  0.00  0.00    +0.000 A 
ATOM     28  C   UNL     1       3.961  15.643  23.621  0.00  0.00    +0.000 A 
ATOM     29  C   UNL     1       3.972  18.023  24.054  0.00  0.00    +0.000 A 
ATOM     30  C   UNL     1       2.566  15.670  23.535  0.00  0.00    +0.000 A 
ATOM     31  C   UNL     1       2.582  18.051  23.968  0.00  0.00    +0.000 A 
ATOM     32  C   UNL     1       1.876  16.878  23.692  0.00  0.00    +0.000 A 
ENDBRANCH  24  27
ENDBRANCH  23  24
ENDBRANCH  21  23
ENDBRANCH   5  22
TORSDOF 6
ENDMDL
MODEL 8
REMARK VINA RESULT:      -6.5     20.274     21.867
REMARK  Name = 154040924
REMARK  6 active torsions:
REMARK  status: ('A' for Active; 'I' for Inactive)
REMARK    1  A    between atoms: O_4  and  N_7
REMARK    2  A    between atoms: O_4  and  C_23
REMARK    3  A    between atoms: C_8  and  C_10
REMARK    4  A    between atoms: C_9  and  C_18
REMARK    5  A    between atoms: C_12  and  C_19
REMARK    6  A    between atoms: C_23  and  C_24
REMARK                            x       y       z     vdW  Elec       q    Type
REMARK                         _______ _______ _______ _____ _____    ______ ____
ROOT
ATOM      1  S   UNL     1     -10.533 -13.665  18.232  0.00  0.00    +0.000 S 
ATOM      2  N   UNL     1      -8.671 -11.916  18.065  0.00  0.00    +0.000 N 
ATOM      3  N   UNL     1      -9.171 -12.597  16.015  0.00  0.00    +0.000 NA
ATOM      4  C   UNL     1      -8.167 -11.643  15.970  0.00  0.00    +0.000 A 
ATOM      5  C   UNL     1      -7.824 -11.189  17.266  0.00  0.00    +0.000 A 
ATOM      6  C   UNL     1      -9.418 -12.723  17.287  0.00  0.00    +0.000 A 
ATOM      7  C   UNL     1      -8.947 -11.991  19.427  0.00  0.00    +0.000 A 
ATOM      8  C   UNL     1      -9.891 -12.900  19.690  0.00  0.00    +0.000 A 
ENDROOT
BRANCH   4   9
ATOM      9  C   UNL     1      -7.601 -11.189  14.700  0.00  0.00    +0.000 A 
ATOM     10  C   UNL     1      -6.345 -10.441  12.252  0.00  0.00    +0.000 A 
ATOM     11  C   UNL     1      -6.760 -10.073  14.641  0.00  0.00    +0.000 A 
ATOM     12  C   UNL     1      -7.846 -11.867  13.508  0.00  0.00    +0.000 A 
ATOM     13  C   UNL     1      -6.149  -9.693  13.429  0.00  0.00    +0.000 A 
ATOM     14  C   UNL     1      -7.189 -11.545  12.340  0.00  0.00    +0.000 A 
BRANCH  10  15
ATOM     15  C   UNL     1      -5.732 -10.118  10.953  0.00  0.00    +0.000 A 
ATOM     16  C   UNL     1      -4.736  -9.144  10.819  0.00  0.00    +0.000 A 
ATOM     17  C   UNL     1      -6.105 -10.834   9.794  0.00  0.00    +0.000 A 
ATOM     18  C   UNL     1      -4.132  -8.908   9.581  0.00  0.00    +0.000 A 
ATOM     19  C   UNL     1      -5.486 -10.623   8.566  0.00  0.00    +0.000 A 
ATOM     20  C   UNL     1      -4.499  -9.654   8.461  0.00  0.00    +0.000 A 
ENDBRANCH  10  15
ENDBRANCH   4   9
BRANCH   5  22
ATOM     21  N   UNL     1      -5.632 -10.245  17.861  0.00  0.00    +0.000 NA
ATOM     22  C   UNL     1      -6.926 -10.172  17.731  0.00  0.00    +0.000 C 
BRANCH  21  23
ATOM     23  O   UNL     1      -5.137 -11.447  17.365  0.00  0.00    +0.000 OA
BRANCH  23  24
ATOM     24  C   UNL     1      -3.754 -11.312  17.065  0.00  0.00    +0.000 C 
BRANCH  24  27
ATOM     25 CL   UNL     1      -1.782 -10.309  12.360  0.00  0.00    +0.000 Cl
ATOM     26 CL   UNL     1      -3.464 -12.865  11.249  0.00  0.00    +0.000 Cl
ATOM     27  C   UNL     1      -3.600 -11.710  15.625  0.00  0.00    +0.000 A 
ATOM     28  C   UNL     1      -2.814 -10.958  14.744  0.00  0.00    +0.000 A 
ATOM     29  C   UNL     1      -4.276 -12.842  15.146  0.00  0.00    +0.000 A 
ATOM     30  C   UNL     1      -2.744 -11.307  13.392  0.00  0.00    +0.000 A 
ATOM     31  C   UNL     1      -4.208 -13.190  13.800  0.00  0.00    +0.000 A 
ATOM     32  C   UNL     1      -3.455 -12.415  12.915  0.00  0.00    +0.000 A 
ENDBRANCH  24  27
ENDBRANCH  23  24
ENDBRANCH  21  23
ENDBRANCH   5  22
TORSDOF 6
ENDMDL
MODEL 9
REMARK VINA RESULT:      -6.4     21.524     25.036
REMARK  Name = 154040924
REMARK  6 active torsions:
REMARK  status: ('A' for Active; 'I' for Inactive)
REMARK    1  A    between atoms: O_4  and  N_7
REMARK    2  A    between atoms: O_4  and  C_23
REMARK    3  A    between atoms: C_8  and  C_10
REMARK    4  A    between atoms: C_9  and  C_18
REMARK    5  A    between atoms: C_12  and  C_19
REMARK    6  A    between atoms: C_23  and  C_24
REMARK                            x       y       z     vdW  Elec       q    Type
REMARK                         _______ _______ _______ _____ _____    ______ ____
ROOT
ATOM      1  S   UNL     1      -0.720  20.002  22.726  0.00  0.00    +0.000 S 
ATOM      2  N   UNL     1       0.227  17.749  21.966  0.00  0.00    +0.000 N 
ATOM      3  N   UNL     1       1.892  18.959  22.790  0.00  0.00    +0.000 NA
ATOM      4  C   UNL     1       2.361  17.726  22.370  0.00  0.00    +0.000 A 
ATOM      5  C   UNL     1       1.320  16.928  21.836  0.00  0.00    +0.000 A 
ATOM      6  C   UNL     1       0.621  18.915  22.512  0.00  0.00    +0.000 A 
ATOM      7  C   UNL     1      -1.136  17.651  21.704  0.00  0.00    +0.000 A 
ATOM      8  C   UNL     1      -1.781  18.779  22.019  0.00  0.00    +0.000 A 
ENDROOT
BRANCH   4   9
ATOM      9  C   UNL     1       3.767  17.351  22.518  0.00  0.00    +0.000 A 
ATOM     10  C   UNL     1       6.478  16.621  23.012  0.00  0.00    +0.000 A 
ATOM     11  C   UNL     1       4.776  18.320  22.534  0.00  0.00    +0.000 A 
ATOM     12  C   UNL     1       4.155  16.024  22.685  0.00  0.00    +0.000 A 
ATOM     13  C   UNL     1       6.119  17.959  22.765  0.00  0.00    +0.000 A 
ATOM     14  C   UNL     1       5.454  15.678  22.987  0.00  0.00    +0.000 A 
BRANCH  10  15
ATOM     15  C   UNL     1       7.855  16.167  23.275  0.00  0.00    +0.000 A 
ATOM     16  C   UNL     1       8.329  14.928  22.831  0.00  0.00    +0.000 A 
ATOM     17  C   UNL     1       8.762  17.010  23.952  0.00  0.00    +0.000 A 
ATOM     18  C   UNL     1       9.660  14.557  23.044  0.00  0.00    +0.000 A 
ATOM     19  C   UNL     1      10.095  16.657  24.140  0.00  0.00    +0.000 A 
ATOM     20  C   UNL     1      10.542  15.425  23.688  0.00  0.00    +0.000 A 
ENDBRANCH  10  15
ENDBRANCH   4   9
BRANCH   5  22
ATOM     21  N   UNL     1       1.646  15.129  20.191  0.00  0.00    +0.000 NA
ATOM     22  C   UNL     1       1.281  15.576  21.358  0.00  0.00    +0.000 C 
BRANCH  21  23
ATOM     23  O   UNL     1       2.229  16.130  19.421  0.00  0.00    +0.000 OA
BRANCH  23  24
ATOM     24  C   UNL     1       3.094  15.551  18.453  0.00  0.00    +0.000 C 
BRANCH  24  27
ATOM     25 CL   UNL     1       6.667  19.268  19.131  0.00  0.00    +0.000 Cl
ATOM     26 CL   UNL     1       8.804  16.911  19.818  0.00  0.00    +0.000 Cl
ATOM     27  C   UNL     1       4.489  15.935  18.858  0.00  0.00    +0.000 A 
ATOM     28  C   UNL     1       4.901  17.272  18.866  0.00  0.00    +0.000 A 
ATOM     29  C   UNL     1       5.404  14.932  19.210  0.00  0.00    +0.000 A 
ATOM     30  C   UNL     1       6.225  17.597  19.176  0.00  0.00    +0.000 A 
ATOM     31  C   UNL     1       6.723  15.254  19.519  0.00  0.00    +0.000 A 
ATOM     32  C   UNL     1       7.142  16.586  19.487  0.00  0.00    +0.000 A 
ENDBRANCH  24  27
ENDBRANCH  23  24
ENDBRANCH  21  23
ENDBRANCH   5  22
TORSDOF 6
ENDMDL
MODEL 10
REMARK VINA RESULT:      -6.2     20.366     21.931
REMARK  Name = 154040924
REMARK  6 active torsions:
REMARK  status: ('A' for Active; 'I' for Inactive)
REMARK    1  A    between atoms: O_4  and  N_7
REMARK    2  A    between atoms: O_4  and  C_23
REMARK    3  A    between atoms: C_8  and  C_10
REMARK    4  A    between atoms: C_9  and  C_18
REMARK    5  A    between atoms: C_12  and  C_19
REMARK    6  A    between atoms: C_23  and  C_24
REMARK                            x       y       z     vdW  Elec       q    Type
REMARK                         _______ _______ _______ _____ _____    ______ ____
ROOT
ATOM      1  S   UNL     1      -8.452 -17.876  17.945  0.00  0.00    +0.000 S 
ATOM      2  N   UNL     1      -9.082 -15.489  17.266  0.00  0.00    +0.000 N 
ATOM      3  N   UNL     1      -7.030 -15.901  16.535  0.00  0.00    +0.000 NA
ATOM      4  C   UNL     1      -7.413 -14.617  16.184  0.00  0.00    +0.000 A 
ATOM      5  C   UNL     1      -8.721 -14.322  16.638  0.00  0.00    +0.000 A 
ATOM      6  C   UNL     1      -8.059 -16.362  17.185  0.00  0.00    +0.000 A 
ATOM      7  C   UNL     1     -10.217 -15.971  17.911  0.00  0.00    +0.000 A 
ATOM      8  C   UNL     1     -10.037 -17.215  18.364  0.00  0.00    +0.000 A 
ENDROOT
BRANCH   4   9
ATOM      9  C   UNL     1      -6.533 -13.741  15.411  0.00  0.00    +0.000 A 
ATOM     10  C   UNL     1      -4.830 -12.168  13.751  0.00  0.00    +0.000 A 
ATOM     11  C   UNL     1      -5.142 -13.819  15.537  0.00  0.00    +0.000 A 
ATOM     12  C   UNL     1      -7.039 -12.820  14.497  0.00  0.00    +0.000 A 
ATOM     13  C   UNL     1      -4.299 -13.032  14.727  0.00  0.00    +0.000 A 
ATOM     14  C   UNL     1      -6.218 -12.108  13.650  0.00  0.00    +0.000 A 
BRANCH  10  15
ATOM     15  C   UNL     1      -4.017 -11.326  12.857  0.00  0.00    +0.000 A 
ATOM     16  C   UNL     1      -2.619 -11.299  12.925  0.00  0.00    +0.000 A 
ATOM     17  C   UNL     1      -4.638 -10.548  11.856  0.00  0.00    +0.000 A 
ATOM     18  C   UNL     1      -1.877 -10.536  12.020  0.00  0.00    +0.000 A 
ATOM     19  C   UNL     1      -3.901  -9.811  10.934  0.00  0.00    +0.000 A 
ATOM     20  C   UNL     1      -2.517  -9.803  11.021  0.00  0.00    +0.000 A 
ENDBRANCH  10  15
ENDBRANCH   4   9
BRANCH   5  22
ATOM     21  N   UNL     1      -9.772 -12.193  17.276  0.00  0.00    +0.000 NA
ATOM     22  C   UNL     1      -9.578 -13.187  16.458  0.00  0.00    +0.000 C 
BRANCH  21  23
ATOM     23  O   UNL     1      -8.927 -12.269  18.379  0.00  0.00    +0.000 OA
BRANCH  23  24
ATOM     24  C   UNL     1      -8.455 -10.970  18.715  0.00  0.00    +0.000 C 
BRANCH  24  27
ATOM     25 CL   UNL     1      -3.401 -12.101  19.176  0.00  0.00    +0.000 Cl
ATOM     26 CL   UNL     1      -2.880 -10.267  16.539  0.00  0.00    +0.000 Cl
ATOM     27  C   UNL     1      -7.062 -10.878  18.162  0.00  0.00    +0.000 A 
ATOM     28  C   UNL     1      -5.983 -11.497  18.803  0.00  0.00    +0.000 A 
ATOM     29  C   UNL     1      -6.832 -10.136  16.993  0.00  0.00    +0.000 A 
ATOM     30  C   UNL     1      -4.685 -11.335  18.309  0.00  0.00    +0.000 A 
ATOM     31  C   UNL     1      -5.540  -9.973  16.501  0.00  0.00    +0.000 A 
ATOM     32  C   UNL     1      -4.461 -10.559  17.166  0.00  0.00    +0.000 A 
ENDBRANCH  24  27
ENDBRANCH  23  24
ENDBRANCH  21  23
ENDBRANCH   5  22
TORSDOF 6
ENDMDL
