MODEL 1
REMARK VINA RESULT:      -5.9      0.000      0.000
REMARK  Name = 154040924
REMARK  6 active torsions:
REMARK  status: ('A' for Active; 'I' for Inactive)
REMARK    1  A    between atoms: O_4  and  N_7
REMARK    2  A    between atoms: O_4  and  C_23
REMARK    3  A    between atoms: C_8  and  C_10
REMARK    4  A    between atoms: C_9  and  C_18
REMARK    5  A    between atoms: C_12  and  C_19
REMARK    6  A    between atoms: C_23  and  C_24
REMARK                            x       y       z     vdW  Elec       q    Type
REMARK                         _______ _______ _______ _____ _____    ______ ____
ROOT
ATOM      1  S   UNL     1     -14.735  11.334 -31.101  0.00  0.00    +0.000 S 
ATOM      2  N   UNL     1     -14.942   9.461 -32.834  0.00  0.00    +0.000 N 
ATOM      3  N   UNL     1     -12.790   9.912 -32.552  0.00  0.00    +0.000 NA
ATOM      4  C   UNL     1     -12.947   8.897 -33.482  0.00  0.00    +0.000 A 
ATOM      5  C   UNL     1     -14.313   8.586 -33.686  0.00  0.00    +0.000 A 
ATOM      6  C   UNL     1     -14.010  10.211 -32.214  0.00  0.00    +0.000 A 
ATOM      7  C   UNL     1     -16.255   9.723 -32.456  0.00  0.00    +0.000 A 
ATOM      8  C   UNL     1     -16.324  10.716 -31.565  0.00  0.00    +0.000 A 
ENDROOT
BRANCH   4   9
ATOM      9  C   UNL     1     -11.795   8.253 -34.112  0.00  0.00    +0.000 A 
ATOM     10  C   UNL     1      -9.438   7.162 -35.289  0.00  0.00    +0.000 A 
ATOM     11  C   UNL     1     -11.566   8.366 -35.487  0.00  0.00    +0.000 A 
ATOM     12  C   UNL     1     -10.864   7.534 -33.367  0.00  0.00    +0.000 A 
ATOM     13  C   UNL     1     -10.408   7.815 -36.073  0.00  0.00    +0.000 A 
ATOM     14  C   UNL     1      -9.694   7.062 -33.924  0.00  0.00    +0.000 A 
BRANCH  10  15
ATOM     15  C   UNL     1      -8.198   6.575 -35.823  0.00  0.00    +0.000 A 
ATOM     16  C   UNL     1      -7.595   7.044 -36.995  0.00  0.00    +0.000 A 
ATOM     17  C   UNL     1      -7.546   5.536 -35.123  0.00  0.00    +0.000 A 
ATOM     18  C   UNL     1      -6.384   6.505 -37.439  0.00  0.00    +0.000 A 
ATOM     19  C   UNL     1      -6.326   5.017 -35.545  0.00  0.00    +0.000 A 
ATOM     20  C   UNL     1      -5.747   5.501 -36.709  0.00  0.00    +0.000 A 
ENDBRANCH  10  15
ENDBRANCH   4   9
BRANCH   5  22
ATOM     21  N   UNL     1     -14.844   6.287 -34.377  0.00  0.00    +0.000 NA
ATOM     22  C   UNL     1     -14.973   7.580 -34.464  0.00  0.00    +0.000 C 
BRANCH  21  23
ATOM     23  O   UNL     1     -14.032   5.928 -33.305  0.00  0.00    +0.000 OA
BRANCH  23  24
ATOM     24  C   UNL     1     -13.974   4.511 -33.198  0.00  0.00    +0.000 C 
BRANCH  24  27
ATOM     25 CL   UNL     1     -10.866   4.419 -37.365  0.00  0.00    +0.000 Cl
ATOM     26 CL   UNL     1      -8.833   2.542 -35.650  0.00  0.00    +0.000 Cl
ATOM     27  C   UNL     1     -12.670   4.100 -33.820  0.00  0.00    +0.000 A 
ATOM     28  C   UNL     1     -12.355   4.442 -35.140  0.00  0.00    +0.000 A 
ATOM     29  C   UNL     1     -11.760   3.337 -33.072  0.00  0.00    +0.000 A 
ATOM     30  C   UNL     1     -11.167   3.985 -35.720  0.00  0.00    +0.000 A 
ATOM     31  C   UNL     1     -10.577   2.881 -33.648  0.00  0.00    +0.000 A 
ATOM     32  C   UNL     1     -10.285   3.191 -34.978  0.00  0.00    +0.000 A 
ENDBRANCH  24  27
ENDBRANCH  23  24
ENDBRANCH  21  23
ENDBRANCH   5  22
TORSDOF 6
ENDMDL
MODEL 2
REMARK VINA RESULT:      -5.9     19.746     22.596
REMARK  Name = 154040924
REMARK  6 active torsions:
REMARK  status: ('A' for Active; 'I' for Inactive)
REMARK    1  A    between atoms: O_4  and  N_7
REMARK    2  A    between atoms: O_4  and  C_23
REMARK    3  A    between atoms: C_8  and  C_10
REMARK    4  A    between atoms: C_9  and  C_18
REMARK    5  A    between atoms: C_12  and  C_19
REMARK    6  A    between atoms: C_23  and  C_24
REMARK                            x       y       z     vdW  Elec       q    Type
REMARK                         _______ _______ _______ _____ _____    ______ ____
ROOT
ATOM      1  S   UNL     1      -4.439  -4.938 -56.561  0.00  0.00    +0.000 S 
ATOM      2  N   UNL     1      -6.131  -3.320 -55.524  0.00  0.00    +0.000 N 
ATOM      3  N   UNL     1      -4.392  -2.144 -56.237  0.00  0.00    +0.000 NA
ATOM      4  C   UNL     1      -5.337  -1.304 -55.671  0.00  0.00    +0.000 A 
ATOM      5  C   UNL     1      -6.461  -2.026 -55.204  0.00  0.00    +0.000 A 
ATOM      6  C   UNL     1      -4.917  -3.328 -56.109  0.00  0.00    +0.000 A 
ATOM      7  C   UNL     1      -6.741  -4.566 -55.419  0.00  0.00    +0.000 A 
ATOM      8  C   UNL     1      -5.960  -5.541 -55.893  0.00  0.00    +0.000 A 
ENDROOT
BRANCH   4   9
ATOM      9  C   UNL     1      -5.142   0.145 -55.624  0.00  0.00    +0.000 A 
ATOM     10  C   UNL     1      -4.568   2.933 -55.466  0.00  0.00    +0.000 A 
ATOM     11  C   UNL     1      -5.535   0.892 -54.509  0.00  0.00    +0.000 A 
ATOM     12  C   UNL     1      -4.526   0.832 -56.668  0.00  0.00    +0.000 A 
ATOM     13  C   UNL     1      -5.265   2.274 -54.435  0.00  0.00    +0.000 A 
ATOM     14  C   UNL     1      -4.192   2.165 -56.564  0.00  0.00    +0.000 A 
BRANCH  10  15
ATOM     15  C   UNL     1      -4.236   4.368 -55.456  0.00  0.00    +0.000 A 
ATOM     16  C   UNL     1      -4.554   5.200 -54.377  0.00  0.00    +0.000 A 
ATOM     17  C   UNL     1      -3.527   4.940 -56.535  0.00  0.00    +0.000 A 
ATOM     18  C   UNL     1      -4.167   6.543 -54.374  0.00  0.00    +0.000 A 
ATOM     19  C   UNL     1      -3.115   6.269 -56.523  0.00  0.00    +0.000 A 
ATOM     20  C   UNL     1      -3.440   7.071 -55.441  0.00  0.00    +0.000 A 
ENDBRANCH  10  15
ENDBRANCH   4   9
BRANCH   5  22
ATOM     21  N   UNL     1      -8.041  -1.578 -53.374  0.00  0.00    +0.000 NA
ATOM     22  C   UNL     1      -7.710  -1.615 -54.633  0.00  0.00    +0.000 C 
BRANCH  21  23
ATOM     23  O   UNL     1      -6.960  -1.888 -52.554  0.00  0.00    +0.000 OA
BRANCH  23  24
ATOM     24  C   UNL     1      -7.004  -1.092 -51.377  0.00  0.00    +0.000 C 
BRANCH  24  27
ATOM     25 CL   UNL     1      -4.057   3.166 -50.908  0.00  0.00    +0.000 Cl
ATOM     26 CL   UNL     1      -1.449   1.228 -51.107  0.00  0.00    +0.000 Cl
ATOM     27  C   UNL     1      -5.638  -0.484 -51.234  0.00  0.00    +0.000 A 
ATOM     28  C   UNL     1      -5.469   0.899 -51.098  0.00  0.00    +0.000 A 
ATOM     29  C   UNL     1      -4.507  -1.315 -51.262  0.00  0.00    +0.000 A 
ATOM     30  C   UNL     1      -4.184   1.447 -51.040  0.00  0.00    +0.000 A 
ATOM     31  C   UNL     1      -3.227  -0.770 -51.205  0.00  0.00    +0.000 A 
ATOM     32  C   UNL     1      -3.061   0.614 -51.110  0.00  0.00    +0.000 A 
ENDBRANCH  24  27
ENDBRANCH  23  24
ENDBRANCH  21  23
ENDBRANCH   5  22
TORSDOF 6
ENDMDL
MODEL 3
REMARK VINA RESULT:      -5.7     21.106     24.207
REMARK  Name = 154040924
REMARK  6 active torsions:
REMARK  status: ('A' for Active; 'I' for Inactive)
REMARK    1  A    between atoms: O_4  and  N_7
REMARK    2  A    between atoms: O_4  and  C_23
REMARK    3  A    between atoms: C_8  and  C_10
REMARK    4  A    between atoms: C_9  and  C_18
REMARK    5  A    between atoms: C_12  and  C_19
REMARK    6  A    between atoms: C_23  and  C_24
REMARK                            x       y       z     vdW  Elec       q    Type
REMARK                         _______ _______ _______ _____ _____    ______ ____
ROOT
ATOM      1  S   UNL     1      -1.583   8.034 -57.412  0.00  0.00    +0.000 S 
ATOM      2  N   UNL     1      -3.381   6.369 -58.157  0.00  0.00    +0.000 N 
ATOM      3  N   UNL     1      -2.819   5.895 -56.065  0.00  0.00    +0.000 NA
ATOM      4  C   UNL     1      -3.796   5.019 -56.507  0.00  0.00    +0.000 A 
ATOM      5  C   UNL     1      -4.176   5.294 -57.843  0.00  0.00    +0.000 A 
ATOM      6  C   UNL     1      -2.608   6.664 -57.094  0.00  0.00    +0.000 A 
ATOM      7  C   UNL     1      -3.214   7.206 -59.256  0.00  0.00    +0.000 A 
ATOM      8  C   UNL     1      -2.270   8.125 -59.038  0.00  0.00    +0.000 A 
ENDROOT
BRANCH   4   9
ATOM      9  C   UNL     1      -4.342   3.979 -55.635  0.00  0.00    +0.000 A 
ATOM     10  C   UNL     1      -5.565   1.938 -54.065  0.00  0.00    +0.000 A 
ATOM     11  C   UNL     1      -5.113   4.306 -54.515  0.00  0.00    +0.000 A 
ATOM     12  C   UNL     1      -4.146   2.626 -55.902  0.00  0.00    +0.000 A 
ATOM     13  C   UNL     1      -5.708   3.297 -53.729  0.00  0.00    +0.000 A 
ATOM     14  C   UNL     1      -4.789   1.642 -55.182  0.00  0.00    +0.000 A 
BRANCH  10  15
ATOM     15  C   UNL     1      -6.166   0.828 -53.305  0.00  0.00    +0.000 A 
ATOM     16  C   UNL     1      -5.747   0.498 -52.011  0.00  0.00    +0.000 A 
ATOM     17  C   UNL     1      -7.235   0.089 -53.855  0.00  0.00    +0.000 A 
ATOM     18  C   UNL     1      -6.383  -0.520 -51.295  0.00  0.00    +0.000 A 
ATOM     19  C   UNL     1      -7.890  -0.906 -53.134  0.00  0.00    +0.000 A 
ATOM     20  C   UNL     1      -7.458  -1.212 -51.853  0.00  0.00    +0.000 A 
ENDBRANCH  10  15
ENDBRANCH   4   9
BRANCH   5  22
ATOM     21  N   UNL     1      -5.062   3.744 -59.533  0.00  0.00    +0.000 NA
ATOM     22  C   UNL     1      -5.181   4.738 -58.700  0.00  0.00    +0.000 C 
BRANCH  21  23
ATOM     23  O   UNL     1      -3.810   3.144 -59.435  0.00  0.00    +0.000 OA
BRANCH  23  24
ATOM     24  C   UNL     1      -3.796   1.934 -60.181  0.00  0.00    +0.000 C 
BRANCH  24  27
ATOM     25 CL   UNL     1      -6.444  -1.417 -57.217  0.00  0.00    +0.000 Cl
ATOM     26 CL   UNL     1      -3.601  -2.315 -55.912  0.00  0.00    +0.000 Cl
ATOM     27  C   UNL     1      -3.781   0.822 -59.171  0.00  0.00    +0.000 A 
ATOM     28  C   UNL     1      -4.968   0.227 -58.729  0.00  0.00    +0.000 A 
ATOM     29  C   UNL     1      -2.557   0.387 -58.642  0.00  0.00    +0.000 A 
ATOM     30  C   UNL     1      -4.934  -0.756 -57.735  0.00  0.00    +0.000 A 
ATOM     31  C   UNL     1      -2.521  -0.591 -57.651  0.00  0.00    +0.000 A 
ATOM     32  C   UNL     1      -3.711  -1.154 -57.184  0.00  0.00    +0.000 A 
ENDBRANCH  24  27
ENDBRANCH  23  24
ENDBRANCH  21  23
ENDBRANCH   5  22
TORSDOF 6
ENDMDL
MODEL 4
REMARK VINA RESULT:      -5.7     21.346     22.981
REMARK  Name = 154040924
REMARK  6 active torsions:
REMARK  status: ('A' for Active; 'I' for Inactive)
REMARK    1  A    between atoms: O_4  and  N_7
REMARK    2  A    between atoms: O_4  and  C_23
REMARK    3  A    between atoms: C_8  and  C_10
REMARK    4  A    between atoms: C_9  and  C_18
REMARK    5  A    between atoms: C_12  and  C_19
REMARK    6  A    between atoms: C_23  and  C_24
REMARK                            x       y       z     vdW  Elec       q    Type
REMARK                         _______ _______ _______ _____ _____    ______ ____
ROOT
ATOM      1  S   UNL     1     -27.443   5.808 -49.272  0.00  0.00    +0.000 S 
ATOM      2  N   UNL     1     -25.709   7.654 -49.650  0.00  0.00    +0.000 N 
ATOM      3  N   UNL     1     -25.389   6.078 -51.175  0.00  0.00    +0.000 NA
ATOM      4  C   UNL     1     -24.472   7.101 -51.347  0.00  0.00    +0.000 A 
ATOM      5  C   UNL     1     -24.649   8.125 -50.385  0.00  0.00    +0.000 A 
ATOM      6  C   UNL     1     -26.087   6.460 -50.146  0.00  0.00    +0.000 A 
ATOM      7  C   UNL     1     -26.469   8.114 -48.579  0.00  0.00    +0.000 A 
ATOM      8  C   UNL     1     -27.414   7.235 -48.229  0.00  0.00    +0.000 A 
ENDROOT
BRANCH   4   9
ATOM      9  C   UNL     1     -23.489   7.074 -52.430  0.00  0.00    +0.000 A 
ATOM     10  C   UNL     1     -21.662   7.191 -54.615  0.00  0.00    +0.000 A 
ATOM     11  C   UNL     1     -23.697   6.300 -53.576  0.00  0.00    +0.000 A 
ATOM     12  C   UNL     1     -22.328   7.841 -52.380  0.00  0.00    +0.000 A 
ATOM     13  C   UNL     1     -22.788   6.345 -54.652  0.00  0.00    +0.000 A 
ATOM     14  C   UNL     1     -21.479   7.947 -53.461  0.00  0.00    +0.000 A 
BRANCH  10  15
ATOM     15  C   UNL     1     -20.676   7.306 -55.703  0.00  0.00    +0.000 A 
ATOM     16  C   UNL     1     -19.550   8.130 -55.605  0.00  0.00    +0.000 A 
ATOM     17  C   UNL     1     -20.819   6.531 -56.875  0.00  0.00    +0.000 A 
ATOM     18  C   UNL     1     -18.602   8.167 -56.631  0.00  0.00    +0.000 A 
ATOM     19  C   UNL     1     -19.862   6.542 -57.886  0.00  0.00    +0.000 A 
ATOM     20  C   UNL     1     -18.753   7.366 -57.763  0.00  0.00    +0.000 A 
ENDBRANCH  10  15
ENDBRANCH   4   9
BRANCH   5  22
ATOM     21  N   UNL     1     -24.089  10.446 -50.973  0.00  0.00    +0.000 NA
ATOM     22  C   UNL     1     -24.022   9.401 -50.199  0.00  0.00    +0.000 C 
BRANCH  21  23
ATOM     23  O   UNL     1     -24.979  10.246 -52.023  0.00  0.00    +0.000 OA
BRANCH  23  24
ATOM     24  C   UNL     1     -24.873  11.315 -52.955  0.00  0.00    +0.000 C 
BRANCH  24  27
ATOM     25 CL   UNL     1     -21.084  11.250 -56.515  0.00  0.00    +0.000 Cl
ATOM     26 CL   UNL     1     -22.828   9.039 -58.147  0.00  0.00    +0.000 Cl
ATOM     27  C   UNL     1     -24.297  10.719 -54.208  0.00  0.00    +0.000 A 
ATOM     28  C   UNL     1     -23.070  11.154 -54.721  0.00  0.00    +0.000 A 
ATOM     29  C   UNL     1     -25.013   9.725 -54.891  0.00  0.00    +0.000 A 
ATOM     30  C   UNL     1     -22.589  10.637 -55.928  0.00  0.00    +0.000 A 
ATOM     31  C   UNL     1     -24.536   9.209 -56.093  0.00  0.00    +0.000 A 
ATOM     32  C   UNL     1     -23.330   9.674 -56.623  0.00  0.00    +0.000 A 
ENDBRANCH  24  27
ENDBRANCH  23  24
ENDBRANCH  21  23
ENDBRANCH   5  22
TORSDOF 6
ENDMDL
MODEL 5
REMARK VINA RESULT:      -5.7     22.560     24.364
REMARK  Name = 154040924
REMARK  6 active torsions:
REMARK  status: ('A' for Active; 'I' for Inactive)
REMARK    1  A    between atoms: O_4  and  N_7
REMARK    2  A    between atoms: O_4  and  C_23
REMARK    3  A    between atoms: C_8  and  C_10
REMARK    4  A    between atoms: C_9  and  C_18
REMARK    5  A    between atoms: C_12  and  C_19
REMARK    6  A    between atoms: C_23  and  C_24
REMARK                            x       y       z     vdW  Elec       q    Type
REMARK                         _______ _______ _______ _____ _____    ______ ____
ROOT
ATOM      1  S   UNL     1     -23.022   9.599 -58.995  0.00  0.00    +0.000 S 
ATOM      2  N   UNL     1     -21.311   8.528 -57.419  0.00  0.00    +0.000 N 
ATOM      3  N   UNL     1     -23.260   8.623 -56.367  0.00  0.00    +0.000 NA
ATOM      4  C   UNL     1     -22.304   8.043 -55.549  0.00  0.00    +0.000 A 
ATOM      5  C   UNL     1     -21.045   7.970 -56.193  0.00  0.00    +0.000 A 
ATOM      6  C   UNL     1     -22.606   8.898 -57.458  0.00  0.00    +0.000 A 
ATOM      7  C   UNL     1     -20.597   8.763 -58.590  0.00  0.00    +0.000 A 
ATOM      8  C   UNL     1     -21.351   9.360 -59.518  0.00  0.00    +0.000 A 
ENDROOT
BRANCH   4   9
ATOM      9  C   UNL     1     -22.635   7.564 -54.208  0.00  0.00    +0.000 A 
ATOM     10  C   UNL     1     -23.447   6.749 -51.599  0.00  0.00    +0.000 A 
ATOM     11  C   UNL     1     -22.085   8.162 -53.070  0.00  0.00    +0.000 A 
ATOM     12  C   UNL     1     -23.534   6.519 -54.008  0.00  0.00    +0.000 A 
ATOM     13  C   UNL     1     -22.475   7.752 -51.779  0.00  0.00    +0.000 A 
ATOM     14  C   UNL     1     -23.974   6.168 -52.750  0.00  0.00    +0.000 A 
BRANCH  10  15
ATOM     15  C   UNL     1     -23.917   6.275 -50.286  0.00  0.00    +0.000 A 
ATOM     16  C   UNL     1     -23.548   6.902 -49.091  0.00  0.00    +0.000 A 
ATOM     17  C   UNL     1     -24.811   5.185 -50.204  0.00  0.00    +0.000 A 
ATOM     18  C   UNL     1     -24.064   6.465 -47.868  0.00  0.00    +0.000 A 
ATOM     19  C   UNL     1     -25.350   4.765 -48.991  0.00  0.00    +0.000 A 
ATOM     20  C   UNL     1     -24.971   5.405 -47.821  0.00  0.00    +0.000 A 
ENDBRANCH  10  15
ENDBRANCH   4   9
BRANCH   5  22
ATOM     21  N   UNL     1     -19.357   6.188 -56.044  0.00  0.00    +0.000 NA
ATOM     22  C   UNL     1     -19.791   7.393 -55.807  0.00  0.00    +0.000 C 
BRANCH  21  23
ATOM     23  O   UNL     1     -20.233   5.483 -56.863  0.00  0.00    +0.000 OA
BRANCH  23  24
ATOM     24  C   UNL     1     -20.854   4.441 -56.122  0.00  0.00    +0.000 C 
BRANCH  24  27
ATOM     25 CL   UNL     1     -24.997   1.344 -56.649  0.00  0.00    +0.000 Cl
ATOM     26 CL   UNL     1     -25.135   2.270 -59.766  0.00  0.00    +0.000 Cl
ATOM     27  C   UNL     1     -21.978   3.933 -56.979  0.00  0.00    +0.000 A 
ATOM     28  C   UNL     1     -22.911   3.015 -56.484  0.00  0.00    +0.000 A 
ATOM     29  C   UNL     1     -22.081   4.367 -58.309  0.00  0.00    +0.000 A 
ATOM     30  C   UNL     1     -23.904   2.501 -57.323  0.00  0.00    +0.000 A 
ATOM     31  C   UNL     1     -23.070   3.856 -59.146  0.00  0.00    +0.000 A 
ATOM     32  C   UNL     1     -23.974   2.909 -58.660  0.00  0.00    +0.000 A 
ENDBRANCH  24  27
ENDBRANCH  23  24
ENDBRANCH  21  23
ENDBRANCH   5  22
TORSDOF 6
ENDMDL
MODEL 6
REMARK VINA RESULT:      -5.6     19.295     21.662
REMARK  Name = 154040924
REMARK  6 active torsions:
REMARK  status: ('A' for Active; 'I' for Inactive)
REMARK    1  A    between atoms: O_4  and  N_7
REMARK    2  A    between atoms: O_4  and  C_23
REMARK    3  A    between atoms: C_8  and  C_10
REMARK    4  A    between atoms: C_9  and  C_18
REMARK    5  A    between atoms: C_12  and  C_19
REMARK    6  A    between atoms: C_23  and  C_24
REMARK                            x       y       z     vdW  Elec       q    Type
REMARK                         _______ _______ _______ _____ _____    ______ ____
ROOT
ATOM      1  S   UNL     1      -8.203  -1.754 -53.096  0.00  0.00    +0.000 S 
ATOM      2  N   UNL     1      -6.536  -0.095 -52.083  0.00  0.00    +0.000 N 
ATOM      3  N   UNL     1      -6.750   0.366 -54.241  0.00  0.00    +0.000 NA
ATOM      4  C   UNL     1      -5.858   1.246 -53.652  0.00  0.00    +0.000 A 
ATOM      5  C   UNL     1      -5.698   0.977 -52.271  0.00  0.00    +0.000 A 
ATOM      6  C   UNL     1      -7.108  -0.412 -53.261  0.00  0.00    +0.000 A 
ATOM      7  C   UNL     1      -6.937  -0.876 -51.004  0.00  0.00    +0.000 A 
ATOM      8  C   UNL     1      -7.797  -1.829 -51.377  0.00  0.00    +0.000 A 
ENDROOT
BRANCH   4   9
ATOM      9  C   UNL     1      -5.220   2.316 -54.418  0.00  0.00    +0.000 A 
ATOM     10  C   UNL     1      -4.159   4.432 -56.007  0.00  0.00    +0.000 A 
ATOM     11  C   UNL     1      -4.502   2.041 -55.586  0.00  0.00    +0.000 A 
ATOM     12  C   UNL     1      -5.332   3.652 -54.038  0.00  0.00    +0.000 A 
ATOM     13  C   UNL     1      -3.964   3.085 -56.366  0.00  0.00    +0.000 A 
ATOM     14  C   UNL     1      -4.875   4.676 -54.838  0.00  0.00    +0.000 A 
BRANCH  10  15
ATOM     15  C   UNL     1      -3.642   5.578 -56.775  0.00  0.00    +0.000 A 
ATOM     16  C   UNL     1      -3.751   5.652 -58.168  0.00  0.00    +0.000 A 
ATOM     17  C   UNL     1      -3.058   6.675 -56.106  0.00  0.00    +0.000 A 
ATOM     18  C   UNL     1      -3.307   6.782 -58.859  0.00  0.00    +0.000 A 
ATOM     19  C   UNL     1      -2.641   7.815 -56.787  0.00  0.00    +0.000 A 
ATOM     20  C   UNL     1      -2.763   7.865 -58.167  0.00  0.00    +0.000 A 
ENDBRANCH  10  15
ENDBRANCH   4   9
BRANCH   5  22
ATOM     21  N   UNL     1      -3.718   1.483 -50.903  0.00  0.00    +0.000 NA
ATOM     22  C   UNL     1      -4.968   1.642 -51.231  0.00  0.00    +0.000 C 
BRANCH  21  23
ATOM     23  O   UNL     1      -3.064   0.630 -51.786  0.00  0.00    +0.000 OA
BRANCH  23  24
ATOM     24  C   UNL     1      -2.426  -0.416 -51.064  0.00  0.00    +0.000 C 
BRANCH  24  27
ATOM     25 CL   UNL     1      -4.881  -4.491 -48.967  0.00  0.00    +0.000 Cl
ATOM     26 CL   UNL     1      -5.619  -5.442 -51.991  0.00  0.00    +0.000 Cl
ATOM     27  C   UNL     1      -3.284  -1.635 -51.251  0.00  0.00    +0.000 A 
ATOM     28  C   UNL     1      -3.700  -2.405 -50.158  0.00  0.00    +0.000 A 
ATOM     29  C   UNL     1      -3.655  -2.024 -52.546  0.00  0.00    +0.000 A 
ATOM     30  C   UNL     1      -4.436  -3.575 -50.363  0.00  0.00    +0.000 A 
ATOM     31  C   UNL     1      -4.388  -3.190 -52.752  0.00  0.00    +0.000 A 
ATOM     32  C   UNL     1      -4.767  -3.978 -51.663  0.00  0.00    +0.000 A 
ENDBRANCH  24  27
ENDBRANCH  23  24
ENDBRANCH  21  23
ENDBRANCH   5  22
TORSDOF 6
ENDMDL
MODEL 7
REMARK VINA RESULT:      -5.6     20.088     21.957
REMARK  Name = 154040924
REMARK  6 active torsions:
REMARK  status: ('A' for Active; 'I' for Inactive)
REMARK    1  A    between atoms: O_4  and  N_7
REMARK    2  A    between atoms: O_4  and  C_23
REMARK    3  A    between atoms: C_8  and  C_10
REMARK    4  A    between atoms: C_9  and  C_18
REMARK    5  A    between atoms: C_12  and  C_19
REMARK    6  A    between atoms: C_23  and  C_24
REMARK                            x       y       z     vdW  Elec       q    Type
REMARK                         _______ _______ _______ _____ _____    ______ ____
ROOT
ATOM      1  S   UNL     1      -6.415  -3.780 -49.946  0.00  0.00    +0.000 S 
ATOM      2  N   UNL     1      -6.211  -3.188 -52.429  0.00  0.00    +0.000 N 
ATOM      3  N   UNL     1      -5.980  -1.325 -51.249  0.00  0.00    +0.000 NA
ATOM      4  C   UNL     1      -5.870  -1.050 -52.602  0.00  0.00    +0.000 A 
ATOM      5  C   UNL     1      -6.016  -2.221 -53.384  0.00  0.00    +0.000 A 
ATOM      6  C   UNL     1      -6.192  -2.609 -51.213  0.00  0.00    +0.000 A 
ATOM      7  C   UNL     1      -6.387  -4.569 -52.420  0.00  0.00    +0.000 A 
ATOM      8  C   UNL     1      -6.545  -5.039 -51.179  0.00  0.00    +0.000 A 
ENDROOT
BRANCH   4   9
ATOM      9  C   UNL     1      -5.607   0.304 -53.088  0.00  0.00    +0.000 A 
ATOM     10  C   UNL     1      -4.895   2.892 -54.049  0.00  0.00    +0.000 A 
ATOM     11  C   UNL     1      -5.418   1.367 -52.200  0.00  0.00    +0.000 A 
ATOM     12  C   UNL     1      -5.500   0.582 -54.449  0.00  0.00    +0.000 A 
ATOM     13  C   UNL     1      -5.079   2.651 -52.674  0.00  0.00    +0.000 A 
ATOM     14  C   UNL     1      -5.093   1.816 -54.909  0.00  0.00    +0.000 A 
BRANCH  10  15
ATOM     15  C   UNL     1      -4.527   4.199 -54.619  0.00  0.00    +0.000 A 
ATOM     16  C   UNL     1      -4.520   5.371 -53.856  0.00  0.00    +0.000 A 
ATOM     17  C   UNL     1      -4.116   4.294 -55.967  0.00  0.00    +0.000 A 
ATOM     18  C   UNL     1      -4.104   6.583 -54.414  0.00  0.00    +0.000 A 
ATOM     19  C   UNL     1      -3.674   5.493 -56.519  0.00  0.00    +0.000 A 
ATOM     20  C   UNL     1      -3.673   6.640 -55.739  0.00  0.00    +0.000 A 
ENDBRANCH  10  15
ENDBRANCH   4   9
BRANCH   5  22
ATOM     21  N   UNL     1      -4.851  -2.860 -55.454  0.00  0.00    +0.000 NA
ATOM     22  C   UNL     1      -5.902  -2.469 -54.792  0.00  0.00    +0.000 C 
BRANCH  21  23
ATOM     23  O   UNL     1      -3.791  -3.151 -54.600  0.00  0.00    +0.000 OA
BRANCH  23  24
ATOM     24  C   UNL     1      -2.647  -2.398 -54.979  0.00  0.00    +0.000 C 
BRANCH  24  27
ATOM     25 CL   UNL     1      -2.472  -1.582 -49.847  0.00  0.00    +0.000 Cl
ATOM     26 CL   UNL     1      -1.765   1.529 -50.493  0.00  0.00    +0.000 Cl
ATOM     27  C   UNL     1      -2.364  -1.467 -53.835  0.00  0.00    +0.000 A 
ATOM     28  C   UNL     1      -2.477  -1.893 -52.506  0.00  0.00    +0.000 A 
ATOM     29  C   UNL     1      -2.003  -0.137 -54.101  0.00  0.00    +0.000 A 
ATOM     30  C   UNL     1      -2.280  -0.989 -51.459  0.00  0.00    +0.000 A 
ATOM     31  C   UNL     1      -1.807   0.765 -53.058  0.00  0.00    +0.000 A 
ATOM     32  C   UNL     1      -1.960   0.346 -51.735  0.00  0.00    +0.000 A 
ENDBRANCH  24  27
ENDBRANCH  23  24
ENDBRANCH  21  23
ENDBRANCH   5  22
TORSDOF 6
ENDMDL
MODEL 8
REMARK VINA RESULT:      -5.5     22.624     24.186
REMARK  Name = 154040924
REMARK  6 active torsions:
REMARK  status: ('A' for Active; 'I' for Inactive)
REMARK    1  A    between atoms: O_4  and  N_7
REMARK    2  A    between atoms: O_4  and  C_23
REMARK    3  A    between atoms: C_8  and  C_10
REMARK    4  A    between atoms: C_9  and  C_18
REMARK    5  A    between atoms: C_12  and  C_19
REMARK    6  A    between atoms: C_23  and  C_24
REMARK                            x       y       z     vdW  Elec       q    Type
REMARK                         _______ _______ _______ _____ _____    ______ ____
ROOT
ATOM      1  S   UNL     1     -29.011   0.818 -55.984  0.00  0.00    +0.000 S 
ATOM      2  N   UNL     1     -26.574   0.179 -55.527  0.00  0.00    +0.000 N 
ATOM      3  N   UNL     1     -26.653   2.352 -55.957  0.00  0.00    +0.000 NA
ATOM      4  C   UNL     1     -25.349   1.964 -55.699  0.00  0.00    +0.000 A 
ATOM      5  C   UNL     1     -25.264   0.578 -55.422  0.00  0.00    +0.000 A 
ATOM      6  C   UNL     1     -27.330   1.246 -55.851  0.00  0.00    +0.000 A 
ATOM      7  C   UNL     1     -27.276  -1.010 -55.357  0.00  0.00    +0.000 A 
ATOM      8  C   UNL     1     -28.581  -0.852 -55.597  0.00  0.00    +0.000 A 
ENDROOT
BRANCH   4   9
ATOM      9  C   UNL     1     -24.249   2.929 -55.700  0.00  0.00    +0.000 A 
ATOM     10  C   UNL     1     -22.203   4.908 -55.857  0.00  0.00    +0.000 A 
ATOM     11  C   UNL     1     -23.074   2.685 -56.417  0.00  0.00    +0.000 A 
ATOM     12  C   UNL     1     -24.342   4.141 -55.020  0.00  0.00    +0.000 A 
ATOM     13  C   UNL     1     -22.055   3.656 -56.485  0.00  0.00    +0.000 A 
ATOM     14  C   UNL     1     -23.382   5.122 -55.148  0.00  0.00    +0.000 A 
BRANCH  10  15
ATOM     15  C   UNL     1     -21.193   5.979 -55.894  0.00  0.00    +0.000 A 
ATOM     16  C   UNL     1     -21.413   7.233 -55.314  0.00  0.00    +0.000 A 
ATOM     17  C   UNL     1     -19.931   5.743 -56.482  0.00  0.00    +0.000 A 
ATOM     18  C   UNL     1     -20.408   8.204 -55.313  0.00  0.00    +0.000 A 
ATOM     19  C   UNL     1     -18.917   6.697 -56.456  0.00  0.00    +0.000 A 
ATOM     20  C   UNL     1     -19.160   7.931 -55.873  0.00  0.00    +0.000 A 
ENDBRANCH  10  15
ENDBRANCH   4   9
BRANCH   5  22
ATOM     21  N   UNL     1     -23.758  -0.514 -53.814  0.00  0.00    +0.000 NA
ATOM     22  C   UNL     1     -24.177  -0.267 -55.022  0.00  0.00    +0.000 C 
BRANCH  21  23
ATOM     23  O   UNL     1     -24.587   0.065 -52.858  0.00  0.00    +0.000 OA
BRANCH  23  24
ATOM     24  C   UNL     1     -24.346  -0.526 -51.588  0.00  0.00    +0.000 C 
BRANCH  24  27
ATOM     25 CL   UNL     1     -25.295   0.772 -46.643  0.00  0.00    +0.000 Cl
ATOM     26 CL   UNL     1     -25.747   3.829 -47.665  0.00  0.00    +0.000 Cl
ATOM     27  C   UNL     1     -24.624   0.544 -50.571  0.00  0.00    +0.000 A 
ATOM     28  C   UNL     1     -24.768   0.235 -49.213  0.00  0.00    +0.000 A 
ATOM     29  C   UNL     1     -24.765   1.875 -50.991  0.00  0.00    +0.000 A 
ATOM     30  C   UNL     1     -25.098   1.238 -48.296  0.00  0.00    +0.000 A 
ATOM     31  C   UNL     1     -25.095   2.874 -50.079  0.00  0.00    +0.000 A 
ATOM     32  C   UNL     1     -25.278   2.556 -48.732  0.00  0.00    +0.000 A 
ENDBRANCH  24  27
ENDBRANCH  23  24
ENDBRANCH  21  23
ENDBRANCH   5  22
TORSDOF 6
ENDMDL
MODEL 9
REMARK VINA RESULT:      -5.2     22.544     25.552
REMARK  Name = 154040924
REMARK  6 active torsions:
REMARK  status: ('A' for Active; 'I' for Inactive)
REMARK    1  A    between atoms: O_4  and  N_7
REMARK    2  A    between atoms: O_4  and  C_23
REMARK    3  A    between atoms: C_8  and  C_10
REMARK    4  A    between atoms: C_9  and  C_18
REMARK    5  A    between atoms: C_12  and  C_19
REMARK    6  A    between atoms: C_23  and  C_24
REMARK                            x       y       z     vdW  Elec       q    Type
REMARK                         _______ _______ _______ _____ _____    ______ ____
ROOT
ATOM      1  S   UNL     1      -0.785   6.380 -58.184  0.00  0.00    +0.000 S 
ATOM      2  N   UNL     1      -3.196   5.559 -58.454  0.00  0.00    +0.000 N 
ATOM      3  N   UNL     1      -2.331   4.595 -56.654  0.00  0.00    +0.000 NA
ATOM      4  C   UNL     1      -3.640   4.181 -56.835  0.00  0.00    +0.000 A 
ATOM      5  C   UNL     1      -4.221   4.779 -57.979  0.00  0.00    +0.000 A 
ATOM      6  C   UNL     1      -2.123   5.403 -57.654  0.00  0.00    +0.000 A 
ATOM      7  C   UNL     1      -3.021   6.456 -59.503  0.00  0.00    +0.000 A 
ATOM      8  C   UNL     1      -1.782   6.957 -59.524  0.00  0.00    +0.000 A 
ENDROOT
BRANCH   4   9
ATOM      9  C   UNL     1      -4.286   3.260 -55.901  0.00  0.00    +0.000 A 
ATOM     10  C   UNL     1      -5.719   1.483 -54.192  0.00  0.00    +0.000 A 
ATOM     11  C   UNL     1      -4.849   3.718 -54.706  0.00  0.00    +0.000 A 
ATOM     12  C   UNL     1      -4.399   1.899 -56.179  0.00  0.00    +0.000 A 
ATOM     13  C   UNL     1      -5.546   2.839 -53.852  0.00  0.00    +0.000 A 
ATOM     14  C   UNL     1      -5.145   1.054 -55.386  0.00  0.00    +0.000 A 
BRANCH  10  15
ATOM     15  C   UNL     1      -6.445   0.507 -53.363  0.00  0.00    +0.000 A 
ATOM     16  C   UNL     1      -7.578  -0.171 -53.827  0.00  0.00    +0.000 A 
ATOM     17  C   UNL     1      -5.976   0.186 -52.070  0.00  0.00    +0.000 A 
ATOM     18  C   UNL     1      -8.205  -1.137 -53.035  0.00  0.00    +0.000 A 
ATOM     19  C   UNL     1      -6.579  -0.797 -51.290  0.00  0.00    +0.000 A 
ATOM     20  C   UNL     1      -7.699  -1.456 -51.775  0.00  0.00    +0.000 A 
ENDBRANCH  10  15
ENDBRANCH   4   9
BRANCH   5  22
ATOM     21  N   UNL     1      -5.987   3.985 -59.496  0.00  0.00    +0.000 NA
ATOM     22  C   UNL     1      -5.544   4.738 -58.529  0.00  0.00    +0.000 C 
BRANCH  21  23
ATOM     23  O   UNL     1      -5.024   3.070 -59.911  0.00  0.00    +0.000 OA
BRANCH  23  24
ATOM     24  C   UNL     1      -5.536   1.749 -59.802  0.00  0.00    +0.000 C 
BRANCH  24  27
ATOM     25 CL   UNL     1      -4.651   0.686 -64.814  0.00  0.00    +0.000 Cl
ATOM     26 CL   UNL     1      -7.877   0.647 -65.244  0.00  0.00    +0.000 Cl
ATOM     27  C   UNL     1      -6.081   1.400 -61.157  0.00  0.00    +0.000 A 
ATOM     28  C   UNL     1      -5.231   1.172 -62.245  0.00  0.00    +0.000 A 
ATOM     29  C   UNL     1      -7.470   1.325 -61.343  0.00  0.00    +0.000 A 
ATOM     30  C   UNL     1      -5.765   0.921 -63.513  0.00  0.00    +0.000 A 
ATOM     31  C   UNL     1      -8.003   1.076 -62.605  0.00  0.00    +0.000 A 
ATOM     32  C   UNL     1      -7.152   0.889 -63.697  0.00  0.00    +0.000 A 
ENDBRANCH  24  27
ENDBRANCH  23  24
ENDBRANCH  21  23
ENDBRANCH   5  22
TORSDOF 6
ENDMDL
MODEL 10
REMARK VINA RESULT:      -5.1     22.462     23.981
REMARK  Name = 154040924
REMARK  6 active torsions:
REMARK  status: ('A' for Active; 'I' for Inactive)
REMARK    1  A    between atoms: O_4  and  N_7
REMARK    2  A    between atoms: O_4  and  C_23
REMARK    3  A    between atoms: C_8  and  C_10
REMARK    4  A    between atoms: C_9  and  C_18
REMARK    5  A    between atoms: C_12  and  C_19
REMARK    6  A    between atoms: C_23  and  C_24
REMARK                            x       y       z     vdW  Elec       q    Type
REMARK                         _______ _______ _______ _____ _____    ______ ____
ROOT
ATOM      1  S   UNL     1     -27.717   5.910 -49.630  0.00  0.00    +0.000 S 
ATOM      2  N   UNL     1     -26.837   7.900 -50.979  0.00  0.00    +0.000 N 
ATOM      3  N   UNL     1     -25.493   6.173 -51.332  0.00  0.00    +0.000 NA
ATOM      4  C   UNL     1     -25.054   7.273 -52.049  0.00  0.00    +0.000 A 
ATOM      5  C   UNL     1     -25.892   8.396 -51.844  0.00  0.00    +0.000 A 
ATOM      6  C   UNL     1     -26.547   6.613 -50.709  0.00  0.00    +0.000 A 
ATOM      7  C   UNL     1     -27.989   8.386 -50.367  0.00  0.00    +0.000 A 
ATOM      8  C   UNL     1     -28.559   7.463 -49.586  0.00  0.00    +0.000 A 
ENDROOT
BRANCH   4   9
ATOM      9  C   UNL     1     -23.878   7.202 -52.916  0.00  0.00    +0.000 A 
ATOM     10  C   UNL     1     -21.668   7.216 -54.717  0.00  0.00    +0.000 A 
ATOM     11  C   UNL     1     -23.810   6.284 -53.969  0.00  0.00    +0.000 A 
ATOM     12  C   UNL     1     -22.798   8.066 -52.751  0.00  0.00    +0.000 A 
ATOM     13  C   UNL     1     -22.711   6.280 -54.852  0.00  0.00    +0.000 A 
ATOM     14  C   UNL     1     -21.761   8.115 -53.658  0.00  0.00    +0.000 A 
BRANCH  10  15
ATOM     15  C   UNL     1     -20.496   7.285 -55.606  0.00  0.00    +0.000 A 
ATOM     16  C   UNL     1     -19.876   6.139 -56.115  0.00  0.00    +0.000 A 
ATOM     17  C   UNL     1     -19.990   8.538 -56.017  0.00  0.00    +0.000 A 
ATOM     18  C   UNL     1     -18.805   6.243 -57.006  0.00  0.00    +0.000 A 
ATOM     19  C   UNL     1     -18.943   8.647 -56.927  0.00  0.00    +0.000 A 
ATOM     20  C   UNL     1     -18.348   7.495 -57.419  0.00  0.00    +0.000 A 
ENDBRANCH  10  15
ENDBRANCH   4   9
BRANCH   5  22
ATOM     21  N   UNL     1     -26.034  10.040 -53.667  0.00  0.00    +0.000 NA
ATOM     22  C   UNL     1     -25.910   9.712 -52.413  0.00  0.00    +0.000 C 
BRANCH  21  23
ATOM     23  O   UNL     1     -26.283   8.925 -54.463  0.00  0.00    +0.000 OA
BRANCH  23  24
ATOM     24  C   UNL     1     -26.553   9.336 -55.797  0.00  0.00    +0.000 C 
BRANCH  24  27
ATOM     25 CL   UNL     1     -24.702   5.349 -58.574  0.00  0.00    +0.000 Cl
ATOM     26 CL   UNL     1     -21.939   7.035 -58.917  0.00  0.00    +0.000 Cl
ATOM     27  C   UNL     1     -25.453   8.759 -56.641  0.00  0.00    +0.000 A 
ATOM     28  C   UNL     1     -25.566   7.486 -57.211  0.00  0.00    +0.000 A 
ATOM     29  C   UNL     1     -24.278   9.500 -56.843  0.00  0.00    +0.000 A 
ATOM     30  C   UNL     1     -24.500   6.941 -57.932  0.00  0.00    +0.000 A 
ATOM     31  C   UNL     1     -23.215   8.958 -57.560  0.00  0.00    +0.000 A 
ATOM     32  C   UNL     1     -23.316   7.671 -58.093  0.00  0.00    +0.000 A 
ENDBRANCH  24  27
ENDBRANCH  23  24
ENDBRANCH  21  23
ENDBRANCH   5  22
TORSDOF 6
ENDMDL
