MODEL 1
REMARK VINA RESULT:      -6.0      0.000      0.000
REMARK  Name = 154040920
REMARK  6 active torsions:
REMARK  status: ('A' for Active; 'I' for Inactive)
REMARK    1  A    between atoms: O_4  and  N_7
REMARK    2  A    between atoms: O_4  and  C_22
REMARK    3  A    between atoms: C_9  and  C_14
REMARK    4  A    between atoms: C_10  and  C_12
REMARK    5  A    between atoms: C_20  and  C_28
REMARK    6  A    between atoms: C_21  and  C_22
REMARK                            x       y       z     vdW  Elec       q    Type
REMARK                         _______ _______ _______ _____ _____    ______ ____
ROOT
ATOM      1  S   UNL     1     -11.133  -6.424  16.077  0.00  0.00    +0.000 S 
ATOM      2  N   UNL     1     -10.178  -8.647  15.214  0.00  0.00    +0.000 N 
ATOM      3  N   UNL     1      -9.058  -8.048  17.051  0.00  0.00    +0.000 NA
ATOM      4  C   UNL     1      -9.246  -9.641  15.391  0.00  0.00    +0.000 A 
ATOM      5  C   UNL     1      -8.559  -9.240  16.544  0.00  0.00    +0.000 A 
ATOM      6  C   UNL     1      -9.997  -7.732  16.206  0.00  0.00    +0.000 A 
ATOM      7  C   UNL     1     -11.227  -8.374  14.359  0.00  0.00    +0.000 A 
ATOM      8  C   UNL     1     -11.833  -7.213  14.656  0.00  0.00    +0.000 A 
ENDROOT
BRANCH   5   9
ATOM      9  C   UNL     1      -7.474  -9.955  17.209  0.00  0.00    +0.000 A 
ATOM     10  C   UNL     1      -6.150  -9.746  16.793  0.00  0.00    +0.000 A 
ATOM     11  C   UNL     1      -7.711 -10.851  18.261  0.00  0.00    +0.000 A 
ATOM     12  C   UNL     1      -5.085 -10.368  17.453  0.00  0.00    +0.000 A 
ATOM     13  C   UNL     1      -6.648 -11.461  18.934  0.00  0.00    +0.000 A 
ATOM     14  C   UNL     1      -5.332 -11.210  18.539  0.00  0.00    +0.000 A 
BRANCH  14  16
ATOM     15  N   UNL     1      -3.351 -12.284  19.816  0.00  0.00    +0.000 NA
ATOM     16  C   UNL     1      -4.243 -11.811  19.248  0.00  0.00    +0.000 C 
ENDBRANCH  14  16
ENDBRANCH   5   9
BRANCH   4  18
ATOM     17  N   UNL     1      -8.240 -11.070  13.667  0.00  0.00    +0.000 NA
ATOM     18  C   UNL     1      -9.115 -10.837  14.603  0.00  0.00    +0.000 C 
BRANCH  17  19
ATOM     19  O   UNL     1      -7.281 -10.053  13.596  0.00  0.00    +0.000 OA
BRANCH  19  20
ATOM     20  C   UNL     1      -6.523 -10.172  12.393  0.00  0.00    +0.000 C 
BRANCH  20  23
ATOM     21 CL   UNL     1      -2.263 -10.504  15.385  0.00  0.00    +0.000 Cl
ATOM     22 CL   UNL     1      -1.335 -13.039  13.569  0.00  0.00    +0.000 Cl
ATOM     23  C   UNL     1      -5.240 -10.881  12.740  0.00  0.00    +0.000 A 
ATOM     24  C   UNL     1      -4.423 -10.447  13.794  0.00  0.00    +0.000 A 
ATOM     25  C   UNL     1      -4.837 -11.991  11.983  0.00  0.00    +0.000 A 
ATOM     26  C   UNL     1      -3.217 -11.104  14.074  0.00  0.00    +0.000 A 
ATOM     27  C   UNL     1      -3.638 -12.648  12.261  0.00  0.00    +0.000 A 
ATOM     28  C   UNL     1      -2.820 -12.201  13.301  0.00  0.00    +0.000 A 
ENDBRANCH  20  23
ENDBRANCH  19  20
ENDBRANCH  17  19
ENDBRANCH   4  18
TORSDOF 6
ENDMDL
MODEL 2
REMARK VINA RESULT:      -5.9     19.485     21.688
REMARK  Name = 154040920
REMARK  6 active torsions:
REMARK  status: ('A' for Active; 'I' for Inactive)
REMARK    1  A    between atoms: O_4  and  N_7
REMARK    2  A    between atoms: O_4  and  C_22
REMARK    3  A    between atoms: C_9  and  C_14
REMARK    4  A    between atoms: C_10  and  C_12
REMARK    5  A    between atoms: C_20  and  C_28
REMARK    6  A    between atoms: C_21  and  C_22
REMARK                            x       y       z     vdW  Elec       q    Type
REMARK                         _______ _______ _______ _____ _____    ______ ____
ROOT
ATOM      1  S   UNL     1     -15.976   3.450  24.154  0.00  0.00    +0.000 S 
ATOM      2  N   UNL     1     -16.130   5.888  23.360  0.00  0.00    +0.000 N 
ATOM      3  N   UNL     1     -14.459   4.883  22.272  0.00  0.00    +0.000 NA
ATOM      4  C   UNL     1     -15.608   6.866  22.546  0.00  0.00    +0.000 A 
ATOM      5  C   UNL     1     -14.564   6.210  21.881  0.00  0.00    +0.000 A 
ATOM      6  C   UNL     1     -15.395   4.758  23.169  0.00  0.00    +0.000 A 
ATOM      7  C   UNL     1     -17.184   5.751  24.241  0.00  0.00    +0.000 A 
ATOM      8  C   UNL     1     -17.237   4.522  24.779  0.00  0.00    +0.000 A 
ENDROOT
BRANCH   5   9
ATOM      9  C   UNL     1     -13.684   6.776  20.863  0.00  0.00    +0.000 A 
ATOM     10  C   UNL     1     -12.294   6.647  21.001  0.00  0.00    +0.000 A 
ATOM     11  C   UNL     1     -14.186   7.448  19.740  0.00  0.00    +0.000 A 
ATOM     12  C   UNL     1     -11.429   7.123  20.009  0.00  0.00    +0.000 A 
ATOM     13  C   UNL     1     -13.326   7.910  18.739  0.00  0.00    +0.000 A 
ATOM     14  C   UNL     1     -11.946   7.736  18.866  0.00  0.00    +0.000 A 
BRANCH  14  16
ATOM     15  N   UNL     1     -10.360   8.556  16.990  0.00  0.00    +0.000 NA
ATOM     16  C   UNL     1     -11.067   8.181  17.827  0.00  0.00    +0.000 C 
ENDBRANCH  14  16
ENDBRANCH   5   9
BRANCH   4  18
ATOM     17  N   UNL     1     -15.659   9.286  22.945  0.00  0.00    +0.000 NA
ATOM     18  C   UNL     1     -16.114   8.203  22.387  0.00  0.00    +0.000 C 
BRANCH  17  19
ATOM     19  O   UNL     1     -14.465   9.048  23.635  0.00  0.00    +0.000 OA
BRANCH  19  20
ATOM     20  C   UNL     1     -13.830  10.283  23.965  0.00  0.00    +0.000 C 
BRANCH  20  23
ATOM     21 CL   UNL     1     -14.123  14.106  20.429  0.00  0.00    +0.000 Cl
ATOM     22 CL   UNL     1     -11.857  12.523  18.711  0.00  0.00    +0.000 Cl
ATOM     23  C   UNL     1     -13.340  10.892  22.678  0.00  0.00    +0.000 A 
ATOM     24  C   UNL     1     -13.867  12.095  22.187  0.00  0.00    +0.000 A 
ATOM     25  C   UNL     1     -12.345  10.235  21.937  0.00  0.00    +0.000 A 
ATOM     26  C   UNL     1     -13.418  12.622  20.969  0.00  0.00    +0.000 A 
ATOM     27  C   UNL     1     -11.895  10.760  20.726  0.00  0.00    +0.000 A 
ATOM     28  C   UNL     1     -12.436  11.949  20.233  0.00  0.00    +0.000 A 
ENDBRANCH  20  23
ENDBRANCH  19  20
ENDBRANCH  17  19
ENDBRANCH   4  18
TORSDOF 6
ENDMDL
MODEL 3
REMARK VINA RESULT:      -5.8      3.941      5.015
REMARK  Name = 154040920
REMARK  6 active torsions:
REMARK  status: ('A' for Active; 'I' for Inactive)
REMARK    1  A    between atoms: O_4  and  N_7
REMARK    2  A    between atoms: O_4  and  C_22
REMARK    3  A    between atoms: C_9  and  C_14
REMARK    4  A    between atoms: C_10  and  C_12
REMARK    5  A    between atoms: C_20  and  C_28
REMARK    6  A    between atoms: C_21  and  C_22
REMARK                            x       y       z     vdW  Elec       q    Type
REMARK                         _______ _______ _______ _____ _____    ______ ____
ROOT
ATOM      1  S   UNL     1      -7.667 -12.999   8.572  0.00  0.00    +0.000 S 
ATOM      2  N   UNL     1      -6.864 -10.877   9.778  0.00  0.00    +0.000 N 
ATOM      3  N   UNL     1      -6.838 -12.579  11.224  0.00  0.00    +0.000 NA
ATOM      4  C   UNL     1      -6.429 -10.323  10.959  0.00  0.00    +0.000 A 
ATOM      5  C   UNL     1      -6.425 -11.409  11.844  0.00  0.00    +0.000 A 
ATOM      6  C   UNL     1      -7.110 -12.196  10.009  0.00  0.00    +0.000 A 
ATOM      7  C   UNL     1      -7.062 -10.471   8.474  0.00  0.00    +0.000 A 
ATOM      8  C   UNL     1      -7.515 -11.468   7.697  0.00  0.00    +0.000 A 
ENDROOT
BRANCH   5   9
ATOM      9  C   UNL     1      -6.012 -11.393  13.244  0.00  0.00    +0.000 A 
ATOM     10  C   UNL     1      -5.945 -12.598  13.959  0.00  0.00    +0.000 A 
ATOM     11  C   UNL     1      -5.672 -10.204  13.904  0.00  0.00    +0.000 A 
ATOM     12  C   UNL     1      -5.490 -12.622  15.282  0.00  0.00    +0.000 A 
ATOM     13  C   UNL     1      -5.202 -10.225  15.221  0.00  0.00    +0.000 A 
ATOM     14  C   UNL     1      -5.097 -11.437  15.908  0.00  0.00    +0.000 A 
BRANCH  14  16
ATOM     15  N   UNL     1      -4.158 -11.488  18.320  0.00  0.00    +0.000 NA
ATOM     16  C   UNL     1      -4.586 -11.462  17.245  0.00  0.00    +0.000 C 
ENDBRANCH  14  16
ENDBRANCH   5   9
BRANCH   4  18
ATOM     17  N   UNL     1      -4.854  -8.446  10.827  0.00  0.00    +0.000 NA
ATOM     18  C   UNL     1      -6.002  -8.964  11.156  0.00  0.00    +0.000 C 
BRANCH  17  19
ATOM     19  O   UNL     1      -4.081  -9.340  10.078  0.00  0.00    +0.000 OA
BRANCH  19  20
ATOM     20  C   UNL     1      -2.743  -9.373  10.574  0.00  0.00    +0.000 C 
BRANCH  20  23
ATOM     21 CL   UNL     1      -1.440 -11.253  15.263  0.00  0.00    +0.000 Cl
ATOM     22 CL   UNL     1      -2.268 -14.205  14.172  0.00  0.00    +0.000 Cl
ATOM     23  C   UNL     1      -2.643 -10.547  11.514  0.00  0.00    +0.000 A 
ATOM     24  C   UNL     1      -2.163 -10.401  12.823  0.00  0.00    +0.000 A 
ATOM     25  C   UNL     1      -3.019 -11.823  11.068  0.00  0.00    +0.000 A 
ATOM     26  C   UNL     1      -2.048 -11.515  13.664  0.00  0.00    +0.000 A 
ATOM     27  C   UNL     1      -2.907 -12.932  11.905  0.00  0.00    +0.000 A 
ATOM     28  C   UNL     1      -2.412 -12.784  13.202  0.00  0.00    +0.000 A 
ENDBRANCH  20  23
ENDBRANCH  19  20
ENDBRANCH  17  19
ENDBRANCH   4  18
TORSDOF 6
ENDMDL
MODEL 4
REMARK VINA RESULT:      -5.7     19.663     22.262
REMARK  Name = 154040920
REMARK  6 active torsions:
REMARK  status: ('A' for Active; 'I' for Inactive)
REMARK    1  A    between atoms: O_4  and  N_7
REMARK    2  A    between atoms: O_4  and  C_22
REMARK    3  A    between atoms: C_9  and  C_14
REMARK    4  A    between atoms: C_10  and  C_12
REMARK    5  A    between atoms: C_20  and  C_28
REMARK    6  A    between atoms: C_21  and  C_22
REMARK                            x       y       z     vdW  Elec       q    Type
REMARK                         _______ _______ _______ _____ _____    ______ ____
ROOT
ATOM      1  S   UNL     1     -15.784   3.627  24.689  0.00  0.00    +0.000 S 
ATOM      2  N   UNL     1     -16.228   5.912  23.601  0.00  0.00    +0.000 N 
ATOM      3  N   UNL     1     -14.137   5.283  23.128  0.00  0.00    +0.000 NA
ATOM      4  C   UNL     1     -15.717   6.942  22.848  0.00  0.00    +0.000 A 
ATOM      5  C   UNL     1     -14.410   6.524  22.569  0.00  0.00    +0.000 A 
ATOM      6  C   UNL     1     -15.242   4.984  23.749  0.00  0.00    +0.000 A 
ATOM      7  C   UNL     1     -17.434   5.570  24.178  0.00  0.00    +0.000 A 
ATOM      8  C   UNL     1     -17.373   4.395  24.823  0.00  0.00    +0.000 A 
ENDROOT
BRANCH   5   9
ATOM      9  C   UNL     1     -13.419   7.231  21.765  0.00  0.00    +0.000 A 
ATOM     10  C   UNL     1     -12.483   6.500  21.019  0.00  0.00    +0.000 A 
ATOM     11  C   UNL     1     -13.371   8.632  21.710  0.00  0.00    +0.000 A 
ATOM     12  C   UNL     1     -11.563   7.149  20.189  0.00  0.00    +0.000 A 
ATOM     13  C   UNL     1     -12.464   9.284  20.869  0.00  0.00    +0.000 A 
ATOM     14  C   UNL     1     -11.567   8.543  20.097  0.00  0.00    +0.000 A 
BRANCH  14  16
ATOM     15  N   UNL     1      -9.938   9.750  18.485  0.00  0.00    +0.000 NA
ATOM     16  C   UNL     1     -10.660   9.210  19.212  0.00  0.00    +0.000 C 
ENDBRANCH  14  16
ENDBRANCH   5   9
BRANCH   4  18
ATOM     17  N   UNL     1     -16.637   9.207  23.068  0.00  0.00    +0.000 NA
ATOM     18  C   UNL     1     -16.433   8.108  22.403  0.00  0.00    +0.000 C 
BRANCH  17  19
ATOM     19  O   UNL     1     -15.922   9.219  24.272  0.00  0.00    +0.000 OA
BRANCH  19  20
ATOM     20  C   UNL     1     -15.603  10.560  24.644  0.00  0.00    +0.000 C 
BRANCH  20  23
ATOM     21 CL   UNL     1     -12.744  10.284  28.998  0.00  0.00    +0.000 Cl
ATOM     22 CL   UNL     1     -10.097  10.606  27.133  0.00  0.00    +0.000 Cl
ATOM     23  C   UNL     1     -14.247  10.532  25.300  0.00  0.00    +0.000 A 
ATOM     24  C   UNL     1     -14.106  10.414  26.690  0.00  0.00    +0.000 A 
ATOM     25  C   UNL     1     -13.095  10.645  24.508  0.00  0.00    +0.000 A 
ATOM     26  C   UNL     1     -12.834  10.426  27.276  0.00  0.00    +0.000 A 
ATOM     27  C   UNL     1     -11.828  10.654  25.090  0.00  0.00    +0.000 A 
ATOM     28  C   UNL     1     -11.693  10.554  26.477  0.00  0.00    +0.000 A 
ENDBRANCH  20  23
ENDBRANCH  19  20
ENDBRANCH  17  19
ENDBRANCH   4  18
TORSDOF 6
ENDMDL
MODEL 5
REMARK VINA RESULT:      -5.5     28.633     29.919
REMARK  Name = 154040920
REMARK  6 active torsions:
REMARK  status: ('A' for Active; 'I' for Inactive)
REMARK    1  A    between atoms: O_4  and  N_7
REMARK    2  A    between atoms: O_4  and  C_22
REMARK    3  A    between atoms: C_9  and  C_14
REMARK    4  A    between atoms: C_10  and  C_12
REMARK    5  A    between atoms: C_20  and  C_28
REMARK    6  A    between atoms: C_21  and  C_22
REMARK                            x       y       z     vdW  Elec       q    Type
REMARK                         _______ _______ _______ _____ _____    ______ ____
ROOT
ATOM      1  S   UNL     1       2.100  20.310  20.965  0.00  0.00    +0.000 S 
ATOM      2  N   UNL     1       2.476  18.532  22.781  0.00  0.00    +0.000 N 
ATOM      3  N   UNL     1       4.341  18.724  21.566  0.00  0.00    +0.000 NA
ATOM      4  C   UNL     1       3.345  17.618  23.330  0.00  0.00    +0.000 A 
ATOM      5  C   UNL     1       4.499  17.758  22.550  0.00  0.00    +0.000 A 
ATOM      6  C   UNL     1       3.114  19.127  21.736  0.00  0.00    +0.000 A 
ATOM      7  C   UNL     1       1.206  19.009  23.032  0.00  0.00    +0.000 A 
ATOM      8  C   UNL     1       0.832  19.944  22.144  0.00  0.00    +0.000 A 
ENDROOT
BRANCH   5   9
ATOM      9  C   UNL     1       5.760  17.044  22.718  0.00  0.00    +0.000 A 
ATOM     10  C   UNL     1       6.788  17.623  23.477  0.00  0.00    +0.000 A 
ATOM     11  C   UNL     1       5.981  15.783  22.144  0.00  0.00    +0.000 A 
ATOM     12  C   UNL     1       7.983  16.933  23.710  0.00  0.00    +0.000 A 
ATOM     13  C   UNL     1       7.168  15.084  22.388  0.00  0.00    +0.000 A 
ATOM     14  C   UNL     1       8.165  15.652  23.183  0.00  0.00    +0.000 A 
BRANCH  14  16
ATOM     15  N   UNL     1      10.334  14.333  23.697  0.00  0.00    +0.000 NA
ATOM     16  C   UNL     1       9.366  14.924  23.458  0.00  0.00    +0.000 C 
ENDBRANCH  14  16
ENDBRANCH   5   9
BRANCH   4  18
ATOM     17  N   UNL     1       2.601  15.605  24.520  0.00  0.00    +0.000 NA
ATOM     18  C   UNL     1       3.103  16.805  24.492  0.00  0.00    +0.000 C 
BRANCH  17  19
ATOM     19  O   UNL     1       2.450  15.080  23.231  0.00  0.00    +0.000 OA
BRANCH  19  20
ATOM     20  C   UNL     1       1.075  14.801  22.968  0.00  0.00    +0.000 C 
BRANCH  20  23
ATOM     21 CL   UNL     1      -2.415  15.788  19.219  0.00  0.00    +0.000 Cl
ATOM     22 CL   UNL     1       0.074  16.612  17.290  0.00  0.00    +0.000 Cl
ATOM     23  C   UNL     1       0.781  15.280  21.571  0.00  0.00    +0.000 A 
ATOM     24  C   UNL     1      -0.529  15.337  21.074  0.00  0.00    +0.000 A 
ATOM     25  C   UNL     1       1.840  15.663  20.734  0.00  0.00    +0.000 A 
ATOM     26  C   UNL     1      -0.772  15.753  19.759  0.00  0.00    +0.000 A 
ATOM     27  C   UNL     1       1.600  16.080  19.425  0.00  0.00    +0.000 A 
ATOM     28  C   UNL     1       0.295  16.118  18.930  0.00  0.00    +0.000 A 
ENDBRANCH  20  23
ENDBRANCH  19  20
ENDBRANCH  17  19
ENDBRANCH   4  18
TORSDOF 6
ENDMDL
MODEL 6
REMARK VINA RESULT:      -5.5      2.505      3.000
REMARK  Name = 154040920
REMARK  6 active torsions:
REMARK  status: ('A' for Active; 'I' for Inactive)
REMARK    1  A    between atoms: O_4  and  N_7
REMARK    2  A    between atoms: O_4  and  C_22
REMARK    3  A    between atoms: C_9  and  C_14
REMARK    4  A    between atoms: C_10  and  C_12
REMARK    5  A    between atoms: C_20  and  C_28
REMARK    6  A    between atoms: C_21  and  C_22
REMARK                            x       y       z     vdW  Elec       q    Type
REMARK                         _______ _______ _______ _____ _____    ______ ____
ROOT
ATOM      1  S   UNL     1     -11.146  -6.396  16.050  0.00  0.00    +0.000 S 
ATOM      2  N   UNL     1     -10.285  -8.699  15.305  0.00  0.00    +0.000 N 
ATOM      3  N   UNL     1      -9.073  -8.007  17.049  0.00  0.00    +0.000 NA
ATOM      4  C   UNL     1      -9.371  -9.704  15.514  0.00  0.00    +0.000 A 
ATOM      5  C   UNL     1      -8.626  -9.244  16.607  0.00  0.00    +0.000 A 
ATOM      6  C   UNL     1     -10.039  -7.724  16.223  0.00  0.00    +0.000 A 
ATOM      7  C   UNL     1     -11.362  -8.456  14.477  0.00  0.00    +0.000 A 
ATOM      8  C   UNL     1     -11.925  -7.261  14.717  0.00  0.00    +0.000 A 
ENDROOT
BRANCH   5   9
ATOM      9  C   UNL     1      -7.532  -9.942  17.275  0.00  0.00    +0.000 A 
ATOM     10  C   UNL     1      -6.246  -9.911  16.715  0.00  0.00    +0.000 A 
ATOM     11  C   UNL     1      -7.724 -10.648  18.471  0.00  0.00    +0.000 A 
ATOM     12  C   UNL     1      -5.166 -10.516  17.366  0.00  0.00    +0.000 A 
ATOM     13  C   UNL     1      -6.643 -11.240  19.133  0.00  0.00    +0.000 A 
ATOM     14  C   UNL     1      -5.360 -11.163  18.588  0.00  0.00    +0.000 A 
BRANCH  14  16
ATOM     15  N   UNL     1      -3.340 -12.202  19.832  0.00  0.00    +0.000 NA
ATOM     16  C   UNL     1      -4.249 -11.742  19.281  0.00  0.00    +0.000 C 
ENDBRANCH  14  16
ENDBRANCH   5   9
BRANCH   4  18
ATOM     17  N   UNL     1      -8.895 -11.145  13.585  0.00  0.00    +0.000 NA
ATOM     18  C   UNL     1      -9.304 -10.955  14.805  0.00  0.00    +0.000 C 
BRANCH  17  19
ATOM     19  O   UNL     1      -8.346  -9.979  13.038  0.00  0.00    +0.000 OA
BRANCH  19  20
ATOM     20  C   UNL     1      -8.990  -9.661  11.805  0.00  0.00    +0.000 C 
BRANCH  20  23
ATOM     21 CL   UNL     1      -4.205  -8.715   9.957  0.00  0.00    +0.000 Cl
ATOM     22 CL   UNL     1      -5.062 -10.325   7.261  0.00  0.00    +0.000 Cl
ATOM     23  C   UNL     1      -7.970  -9.834  10.710  0.00  0.00    +0.000 A 
ATOM     24  C   UNL     1      -6.685  -9.283  10.809  0.00  0.00    +0.000 A 
ATOM     25  C   UNL     1      -8.315 -10.546   9.551  0.00  0.00    +0.000 A 
ATOM     26  C   UNL     1      -5.768  -9.430   9.761  0.00  0.00    +0.000 A 
ATOM     27  C   UNL     1      -7.403 -10.695   8.508  0.00  0.00    +0.000 A 
ATOM     28  C   UNL     1      -6.129 -10.130   8.605  0.00  0.00    +0.000 A 
ENDBRANCH  20  23
ENDBRANCH  19  20
ENDBRANCH  17  19
ENDBRANCH   4  18
TORSDOF 6
ENDMDL
MODEL 7
REMARK VINA RESULT:      -5.4     28.766     30.166
REMARK  Name = 154040920
REMARK  6 active torsions:
REMARK  status: ('A' for Active; 'I' for Inactive)
REMARK    1  A    between atoms: O_4  and  N_7
REMARK    2  A    between atoms: O_4  and  C_22
REMARK    3  A    between atoms: C_9  and  C_14
REMARK    4  A    between atoms: C_10  and  C_12
REMARK    5  A    between atoms: C_20  and  C_28
REMARK    6  A    between atoms: C_21  and  C_22
REMARK                            x       y       z     vdW  Elec       q    Type
REMARK                         _______ _______ _______ _____ _____    ______ ____
ROOT
ATOM      1  S   UNL     1       2.094  21.006  23.440  0.00  0.00    +0.000 S 
ATOM      2  N   UNL     1       2.280  18.507  24.006  0.00  0.00    +0.000 N 
ATOM      3  N   UNL     1       4.183  19.170  23.042  0.00  0.00    +0.000 NA
ATOM      4  C   UNL     1       3.058  17.374  23.957  0.00  0.00    +0.000 A 
ATOM      5  C   UNL     1       4.239  17.818  23.348  0.00  0.00    +0.000 A 
ATOM      6  C   UNL     1       2.989  19.517  23.430  0.00  0.00    +0.000 A 
ATOM      7  C   UNL     1       1.047  18.876  24.504  0.00  0.00    +0.000 A 
ATOM      8  C   UNL     1       0.772  20.169  24.267  0.00  0.00    +0.000 A 
ENDROOT
BRANCH   5   9
ATOM      9  C   UNL     1       5.433  17.024  23.077  0.00  0.00    +0.000 A 
ATOM     10  C   UNL     1       5.399  16.043  22.075  0.00  0.00    +0.000 A 
ATOM     11  C   UNL     1       6.626  17.213  23.789  0.00  0.00    +0.000 A 
ATOM     12  C   UNL     1       6.547  15.312  21.748  0.00  0.00    +0.000 A 
ATOM     13  C   UNL     1       7.780  16.495  23.455  0.00  0.00    +0.000 A 
ATOM     14  C   UNL     1       7.745  15.553  22.425  0.00  0.00    +0.000 A 
BRANCH  14  16
ATOM     15  N   UNL     1       9.901  14.269  21.783  0.00  0.00    +0.000 NA
ATOM     16  C   UNL     1       8.933  14.842  22.062  0.00  0.00    +0.000 C 
ENDBRANCH  14  16
ENDBRANCH   5   9
BRANCH   4  18
ATOM     17  N   UNL     1       2.047  15.138  23.925  0.00  0.00    +0.000 NA
ATOM     18  C   UNL     1       2.723  16.087  24.505  0.00  0.00    +0.000 C 
BRANCH  17  19
ATOM     19  O   UNL     1       1.790  15.437  22.581  0.00  0.00    +0.000 OA
BRANCH  19  20
ATOM     20  C   UNL     1       0.754  14.595  22.077  0.00  0.00    +0.000 C 
BRANCH  20  23
ATOM     21 CL   UNL     1      -1.762  19.161  21.902  0.00  0.00    +0.000 Cl
ATOM     22 CL   UNL     1      -3.455  17.991  19.381  0.00  0.00    +0.000 Cl
ATOM     23  C   UNL     1      -0.262  15.486  21.411  0.00  0.00    +0.000 A 
ATOM     24  C   UNL     1      -0.522  16.782  21.878  0.00  0.00    +0.000 A 
ATOM     25  C   UNL     1      -0.984  15.006  20.307  0.00  0.00    +0.000 A 
ATOM     26  C   UNL     1      -1.497  17.576  21.262  0.00  0.00    +0.000 A 
ATOM     27  C   UNL     1      -1.953  15.796  19.691  0.00  0.00    +0.000 A 
ATOM     28  C   UNL     1      -2.219  17.080  20.171  0.00  0.00    +0.000 A 
ENDBRANCH  20  23
ENDBRANCH  19  20
ENDBRANCH  17  19
ENDBRANCH   4  18
TORSDOF 6
ENDMDL
MODEL 8
REMARK VINA RESULT:      -5.4     28.834     30.286
REMARK  Name = 154040920
REMARK  6 active torsions:
REMARK  status: ('A' for Active; 'I' for Inactive)
REMARK    1  A    between atoms: O_4  and  N_7
REMARK    2  A    between atoms: O_4  and  C_22
REMARK    3  A    between atoms: C_9  and  C_14
REMARK    4  A    between atoms: C_10  and  C_12
REMARK    5  A    between atoms: C_20  and  C_28
REMARK    6  A    between atoms: C_21  and  C_22
REMARK                            x       y       z     vdW  Elec       q    Type
REMARK                         _______ _______ _______ _____ _____    ______ ____
ROOT
ATOM      1  S   UNL     1      15.562  13.975  23.053  0.00  0.00    +0.000 S 
ATOM      2  N   UNL     1      13.381  12.935  23.925  0.00  0.00    +0.000 N 
ATOM      3  N   UNL     1      12.880  14.733  22.697  0.00  0.00    +0.000 NA
ATOM      4  C   UNL     1      12.009  13.018  23.974  0.00  0.00    +0.000 A 
ATOM      5  C   UNL     1      11.725  14.151  23.201  0.00  0.00    +0.000 A 
ATOM      6  C   UNL     1      13.829  13.984  23.182  0.00  0.00    +0.000 A 
ATOM      7  C   UNL     1      14.367  12.080  24.374  0.00  0.00    +0.000 A 
ATOM      8  C   UNL     1      15.595  12.496  24.024  0.00  0.00    +0.000 A 
ENDROOT
BRANCH   5   9
ATOM      9  C   UNL     1      10.404  14.686  22.887  0.00  0.00    +0.000 A 
ATOM     10  C   UNL     1       9.841  14.444  21.625  0.00  0.00    +0.000 A 
ATOM     11  C   UNL     1       9.669  15.438  23.815  0.00  0.00    +0.000 A 
ATOM     12  C   UNL     1       8.550  14.889  21.319  0.00  0.00    +0.000 A 
ATOM     13  C   UNL     1       8.372  15.870  23.518  0.00  0.00    +0.000 A 
ATOM     14  C   UNL     1       7.806  15.584  22.274  0.00  0.00    +0.000 A 
BRANCH  14  16
ATOM     15  N   UNL     1       5.378  16.324  21.758  0.00  0.00    +0.000 NA
ATOM     16  C   UNL     1       6.467  15.999  21.982  0.00  0.00    +0.000 C 
ENDBRANCH  14  16
ENDBRANCH   5   9
BRANCH   4  18
ATOM     17  N   UNL     1      10.584  11.022  24.070  0.00  0.00    +0.000 NA
ATOM     18  C   UNL     1      11.121  12.079  24.606  0.00  0.00    +0.000 C 
BRANCH  17  19
ATOM     19  O   UNL     1      11.100  10.775  22.793  0.00  0.00    +0.000 OA
BRANCH  19  20
ATOM     20  C   UNL     1      10.724   9.471  22.352  0.00  0.00    +0.000 C 
BRANCH  20  23
ATOM     21 CL   UNL     1      15.442   9.351  20.131  0.00  0.00    +0.000 Cl
ATOM     22 CL   UNL     1      14.012   8.209  17.441  0.00  0.00    +0.000 Cl
ATOM     23  C   UNL     1      11.583   9.136  21.161  0.00  0.00    +0.000 A 
ATOM     24  C   UNL     1      12.969   9.346  21.173  0.00  0.00    +0.000 A 
ATOM     25  C   UNL     1      10.986   8.619  20.001  0.00  0.00    +0.000 A 
ATOM     26  C   UNL     1      13.740   9.058  20.039  0.00  0.00    +0.000 A 
ATOM     27  C   UNL     1      11.752   8.330  18.872  0.00  0.00    +0.000 A 
ATOM     28  C   UNL     1      13.130   8.557  18.884  0.00  0.00    +0.000 A 
ENDBRANCH  20  23
ENDBRANCH  19  20
ENDBRANCH  17  19
ENDBRANCH   4  18
TORSDOF 6
ENDMDL
MODEL 9
REMARK VINA RESULT:      -5.3     19.111     21.028
REMARK  Name = 154040920
REMARK  6 active torsions:
REMARK  status: ('A' for Active; 'I' for Inactive)
REMARK    1  A    between atoms: O_4  and  N_7
REMARK    2  A    between atoms: O_4  and  C_22
REMARK    3  A    between atoms: C_9  and  C_14
REMARK    4  A    between atoms: C_10  and  C_12
REMARK    5  A    between atoms: C_20  and  C_28
REMARK    6  A    between atoms: C_21  and  C_22
REMARK                            x       y       z     vdW  Elec       q    Type
REMARK                         _______ _______ _______ _____ _____    ______ ____
ROOT
ATOM      1  S   UNL     1     -15.739   3.678  25.019  0.00  0.00    +0.000 S 
ATOM      2  N   UNL     1     -16.040   4.584  22.634  0.00  0.00    +0.000 N 
ATOM      3  N   UNL     1     -14.153   5.420  23.488  0.00  0.00    +0.000 NA
ATOM      4  C   UNL     1     -15.537   5.389  21.641  0.00  0.00    +0.000 A 
ATOM      5  C   UNL     1     -14.359   5.900  22.202  0.00  0.00    +0.000 A 
ATOM      6  C   UNL     1     -15.195   4.667  23.698  0.00  0.00    +0.000 A 
ATOM      7  C   UNL     1     -17.104   3.721  22.806  0.00  0.00    +0.000 A 
ATOM      8  C   UNL     1     -17.115   3.169  24.030  0.00  0.00    +0.000 A 
ENDROOT
BRANCH   5   9
ATOM      9  C   UNL     1     -13.402   6.795  21.561  0.00  0.00    +0.000 A 
ATOM     10  C   UNL     1     -12.415   6.263  20.717  0.00  0.00    +0.000 A 
ATOM     11  C   UNL     1     -13.436   8.183  21.759  0.00  0.00    +0.000 A 
ATOM     12  C   UNL     1     -11.525   7.102  20.037  0.00  0.00    +0.000 A 
ATOM     13  C   UNL     1     -12.558   9.026  21.070  0.00  0.00    +0.000 A 
ATOM     14  C   UNL     1     -11.610   8.487  20.197  0.00  0.00    +0.000 A 
BRANCH  14  16
ATOM     15  N   UNL     1     -10.028  10.044  18.863  0.00  0.00    +0.000 NA
ATOM     16  C   UNL     1     -10.732   9.352  19.467  0.00  0.00    +0.000 C 
ENDBRANCH  14  16
ENDBRANCH   5   9
BRANCH   4  18
ATOM     17  N   UNL     1     -16.755   6.575  19.871  0.00  0.00    +0.000 NA
ATOM     18  C   UNL     1     -16.083   5.556  20.320  0.00  0.00    +0.000 C 
BRANCH  17  19
ATOM     19  O   UNL     1     -16.768   7.629  20.792  0.00  0.00    +0.000 OA
BRANCH  19  20
ATOM     20  C   UNL     1     -17.347   8.793  20.204  0.00  0.00    +0.000 C 
BRANCH  20  23
ATOM     21 CL   UNL     1     -13.386   9.629  16.914  0.00  0.00    +0.000 Cl
ATOM     22 CL   UNL     1     -12.750  12.358  18.568  0.00  0.00    +0.000 Cl
ATOM     23  C   UNL     1     -16.214   9.672  19.743  0.00  0.00    +0.000 A 
ATOM     24  C   UNL     1     -15.407   9.319  18.652  0.00  0.00    +0.000 A 
ATOM     25  C   UNL     1     -15.941  10.865  20.429  0.00  0.00    +0.000 A 
ATOM     26  C   UNL     1     -14.338  10.138  18.266  0.00  0.00    +0.000 A 
ATOM     27  C   UNL     1     -14.878  11.682  20.045  0.00  0.00    +0.000 A 
ATOM     28  C   UNL     1     -14.068  11.317  18.968  0.00  0.00    +0.000 A 
ENDBRANCH  20  23
ENDBRANCH  19  20
ENDBRANCH  17  19
ENDBRANCH   4  18
TORSDOF 6
ENDMDL
MODEL 10
REMARK VINA RESULT:      -5.3     19.290     21.926
REMARK  Name = 154040920
REMARK  6 active torsions:
REMARK  status: ('A' for Active; 'I' for Inactive)
REMARK    1  A    between atoms: O_4  and  N_7
REMARK    2  A    between atoms: O_4  and  C_22
REMARK    3  A    between atoms: C_9  and  C_14
REMARK    4  A    between atoms: C_10  and  C_12
REMARK    5  A    between atoms: C_20  and  C_28
REMARK    6  A    between atoms: C_21  and  C_22
REMARK                            x       y       z     vdW  Elec       q    Type
REMARK                         _______ _______ _______ _____ _____    ______ ____
ROOT
ATOM      1  S   UNL     1     -18.123   0.007  23.272  0.00  0.00    +0.000 S 
ATOM      2  N   UNL     1     -18.973   0.457  25.654  0.00  0.00    +0.000 N 
ATOM      3  N   UNL     1     -16.772   0.837  25.592  0.00  0.00    +0.000 NA
ATOM      4  C   UNL     1     -18.648   0.826  26.938  0.00  0.00    +0.000 A 
ATOM      5  C   UNL     1     -17.267   1.054  26.870  0.00  0.00    +0.000 A 
ATOM      6  C   UNL     1     -17.824   0.459  24.923  0.00  0.00    +0.000 A 
ATOM      7  C   UNL     1     -20.113   0.146  24.941  0.00  0.00    +0.000 A 
ATOM      8  C   UNL     1     -19.843  -0.148  23.659  0.00  0.00    +0.000 A 
ENDROOT
BRANCH   5   9
ATOM      9  C   UNL     1     -16.402   1.505  27.955  0.00  0.00    +0.000 A 
ATOM     10  C   UNL     1     -15.869   2.802  27.922  0.00  0.00    +0.000 A 
ATOM     11  C   UNL     1     -16.083   0.679  29.042  0.00  0.00    +0.000 A 
ATOM     12  C   UNL     1     -15.089   3.285  28.979  0.00  0.00    +0.000 A 
ATOM     13  C   UNL     1     -15.318   1.163  30.109  0.00  0.00    +0.000 A 
ATOM     14  C   UNL     1     -14.831   2.471  30.084  0.00  0.00    +0.000 A 
BRANCH  14  16
ATOM     15  N   UNL     1     -13.454   3.395  32.074  0.00  0.00    +0.000 NA
ATOM     16  C   UNL     1     -14.074   2.976  31.190  0.00  0.00    +0.000 C 
ENDBRANCH  14  16
ENDBRANCH   5   9
BRANCH   4  18
ATOM     17  N   UNL     1     -19.917   2.134  28.580  0.00  0.00    +0.000 NA
ATOM     18  C   UNL     1     -19.566   1.009  28.030  0.00  0.00    +0.000 C 
BRANCH  17  19
ATOM     19  O   UNL     1     -19.413   3.232  27.873  0.00  0.00    +0.000 OA
BRANCH  19  20
ATOM     20  C   UNL     1     -19.811   4.450  28.502  0.00  0.00    +0.000 C 
BRANCH  20  23
ATOM     21 CL   UNL     1     -17.105   4.054  32.943  0.00  0.00    +0.000 Cl
ATOM     22 CL   UNL     1     -15.238   6.498  31.880  0.00  0.00    +0.000 Cl
ATOM     23  C   UNL     1     -18.660   4.909  29.359  0.00  0.00    +0.000 A 
ATOM     24  C   UNL     1     -18.406   4.337  30.613  0.00  0.00    +0.000 A 
ATOM     25  C   UNL     1     -17.831   5.945  28.904  0.00  0.00    +0.000 A 
ATOM     26  C   UNL     1     -17.349   4.806  31.405  0.00  0.00    +0.000 A 
ATOM     27  C   UNL     1     -16.777   6.411  29.690  0.00  0.00    +0.000 A 
ATOM     28  C   UNL     1     -16.538   5.850  30.946  0.00  0.00    +0.000 A 
ENDBRANCH  20  23
ENDBRANCH  19  20
ENDBRANCH  17  19
ENDBRANCH   4  18
TORSDOF 6
ENDMDL
