MODEL 1
REMARK VINA RESULT:      -5.8      0.000      0.000
REMARK  Name = 154040927
REMARK  5 active torsions:
REMARK  status: ('A' for Active; 'I' for Inactive)
REMARK    1  A    between atoms: O_4  and  N_7
REMARK    2  A    between atoms: O_4  and  C_24
REMARK    3  A    between atoms: C_8  and  C_9
REMARK    4  A    between atoms: C_10  and  C_20
REMARK    5  A    between atoms: C_24  and  C_25
REMARK                            x       y       z     vdW  Elec       q    Type
REMARK                         _______ _______ _______ _____ _____    ______ ____
ROOT
ATOM      1  S   UNL     1     -24.108   9.404 -51.039  0.00  0.00    +0.000 S 
ATOM      2  N   UNL     1     -23.440   9.982 -53.455  0.00  0.00    +0.000 N 
ATOM      3  N   UNL     1     -22.623   7.976 -52.938  0.00  0.00    +0.000 NA
ATOM      4  C   UNL     1     -22.276   8.309 -54.240  0.00  0.00    +0.000 A 
ATOM      5  C   UNL     1     -22.762   9.583 -54.583  0.00  0.00    +0.000 A 
ATOM      6  C   UNL     1     -23.308   8.999 -52.526  0.00  0.00    +0.000 A 
ATOM      7  C   UNL     1     -24.192  11.064 -53.036  0.00  0.00    +0.000 A 
ATOM      8  C   UNL     1     -24.595  10.940 -51.762  0.00  0.00    +0.000 A 
ENDROOT
BRANCH   4   9
ATOM      9  C   UNL     1     -21.433   7.423 -55.056  0.00  0.00    +0.000 A 
ATOM     10  C   UNL     1     -21.873   6.129 -55.491  0.00  0.00    +0.000 A 
ATOM     11  C   UNL     1     -20.968   5.309 -56.217  0.00  0.00    +0.000 A 
ATOM     12  C   UNL     1     -20.118   7.836 -55.354  0.00  0.00    +0.000 A 
ATOM     13  C   UNL     1     -23.165   5.584 -55.253  0.00  0.00    +0.000 A 
ATOM     14  C   UNL     1     -19.679   5.772 -56.510  0.00  0.00    +0.000 A 
ATOM     15  C   UNL     1     -19.257   7.027 -56.087  0.00  0.00    +0.000 A 
ATOM     16  C   UNL     1     -21.343   4.020 -56.632  0.00  0.00    +0.000 A 
ATOM     17  C   UNL     1     -23.521   4.297 -55.665  0.00  0.00    +0.000 A 
ATOM     18  C   UNL     1     -22.609   3.513 -56.352  0.00  0.00    +0.000 A 
ENDBRANCH   4   9
BRANCH   5  20
ATOM     19  N   UNL     1     -23.220  10.035 -56.957  0.00  0.00    +0.000 NA
ATOM     20  C   UNL     1     -22.653  10.323 -55.816  0.00  0.00    +0.000 C 
BRANCH  19  21
ATOM     21  O   UNL     1     -24.134   8.984 -56.821  0.00  0.00    +0.000 OA
BRANCH  21  22
ATOM     22  C   UNL     1     -24.847   8.776 -58.038  0.00  0.00    +0.000 C 
BRANCH  22  25
ATOM     23 CL   UNL     1     -26.113   3.779 -58.863  0.00  0.00    +0.000 Cl
ATOM     24 CL   UNL     1     -23.067   3.309 -59.904  0.00  0.00    +0.000 Cl
ATOM     25  C   UNL     1     -24.463   7.408 -58.547  0.00  0.00    +0.000 A 
ATOM     26  C   UNL     1     -25.360   6.331 -58.519  0.00  0.00    +0.000 A 
ATOM     27  C   UNL     1     -23.164   7.195 -59.035  0.00  0.00    +0.000 A 
ATOM     28  C   UNL     1     -24.955   5.060 -58.944  0.00  0.00    +0.000 A 
ATOM     29  C   UNL     1     -22.760   5.931 -59.462  0.00  0.00    +0.000 A 
ATOM     30  C   UNL     1     -23.649   4.857 -59.406  0.00  0.00    +0.000 A 
ENDBRANCH  22  25
ENDBRANCH  21  22
ENDBRANCH  19  21
ENDBRANCH   5  20
TORSDOF 5
ENDMDL
MODEL 2
REMARK VINA RESULT:      -5.2      4.565      6.451
REMARK  Name = 154040927
REMARK  5 active torsions:
REMARK  status: ('A' for Active; 'I' for Inactive)
REMARK    1  A    between atoms: O_4  and  N_7
REMARK    2  A    between atoms: O_4  and  C_24
REMARK    3  A    between atoms: C_8  and  C_9
REMARK    4  A    between atoms: C_10  and  C_20
REMARK    5  A    between atoms: C_24  and  C_25
REMARK                            x       y       z     vdW  Elec       q    Type
REMARK                         _______ _______ _______ _____ _____    ______ ____
ROOT
ATOM      1  S   UNL     1     -26.169  10.367 -54.527  0.00  0.00    +0.000 S 
ATOM      2  N   UNL     1     -24.450   9.024 -53.164  0.00  0.00    +0.000 N 
ATOM      3  N   UNL     1     -24.381   8.348 -55.285  0.00  0.00    +0.000 NA
ATOM      4  C   UNL     1     -23.459   7.637 -54.530  0.00  0.00    +0.000 A 
ATOM      5  C   UNL     1     -23.499   8.030 -53.180  0.00  0.00    +0.000 A 
ATOM      6  C   UNL     1     -24.935   9.150 -54.428  0.00  0.00    +0.000 A 
ATOM      7  C   UNL     1     -25.013   9.893 -52.248  0.00  0.00    +0.000 A 
ATOM      8  C   UNL     1     -25.974  10.654 -52.795  0.00  0.00    +0.000 A 
ENDROOT
BRANCH   4   9
ATOM      9  C   UNL     1     -22.645   6.567 -55.126  0.00  0.00    +0.000 A 
ATOM     10  C   UNL     1     -21.278   6.765 -55.510  0.00  0.00    +0.000 A 
ATOM     11  C   UNL     1     -20.586   5.698 -56.144  0.00  0.00    +0.000 A 
ATOM     12  C   UNL     1     -23.262   5.329 -55.398  0.00  0.00    +0.000 A 
ATOM     13  C   UNL     1     -20.537   7.961 -55.305  0.00  0.00    +0.000 A 
ATOM     14  C   UNL     1     -21.234   4.477 -56.372  0.00  0.00    +0.000 A 
ATOM     15  C   UNL     1     -22.559   4.290 -55.998  0.00  0.00    +0.000 A 
ATOM     16  C   UNL     1     -19.256   5.857 -56.570  0.00  0.00    +0.000 A 
ATOM     17  C   UNL     1     -19.218   8.109 -55.741  0.00  0.00    +0.000 A 
ATOM     18  C   UNL     1     -18.578   7.057 -56.377  0.00  0.00    +0.000 A 
ENDBRANCH   4   9
BRANCH   5  20
ATOM     19  N   UNL     1     -23.092   6.717 -51.140  0.00  0.00    +0.000 NA
ATOM     20  C   UNL     1     -22.724   7.578 -52.053  0.00  0.00    +0.000 C 
BRANCH  19  21
ATOM     21  O   UNL     1     -24.307   6.109 -51.475  0.00  0.00    +0.000 OA
BRANCH  21  22
ATOM     22  C   UNL     1     -25.172   6.057 -50.343  0.00  0.00    +0.000 C 
BRANCH  22  25
ATOM     23 CL   UNL     1     -25.994   2.608 -46.511  0.00  0.00    +0.000 Cl
ATOM     24 CL   UNL     1     -24.993   0.285 -48.556  0.00  0.00    +0.000 Cl
ATOM     25  C   UNL     1     -25.196   4.623 -49.872  0.00  0.00    +0.000 A 
ATOM     26  C   UNL     1     -25.575   4.282 -48.566  0.00  0.00    +0.000 A 
ATOM     27  C   UNL     1     -24.804   3.603 -50.753  0.00  0.00    +0.000 A 
ATOM     28  C   UNL     1     -25.531   2.948 -48.141  0.00  0.00    +0.000 A 
ATOM     29  C   UNL     1     -24.763   2.275 -50.333  0.00  0.00    +0.000 A 
ATOM     30  C   UNL     1     -25.114   1.943 -49.023  0.00  0.00    +0.000 A 
ENDBRANCH  22  25
ENDBRANCH  21  22
ENDBRANCH  19  21
ENDBRANCH   5  20
TORSDOF 5
ENDMDL
MODEL 3
REMARK VINA RESULT:      -5.2     18.099     20.368
REMARK  Name = 154040927
REMARK  5 active torsions:
REMARK  status: ('A' for Active; 'I' for Inactive)
REMARK    1  A    between atoms: O_4  and  N_7
REMARK    2  A    between atoms: O_4  and  C_24
REMARK    3  A    between atoms: C_8  and  C_9
REMARK    4  A    between atoms: C_10  and  C_20
REMARK    5  A    between atoms: C_24  and  C_25
REMARK                            x       y       z     vdW  Elec       q    Type
REMARK                         _______ _______ _______ _____ _____    ______ ____
ROOT
ATOM      1  S   UNL     1      -0.697  -1.048 -54.763  0.00  0.00    +0.000 S 
ATOM      2  N   UNL     1      -2.241   0.373 -53.276  0.00  0.00    +0.000 N 
ATOM      3  N   UNL     1      -3.444  -1.231 -54.244  0.00  0.00    +0.000 NA
ATOM      4  C   UNL     1      -4.257  -0.451 -53.434  0.00  0.00    +0.000 A 
ATOM      5  C   UNL     1      -3.525   0.584 -52.828  0.00  0.00    +0.000 A 
ATOM      6  C   UNL     1      -2.268  -0.699 -54.111  0.00  0.00    +0.000 A 
ATOM      7  C   UNL     1      -0.988   0.931 -53.104  0.00  0.00    +0.000 A 
ATOM      8  C   UNL     1      -0.055   0.322 -53.853  0.00  0.00    +0.000 A 
ENDROOT
BRANCH   4   9
ATOM      9  C   UNL     1      -5.705  -0.693 -53.346  0.00  0.00    +0.000 A 
ATOM     10  C   UNL     1      -6.271  -1.647 -52.437  0.00  0.00    +0.000 A 
ATOM     11  C   UNL     1      -7.674  -1.869 -52.466  0.00  0.00    +0.000 A 
ATOM     12  C   UNL     1      -6.554  -0.015 -54.244  0.00  0.00    +0.000 A 
ATOM     13  C   UNL     1      -5.534  -2.406 -51.486  0.00  0.00    +0.000 A 
ATOM     14  C   UNL     1      -8.480  -1.153 -53.360  0.00  0.00    +0.000 A 
ATOM     15  C   UNL     1      -7.927  -0.230 -54.239  0.00  0.00    +0.000 A 
ATOM     16  C   UNL     1      -8.269  -2.820 -51.619  0.00  0.00    +0.000 A 
ATOM     17  C   UNL     1      -6.137  -3.354 -50.655  0.00  0.00    +0.000 A 
ATOM     18  C   UNL     1      -7.504  -3.563 -50.724  0.00  0.00    +0.000 A 
ENDBRANCH   4   9
BRANCH   5  20
ATOM     19  N   UNL     1      -4.448   2.782 -52.219  0.00  0.00    +0.000 NA
ATOM     20  C   UNL     1      -3.946   1.615 -51.912  0.00  0.00    +0.000 C 
BRANCH  19  21
ATOM     21  O   UNL     1      -4.717   2.875 -53.590  0.00  0.00    +0.000 OA
BRANCH  21  22
ATOM     22  C   UNL     1      -5.554   3.996 -53.863  0.00  0.00    +0.000 C 
BRANCH  22  25
ATOM     23 CL   UNL     1      -3.194   4.928 -58.426  0.00  0.00    +0.000 Cl
ATOM     24 CL   UNL     1      -2.202   7.768 -57.190  0.00  0.00    +0.000 Cl
ATOM     25  C   UNL     1      -4.766   4.930 -54.748  0.00  0.00    +0.000 A 
ATOM     26  C   UNL     1      -4.401   4.577 -56.055  0.00  0.00    +0.000 A 
ATOM     27  C   UNL     1      -4.361   6.177 -54.245  0.00  0.00    +0.000 A 
ATOM     28  C   UNL     1      -3.620   5.442 -56.831  0.00  0.00    +0.000 A 
ATOM     29  C   UNL     1      -3.587   7.041 -55.018  0.00  0.00    +0.000 A 
ATOM     30  C   UNL     1      -3.202   6.672 -56.308  0.00  0.00    +0.000 A 
ENDBRANCH  22  25
ENDBRANCH  21  22
ENDBRANCH  19  21
ENDBRANCH   5  20
TORSDOF 5
ENDMDL
MODEL 4
REMARK VINA RESULT:      -5.2      3.613      5.460
REMARK  Name = 154040927
REMARK  5 active torsions:
REMARK  status: ('A' for Active; 'I' for Inactive)
REMARK    1  A    between atoms: O_4  and  N_7
REMARK    2  A    between atoms: O_4  and  C_24
REMARK    3  A    between atoms: C_8  and  C_9
REMARK    4  A    between atoms: C_10  and  C_20
REMARK    5  A    between atoms: C_24  and  C_25
REMARK                            x       y       z     vdW  Elec       q    Type
REMARK                         _______ _______ _______ _____ _____    ______ ____
ROOT
ATOM      1  S   UNL     1     -26.739   9.530 -54.838  0.00  0.00    +0.000 S 
ATOM      2  N   UNL     1     -25.006   8.328 -53.367  0.00  0.00    +0.000 N 
ATOM      3  N   UNL     1     -24.667   7.762 -55.494  0.00  0.00    +0.000 NA
ATOM      4  C   UNL     1     -23.741   7.125 -54.680  0.00  0.00    +0.000 A 
ATOM      5  C   UNL     1     -23.948   7.449 -53.328  0.00  0.00    +0.000 A 
ATOM      6  C   UNL     1     -25.385   8.457 -54.665  0.00  0.00    +0.000 A 
ATOM      7  C   UNL     1     -25.746   9.086 -52.478  0.00  0.00    +0.000 A 
ATOM      8  C   UNL     1     -26.736   9.758 -53.087  0.00  0.00    +0.000 A 
ENDROOT
BRANCH   4   9
ATOM      9  C   UNL     1     -22.758   6.182 -55.234  0.00  0.00    +0.000 A 
ATOM     10  C   UNL     1     -21.415   6.571 -55.551  0.00  0.00    +0.000 A 
ATOM     11  C   UNL     1     -20.551   5.614 -56.149  0.00  0.00    +0.000 A 
ATOM     12  C   UNL     1     -23.181   4.871 -55.532  0.00  0.00    +0.000 A 
ATOM     13  C   UNL     1     -20.859   7.858 -55.315  0.00  0.00    +0.000 A 
ATOM     14  C   UNL     1     -21.009   4.315 -56.404  0.00  0.00    +0.000 A 
ATOM     15  C   UNL     1     -22.312   3.943 -56.094  0.00  0.00    +0.000 A 
ATOM     16  C   UNL     1     -19.237   5.959 -56.511  0.00  0.00    +0.000 A 
ATOM     17  C   UNL     1     -19.554   8.190 -55.687  0.00  0.00    +0.000 A 
ATOM     18  C   UNL     1     -18.743   7.241 -56.288  0.00  0.00    +0.000 A 
ENDBRANCH   4   9
BRANCH   5  20
ATOM     19  N   UNL     1     -23.662   6.242 -51.203  0.00  0.00    +0.000 NA
ATOM     20  C   UNL     1     -23.230   7.036 -52.148  0.00  0.00    +0.000 C 
BRANCH  19  21
ATOM     21  O   UNL     1     -24.886   5.659 -51.548  0.00  0.00    +0.000 OA
BRANCH  21  22
ATOM     22  C   UNL     1     -25.198   4.584 -50.665  0.00  0.00    +0.000 C 
BRANCH  22  25
ATOM     23 CL   UNL     1     -24.367  -0.560 -50.988  0.00  0.00    +0.000 Cl
ATOM     24 CL   UNL     1     -25.020  -0.339 -54.167  0.00  0.00    +0.000 Cl
ATOM     25  C   UNL     1     -25.196   3.321 -51.490  0.00  0.00    +0.000 A 
ATOM     26  C   UNL     1     -24.858   2.078 -50.935  0.00  0.00    +0.000 A 
ATOM     27  C   UNL     1     -25.512   3.390 -52.856  0.00  0.00    +0.000 A 
ATOM     28  C   UNL     1     -24.809   0.932 -51.740  0.00  0.00    +0.000 A 
ATOM     29  C   UNL     1     -25.468   2.250 -53.657  0.00  0.00    +0.000 A 
ATOM     30  C   UNL     1     -25.104   1.021 -53.106  0.00  0.00    +0.000 A 
ENDBRANCH  22  25
ENDBRANCH  21  22
ENDBRANCH  19  21
ENDBRANCH   5  20
TORSDOF 5
ENDMDL
MODEL 5
REMARK VINA RESULT:      -5.0      3.729      5.914
REMARK  Name = 154040927
REMARK  5 active torsions:
REMARK  status: ('A' for Active; 'I' for Inactive)
REMARK    1  A    between atoms: O_4  and  N_7
REMARK    2  A    between atoms: O_4  and  C_24
REMARK    3  A    between atoms: C_8  and  C_9
REMARK    4  A    between atoms: C_10  and  C_20
REMARK    5  A    between atoms: C_24  and  C_25
REMARK                            x       y       z     vdW  Elec       q    Type
REMARK                         _______ _______ _______ _____ _____    ______ ____
ROOT
ATOM      1  S   UNL     1     -25.114   0.822 -56.107  0.00  0.00    +0.000 S 
ATOM      2  N   UNL     1     -24.248   2.617 -57.733  0.00  0.00    +0.000 N 
ATOM      3  N   UNL     1     -23.295   2.920 -55.743  0.00  0.00    +0.000 NA
ATOM      4  C   UNL     1     -22.840   3.879 -56.639  0.00  0.00    +0.000 A 
ATOM      5  C   UNL     1     -23.445   3.722 -57.898  0.00  0.00    +0.000 A 
ATOM      6  C   UNL     1     -24.121   2.205 -56.444  0.00  0.00    +0.000 A 
ATOM      7  C   UNL     1     -25.103   1.845 -58.497  0.00  0.00    +0.000 A 
ATOM      8  C   UNL     1     -25.681   0.868 -57.779  0.00  0.00    +0.000 A 
ENDROOT
BRANCH   4   9
ATOM      9  C   UNL     1     -21.911   4.938 -56.218  0.00  0.00    +0.000 A 
ATOM     10  C   UNL     1     -22.313   6.021 -55.369  0.00  0.00    +0.000 A 
ATOM     11  C   UNL     1     -21.370   7.040 -55.069  0.00  0.00    +0.000 A 
ATOM     12  C   UNL     1     -20.599   4.923 -56.735  0.00  0.00    +0.000 A 
ATOM     13  C   UNL     1     -23.603   6.167 -54.787  0.00  0.00    +0.000 A 
ATOM     14  C   UNL     1     -20.070   6.969 -55.586  0.00  0.00    +0.000 A 
ATOM     15  C   UNL     1     -19.685   5.917 -56.409  0.00  0.00    +0.000 A 
ATOM     16  C   UNL     1     -21.729   8.139 -54.270  0.00  0.00    +0.000 A 
ATOM     17  C   UNL     1     -23.949   7.269 -54.001  0.00  0.00    +0.000 A 
ATOM     18  C   UNL     1     -23.013   8.257 -53.745  0.00  0.00    +0.000 A 
ENDBRANCH   4   9
BRANCH   5  20
ATOM     19  N   UNL     1     -23.728   5.667 -59.378  0.00  0.00    +0.000 NA
ATOM     20  C   UNL     1     -23.270   4.471 -59.118  0.00  0.00    +0.000 C 
BRANCH  19  21
ATOM     21  O   UNL     1     -24.283   6.259 -58.237  0.00  0.00    +0.000 OA
BRANCH  21  22
ATOM     22  C   UNL     1     -24.801   7.551 -58.542  0.00  0.00    +0.000 C 
BRANCH  22  25
ATOM     23 CL   UNL     1     -19.856   9.217 -58.369  0.00  0.00    +0.000 Cl
ATOM     24 CL   UNL     1     -20.842  11.539 -56.316  0.00  0.00    +0.000 Cl
ATOM     25  C   UNL     1     -23.789   8.558 -58.055  0.00  0.00    +0.000 A 
ATOM     26  C   UNL     1     -22.435   8.477 -58.412  0.00  0.00    +0.000 A 
ATOM     27  C   UNL     1     -24.202   9.590 -57.198  0.00  0.00    +0.000 A 
ATOM     28  C   UNL     1     -21.510   9.394 -57.897  0.00  0.00    +0.000 A 
ATOM     29  C   UNL     1     -23.283  10.506 -56.688  0.00  0.00    +0.000 A 
ATOM     30  C   UNL     1     -21.932  10.403 -57.024  0.00  0.00    +0.000 A 
ENDBRANCH  22  25
ENDBRANCH  21  22
ENDBRANCH  19  21
ENDBRANCH   5  20
TORSDOF 5
ENDMDL
MODEL 6
REMARK VINA RESULT:      -4.9     19.083     21.025
REMARK  Name = 154040927
REMARK  5 active torsions:
REMARK  status: ('A' for Active; 'I' for Inactive)
REMARK    1  A    between atoms: O_4  and  N_7
REMARK    2  A    between atoms: O_4  and  C_24
REMARK    3  A    between atoms: C_8  and  C_9
REMARK    4  A    between atoms: C_10  and  C_20
REMARK    5  A    between atoms: C_24  and  C_25
REMARK                            x       y       z     vdW  Elec       q    Type
REMARK                         _______ _______ _______ _____ _____    ______ ____
ROOT
ATOM      1  S   UNL     1      -1.571   1.706 -60.410  0.00  0.00    +0.000 S 
ATOM      2  N   UNL     1      -3.436   3.429 -60.000  0.00  0.00    +0.000 N 
ATOM      3  N   UNL     1      -2.475   2.923 -58.056  0.00  0.00    +0.000 NA
ATOM      4  C   UNL     1      -3.486   3.854 -57.858  0.00  0.00    +0.000 A 
ATOM      5  C   UNL     1      -4.123   4.174 -59.070  0.00  0.00    +0.000 A 
ATOM      6  C   UNL     1      -2.492   2.711 -59.336  0.00  0.00    +0.000 A 
ATOM      7  C   UNL     1      -3.444   3.232 -61.368  0.00  0.00    +0.000 A 
ATOM      8  C   UNL     1      -2.541   2.317 -61.754  0.00  0.00    +0.000 A 
ENDROOT
BRANCH   4   9
ATOM      9  C   UNL     1      -3.836   4.329 -56.511  0.00  0.00    +0.000 A 
ATOM     10  C   UNL     1      -4.436   3.475 -55.527  0.00  0.00    +0.000 A 
ATOM     11  C   UNL     1      -4.807   4.033 -54.274  0.00  0.00    +0.000 A 
ATOM     12  C   UNL     1      -3.641   5.692 -56.209  0.00  0.00    +0.000 A 
ATOM     13  C   UNL     1      -4.698   2.088 -55.700  0.00  0.00    +0.000 A 
ATOM     14  C   UNL     1      -4.571   5.389 -54.011  0.00  0.00    +0.000 A 
ATOM     15  C   UNL     1      -3.989   6.212 -54.968  0.00  0.00    +0.000 A 
ATOM     16  C   UNL     1      -5.431   3.244 -53.293  0.00  0.00    +0.000 A 
ATOM     17  C   UNL     1      -5.326   1.317 -54.719  0.00  0.00    +0.000 A 
ATOM     18  C   UNL     1      -5.696   1.895 -53.516  0.00  0.00    +0.000 A 
ENDBRANCH   4   9
BRANCH   5  20
ATOM     19  N   UNL     1      -5.106   6.303 -59.814  0.00  0.00    +0.000 NA
ATOM     20  C   UNL     1      -5.204   5.087 -59.344  0.00  0.00    +0.000 C 
BRANCH  19  21
ATOM     21  O   UNL     1      -3.796   6.588 -60.216  0.00  0.00    +0.000 OA
BRANCH  21  22
ATOM     22  C   UNL     1      -3.316   7.764 -59.568  0.00  0.00    +0.000 C 
BRANCH  22  25
ATOM     23 CL   UNL     1       0.151   8.626 -55.761  0.00  0.00    +0.000 Cl
ATOM     24 CL   UNL     1       2.000   6.303 -57.090  0.00  0.00    +0.000 Cl
ATOM     25  C   UNL     1      -2.023   7.394 -58.884  0.00  0.00    +0.000 A 
ATOM     26  C   UNL     1      -1.574   8.067 -57.738  0.00  0.00    +0.000 A 
ATOM     27  C   UNL     1      -1.229   6.368 -59.421  0.00  0.00    +0.000 A 
ATOM     28  C   UNL     1      -0.341   7.739 -57.160  0.00  0.00    +0.000 A 
ATOM     29  C   UNL     1      -0.003   6.038 -58.845  0.00  0.00    +0.000 A 
ATOM     30  C   UNL     1       0.451   6.730 -57.721  0.00  0.00    +0.000 A 
ENDBRANCH  22  25
ENDBRANCH  21  22
ENDBRANCH  19  21
ENDBRANCH   5  20
TORSDOF 5
ENDMDL
MODEL 7
REMARK VINA RESULT:      -4.9     17.927     19.653
REMARK  Name = 154040927
REMARK  5 active torsions:
REMARK  status: ('A' for Active; 'I' for Inactive)
REMARK    1  A    between atoms: O_4  and  N_7
REMARK    2  A    between atoms: O_4  and  C_24
REMARK    3  A    between atoms: C_8  and  C_9
REMARK    4  A    between atoms: C_10  and  C_20
REMARK    5  A    between atoms: C_24  and  C_25
REMARK                            x       y       z     vdW  Elec       q    Type
REMARK                         _______ _______ _______ _____ _____    ______ ____
ROOT
ATOM      1  S   UNL     1      -1.205   2.256 -60.833  0.00  0.00    +0.000 S 
ATOM      2  N   UNL     1      -2.896   4.159 -60.470  0.00  0.00    +0.000 N 
ATOM      3  N   UNL     1      -2.096   3.515 -58.495  0.00  0.00    +0.000 NA
ATOM      4  C   UNL     1      -3.012   4.544 -58.323  0.00  0.00    +0.000 A 
ATOM      5  C   UNL     1      -3.549   4.954 -59.556  0.00  0.00    +0.000 A 
ATOM      6  C   UNL     1      -2.069   3.331 -59.779  0.00  0.00    +0.000 A 
ATOM      7  C   UNL     1      -2.854   3.992 -61.842  0.00  0.00    +0.000 A 
ATOM      8  C   UNL     1      -2.034   2.994 -62.206  0.00  0.00    +0.000 A 
ENDROOT
BRANCH   4   9
ATOM      9  C   UNL     1      -3.379   5.025 -56.983  0.00  0.00    +0.000 A 
ATOM     10  C   UNL     1      -4.020   4.186 -56.014  0.00  0.00    +0.000 A 
ATOM     11  C   UNL     1      -4.404   4.751 -54.768  0.00  0.00    +0.000 A 
ATOM     12  C   UNL     1      -3.158   6.383 -56.675  0.00  0.00    +0.000 A 
ATOM     13  C   UNL     1      -4.312   2.805 -56.194  0.00  0.00    +0.000 A 
ATOM     14  C   UNL     1      -4.142   6.101 -54.498  0.00  0.00    +0.000 A 
ATOM     15  C   UNL     1      -3.520   6.910 -55.441  0.00  0.00    +0.000 A 
ATOM     16  C   UNL     1      -5.067   3.977 -53.801  0.00  0.00    +0.000 A 
ATOM     17  C   UNL     1      -4.978   2.048 -55.227  0.00  0.00    +0.000 A 
ATOM     18  C   UNL     1      -5.360   2.635 -54.032  0.00  0.00    +0.000 A 
ENDBRANCH   4   9
BRANCH   5  20
ATOM     19  N   UNL     1      -5.801   5.833 -60.011  0.00  0.00    +0.000 NA
ATOM     20  C   UNL     1      -4.511   5.983 -59.860  0.00  0.00    +0.000 C 
BRANCH  19  21
ATOM     21  O   UNL     1      -6.208   4.541 -59.659  0.00  0.00    +0.000 OA
BRANCH  21  22
ATOM     22  C   UNL     1      -6.763   3.864 -60.784  0.00  0.00    +0.000 C 
BRANCH  22  25
ATOM     23 CL   UNL     1      -4.075   0.039 -58.461  0.00  0.00    +0.000 Cl
ATOM     24 CL   UNL     1      -5.802  -2.077 -60.227  0.00  0.00    +0.000 Cl
ATOM     25  C   UNL     1      -6.528   2.389 -60.572  0.00  0.00    +0.000 A 
ATOM     26  C   UNL     1      -5.547   1.917 -59.688  0.00  0.00    +0.000 A 
ATOM     27  C   UNL     1      -7.290   1.460 -61.297  0.00  0.00    +0.000 A 
ATOM     28  C   UNL     1      -5.313   0.542 -59.556  0.00  0.00    +0.000 A 
ATOM     29  C   UNL     1      -7.061   0.091 -61.164  0.00  0.00    +0.000 A 
ATOM     30  C   UNL     1      -6.064  -0.372 -60.304  0.00  0.00    +0.000 A 
ENDBRANCH  22  25
ENDBRANCH  21  22
ENDBRANCH  19  21
ENDBRANCH   5  20
TORSDOF 5
ENDMDL
MODEL 8
REMARK VINA RESULT:      -4.7     24.586     26.477
REMARK  Name = 154040927
REMARK  5 active torsions:
REMARK  status: ('A' for Active; 'I' for Inactive)
REMARK    1  A    between atoms: O_4  and  N_7
REMARK    2  A    between atoms: O_4  and  C_24
REMARK    3  A    between atoms: C_8  and  C_9
REMARK    4  A    between atoms: C_10  and  C_20
REMARK    5  A    between atoms: C_24  and  C_25
REMARK                            x       y       z     vdW  Elec       q    Type
REMARK                         _______ _______ _______ _____ _____    ______ ____
ROOT
ATOM      1  S   UNL     1     -10.944   0.604 -29.611  0.00  0.00    +0.000 S 
ATOM      2  N   UNL     1     -11.204   1.183 -32.103  0.00  0.00    +0.000 N 
ATOM      3  N   UNL     1      -9.045   1.264 -31.561  0.00  0.00    +0.000 NA
ATOM      4  C   UNL     1      -9.209   1.572 -32.905  0.00  0.00    +0.000 A 
ATOM      5  C   UNL     1     -10.567   1.550 -33.267  0.00  0.00    +0.000 A 
ATOM      6  C   UNL     1     -10.253   1.044 -31.142  0.00  0.00    +0.000 A 
ATOM      7  C   UNL     1     -12.492   0.924 -31.674  0.00  0.00    +0.000 A 
ATOM      8  C   UNL     1     -12.542   0.638 -30.364  0.00  0.00    +0.000 A 
ENDROOT
BRANCH   4   9
ATOM      9  C   UNL     1      -8.064   1.945 -33.749  0.00  0.00    +0.000 A 
ATOM     10  C   UNL     1      -7.471   1.036 -34.685  0.00  0.00    +0.000 A 
ATOM     11  C   UNL     1      -6.322   1.455 -35.410  0.00  0.00    +0.000 A 
ATOM     12  C   UNL     1      -7.487   3.219 -33.569  0.00  0.00    +0.000 A 
ATOM     13  C   UNL     1      -7.941  -0.278 -34.959  0.00  0.00    +0.000 A 
ATOM     14  C   UNL     1      -5.799   2.740 -35.215  0.00  0.00    +0.000 A 
ATOM     15  C   UNL     1      -6.378   3.618 -34.306  0.00  0.00    +0.000 A 
ATOM     16  C   UNL     1      -5.685   0.586 -36.312  0.00  0.00    +0.000 A 
ATOM     17  C   UNL     1      -7.294  -1.134 -35.853  0.00  0.00    +0.000 A 
ATOM     18  C   UNL     1      -6.163  -0.704 -36.527  0.00  0.00    +0.000 A 
ENDBRANCH   4   9
BRANCH   5  20
ATOM     19  N   UNL     1     -11.514   2.952 -35.053  0.00  0.00    +0.000 NA
ATOM     20  C   UNL     1     -11.198   1.792 -34.540  0.00  0.00    +0.000 C 
BRANCH  19  21
ATOM     21  O   UNL     1     -10.995   4.004 -34.290  0.00  0.00    +0.000 OA
BRANCH  21  22
ATOM     22  C   UNL     1     -11.067   5.232 -35.010  0.00  0.00    +0.000 C 
BRANCH  22  25
ATOM     23 CL   UNL     1      -7.587   3.305 -38.390  0.00  0.00    +0.000 Cl
ATOM     24 CL   UNL     1      -5.719   5.889 -37.747  0.00  0.00    +0.000 Cl
ATOM     25  C   UNL     1      -9.766   5.383 -35.757  0.00  0.00    +0.000 A 
ATOM     26  C   UNL     1      -9.318   4.412 -36.665  0.00  0.00    +0.000 A 
ATOM     27  C   UNL     1      -8.963   6.510 -35.521  0.00  0.00    +0.000 A 
ATOM     28  C   UNL     1      -8.078   4.553 -37.300  0.00  0.00    +0.000 A 
ATOM     29  C   UNL     1      -7.730   6.654 -36.155  0.00  0.00    +0.000 A 
ATOM     30  C   UNL     1      -7.277   5.670 -37.036  0.00  0.00    +0.000 A 
ENDBRANCH  22  25
ENDBRANCH  21  22
ENDBRANCH  19  21
ENDBRANCH   5  20
TORSDOF 5
ENDMDL
MODEL 9
REMARK VINA RESULT:      -4.7     13.007     15.422
REMARK  Name = 154040927
REMARK  5 active torsions:
REMARK  status: ('A' for Active; 'I' for Inactive)
REMARK    1  A    between atoms: O_4  and  N_7
REMARK    2  A    between atoms: O_4  and  C_24
REMARK    3  A    between atoms: C_8  and  C_9
REMARK    4  A    between atoms: C_10  and  C_20
REMARK    5  A    between atoms: C_24  and  C_25
REMARK                            x       y       z     vdW  Elec       q    Type
REMARK                         _______ _______ _______ _____ _____    ______ ____
ROOT
ATOM      1  S   UNL     1      -6.150  14.008 -52.086  0.00  0.00    +0.000 S 
ATOM      2  N   UNL     1      -8.162  15.042 -53.310  0.00  0.00    +0.000 N 
ATOM      3  N   UNL     1      -8.140  12.846 -53.677  0.00  0.00    +0.000 NA
ATOM      4  C   UNL     1      -9.221  13.426 -54.328  0.00  0.00    +0.000 A 
ATOM      5  C   UNL     1      -9.244  14.818 -54.130  0.00  0.00    +0.000 A 
ATOM      6  C   UNL     1      -7.554  13.846 -53.094  0.00  0.00    +0.000 A 
ATOM      7  C   UNL     1      -7.561  16.111 -52.670  0.00  0.00    +0.000 A 
ATOM      8  C   UNL     1      -6.454  15.746 -52.005  0.00  0.00    +0.000 A 
ENDROOT
BRANCH   4   9
ATOM      9  C   UNL     1     -10.127  12.627 -55.167  0.00  0.00    +0.000 A 
ATOM     10  C   UNL     1     -10.005  12.573 -56.595  0.00  0.00    +0.000 A 
ATOM     11  C   UNL     1     -10.967  11.833 -57.334  0.00  0.00    +0.000 A 
ATOM     12  C   UNL     1     -11.197  11.954 -54.544  0.00  0.00    +0.000 A 
ATOM     13  C   UNL     1      -8.984  13.210 -57.352  0.00  0.00    +0.000 A 
ATOM     14  C   UNL     1     -11.999  11.160 -56.669  0.00  0.00    +0.000 A 
ATOM     15  C   UNL     1     -12.112  11.215 -55.285  0.00  0.00    +0.000 A 
ATOM     16  C   UNL     1     -10.909  11.781 -58.737  0.00  0.00    +0.000 A 
ATOM     17  C   UNL     1      -8.943  13.157 -58.748  0.00  0.00    +0.000 A 
ATOM     18  C   UNL     1      -9.908  12.445 -59.441  0.00  0.00    +0.000 A 
ENDBRANCH   4   9
BRANCH   5  20
ATOM     19  N   UNL     1     -11.304  16.159 -54.042  0.00  0.00    +0.000 NA
ATOM     20  C   UNL     1     -10.174  15.813 -54.600  0.00  0.00    +0.000 C 
BRANCH  19  21
ATOM     21  O   UNL     1     -11.451  15.568 -52.782  0.00  0.00    +0.000 OA
BRANCH  21  22
ATOM     22  C   UNL     1     -11.456  16.560 -51.758  0.00  0.00    +0.000 C 
BRANCH  22  25
ATOM     23 CL   UNL     1     -16.589  15.717 -51.314  0.00  0.00    +0.000 Cl
ATOM     24 CL   UNL     1     -16.178  15.692 -48.087  0.00  0.00    +0.000 Cl
ATOM     25  C   UNL     1     -12.653  16.285 -50.882  0.00  0.00    +0.000 A 
ATOM     26  C   UNL     1     -13.936  16.106 -51.420  0.00  0.00    +0.000 A 
ATOM     27  C   UNL     1     -12.489  16.232 -49.489  0.00  0.00    +0.000 A 
ATOM     28  C   UNL     1     -15.037  15.910 -50.577  0.00  0.00    +0.000 A 
ATOM     29  C   UNL     1     -13.584  16.033 -48.649  0.00  0.00    +0.000 A 
ATOM     30  C   UNL     1     -14.863  15.885 -49.188  0.00  0.00    +0.000 A 
ENDBRANCH  22  25
ENDBRANCH  21  22
ENDBRANCH  19  21
ENDBRANCH   5  20
TORSDOF 5
ENDMDL
MODEL 10
REMARK VINA RESULT:      -4.6      6.227      7.944
REMARK  Name = 154040927
REMARK  5 active torsions:
REMARK  status: ('A' for Active; 'I' for Inactive)
REMARK    1  A    between atoms: O_4  and  N_7
REMARK    2  A    between atoms: O_4  and  C_24
REMARK    3  A    between atoms: C_8  and  C_9
REMARK    4  A    between atoms: C_10  and  C_20
REMARK    5  A    between atoms: C_24  and  C_25
REMARK                            x       y       z     vdW  Elec       q    Type
REMARK                         _______ _______ _______ _____ _____    ______ ____
ROOT
ATOM      1  S   UNL     1     -29.184   7.772 -47.770  0.00  0.00    +0.000 S 
ATOM      2  N   UNL     1     -26.662   7.271 -47.725  0.00  0.00    +0.000 N 
ATOM      3  N   UNL     1     -27.740   5.492 -48.519  0.00  0.00    +0.000 NA
ATOM      4  C   UNL     1     -26.374   5.244 -48.487  0.00  0.00    +0.000 A 
ATOM      5  C   UNL     1     -25.672   6.346 -47.967  0.00  0.00    +0.000 A 
ATOM      6  C   UNL     1     -27.849   6.701 -48.059  0.00  0.00    +0.000 A 
ATOM      7  C   UNL     1     -26.763   8.569 -47.260  0.00  0.00    +0.000 A 
ATOM      8  C   UNL     1     -28.038   8.982 -47.183  0.00  0.00    +0.000 A 
ENDROOT
BRANCH   4   9
ATOM      9  C   UNL     1     -25.825   3.939 -48.883  0.00  0.00    +0.000 A 
ATOM     10  C   UNL     1     -25.721   2.839 -47.969  0.00  0.00    +0.000 A 
ATOM     11  C   UNL     1     -25.112   1.636 -48.415  0.00  0.00    +0.000 A 
ATOM     12  C   UNL     1     -25.314   3.796 -50.189  0.00  0.00    +0.000 A 
ATOM     13  C   UNL     1     -26.184   2.848 -46.624  0.00  0.00    +0.000 A 
ATOM     14  C   UNL     1     -24.640   1.532 -49.730  0.00  0.00    +0.000 A 
ATOM     15  C   UNL     1     -24.744   2.601 -50.613  0.00  0.00    +0.000 A 
ATOM     16  C   UNL     1     -24.955   0.544 -47.544  0.00  0.00    +0.000 A 
ATOM     17  C   UNL     1     -26.015   1.758 -45.767  0.00  0.00    +0.000 A 
ATOM     18  C   UNL     1     -25.398   0.607 -46.226  0.00  0.00    +0.000 A 
ENDBRANCH   4   9
BRANCH   5  20
ATOM     19  N   UNL     1     -23.400   7.027 -48.617  0.00  0.00    +0.000 NA
ATOM     20  C   UNL     1     -24.259   6.540 -47.762  0.00  0.00    +0.000 C 
BRANCH  19  21
ATOM     21  O   UNL     1     -24.043   7.535 -49.752  0.00  0.00    +0.000 OA
BRANCH  21  22
ATOM     22  C   UNL     1     -23.137   8.296 -50.546  0.00  0.00    +0.000 C 
BRANCH  22  25
ATOM     23 CL   UNL     1     -20.838   7.847 -55.211  0.00  0.00    +0.000 Cl
ATOM     24 CL   UNL     1     -23.137   5.683 -55.996  0.00  0.00    +0.000 Cl
ATOM     25  C   UNL     1     -23.066   7.628 -51.897  0.00  0.00    +0.000 A 
ATOM     26  C   UNL     1     -22.079   7.964 -52.835  0.00  0.00    +0.000 A 
ATOM     27  C   UNL     1     -24.027   6.664 -52.240  0.00  0.00    +0.000 A 
ATOM     28  C   UNL     1     -22.074   7.368 -54.103  0.00  0.00    +0.000 A 
ATOM     29  C   UNL     1     -24.021   6.067 -53.499  0.00  0.00    +0.000 A 
ATOM     30  C   UNL     1     -23.054   6.426 -54.440  0.00  0.00    +0.000 A 
ENDBRANCH  22  25
ENDBRANCH  21  22
ENDBRANCH  19  21
ENDBRANCH   5  20
TORSDOF 5
ENDMDL
