MODEL 1
REMARK VINA RESULT:      -6.2      0.000      0.000
REMARK  Name = 154040925
REMARK  5 active torsions:
REMARK  status: ('A' for Active; 'I' for Inactive)
REMARK    1  A    between atoms: O_4  and  N_7
REMARK    2  A    between atoms: O_4  and  C_24
REMARK    3  A    between atoms: C_8  and  C_9
REMARK    4  A    between atoms: C_10  and  C_18
REMARK    5  A    between atoms: C_24  and  C_25
REMARK                            x       y       z     vdW  Elec       q    Type
REMARK                         _______ _______ _______ _____ _____    ______ ____
ROOT
ATOM      1  S   UNL     1      -6.024  -8.760  10.006  0.00  0.00    +0.000 S 
ATOM      2  N   UNL     1      -4.048  -9.867  11.225  0.00  0.00    +0.000 N 
ATOM      3  N   UNL     1      -5.748  -9.642  12.654  0.00  0.00    +0.000 NA
ATOM      4  C   UNL     1      -4.646 -10.194  13.291  0.00  0.00    +0.000 A 
ATOM      5  C   UNL     1      -3.565 -10.356  12.418  0.00  0.00    +0.000 A 
ATOM      6  C   UNL     1      -5.321  -9.435  11.444  0.00  0.00    +0.000 A 
ATOM      7  C   UNL     1      -3.607  -9.724   9.923  0.00  0.00    +0.000 A 
ATOM      8  C   UNL     1      -4.524  -9.124   9.144  0.00  0.00    +0.000 A 
ENDROOT
BRANCH   4   9
ATOM      9  C   UNL     1      -4.691 -10.502  14.716  0.00  0.00    +0.000 A 
ATOM     10  C   UNL     1      -5.977 -10.572  16.804  0.00  0.00    +0.000 A 
ATOM     11  C   UNL     1      -5.901 -10.354  15.415  0.00  0.00    +0.000 A 
ATOM     12  C   UNL     1      -4.814 -10.955  17.506  0.00  0.00    +0.000 A 
ATOM     13  C   UNL     1      -3.545 -10.870  15.427  0.00  0.00    +0.000 A 
ATOM     14  C   UNL     1      -3.607 -11.103  16.805  0.00  0.00    +0.000 A 
ATOM     15  C   UNL     1      -7.178 -10.403  17.516  0.00  0.00    +0.000 A 
ATOM     16  C   UNL     1      -4.876 -11.158  18.894  0.00  0.00    +0.000 A 
ATOM     17  C   UNL     1      -7.225 -10.607  18.898  0.00  0.00    +0.000 A 
ATOM     18  C   UNL     1      -6.076 -10.984  19.585  0.00  0.00    +0.000 A 
ENDBRANCH   4   9
BRANCH   5  20
ATOM     19  N   UNL     1      -1.945 -12.199  12.533  0.00  0.00    +0.000 NA
ATOM     20  C   UNL     1      -2.270 -10.943  12.640  0.00  0.00    +0.000 C 
BRANCH  19  21
ATOM     21  O   UNL     1      -2.990 -12.956  11.993  0.00  0.00    +0.000 OA
BRANCH  21  22
ATOM     22  C   UNL     1      -3.035 -14.250  12.595  0.00  0.00    +0.000 C 
BRANCH  22  25
ATOM     23 CL   UNL     1      -7.997 -13.336  13.933  0.00  0.00    +0.000 Cl
ATOM     24 CL   UNL     1      -7.166 -14.023  17.002  0.00  0.00    +0.000 Cl
ATOM     25  C   UNL     1      -4.102 -14.209  13.660  0.00  0.00    +0.000 A 
ATOM     26  C   UNL     1      -5.424 -13.849  13.362  0.00  0.00    +0.000 A 
ATOM     27  C   UNL     1      -3.767 -14.524  14.985  0.00  0.00    +0.000 A 
ATOM     28  C   UNL     1      -6.389 -13.793  14.378  0.00  0.00    +0.000 A 
ATOM     29  C   UNL     1      -4.726 -14.472  15.995  0.00  0.00    +0.000 A 
ATOM     30  C   UNL     1      -6.038 -14.098  15.698  0.00  0.00    +0.000 A 
ENDBRANCH  22  25
ENDBRANCH  21  22
ENDBRANCH  19  21
ENDBRANCH   5  20
TORSDOF 5
ENDMDL
MODEL 2
REMARK VINA RESULT:      -5.6     29.850     30.938
REMARK  Name = 154040925
REMARK  5 active torsions:
REMARK  status: ('A' for Active; 'I' for Inactive)
REMARK    1  A    between atoms: O_4  and  N_7
REMARK    2  A    between atoms: O_4  and  C_24
REMARK    3  A    between atoms: C_8  and  C_9
REMARK    4  A    between atoms: C_10  and  C_18
REMARK    5  A    between atoms: C_24  and  C_25
REMARK                            x       y       z     vdW  Elec       q    Type
REMARK                         _______ _______ _______ _____ _____    ______ ____
ROOT
ATOM      1  S   UNL     1      13.357  16.485  21.416  0.00  0.00    +0.000 S 
ATOM      2  N   UNL     1      11.928  15.082  23.031  0.00  0.00    +0.000 N 
ATOM      3  N   UNL     1      10.591  16.450  21.880  0.00  0.00    +0.000 NA
ATOM      4  C   UNL     1       9.858  15.709  22.797  0.00  0.00    +0.000 A 
ATOM      5  C   UNL     1      10.668  14.835  23.528  0.00  0.00    +0.000 A 
ATOM      6  C   UNL     1      11.813  16.063  22.092  0.00  0.00    +0.000 A 
ATOM      7  C   UNL     1      13.212  14.606  23.212  0.00  0.00    +0.000 A 
ATOM      8  C   UNL     1      14.105  15.263  22.451  0.00  0.00    +0.000 A 
ENDROOT
BRANCH   4   9
ATOM      9  C   UNL     1       8.420  15.915  22.935  0.00  0.00    +0.000 A 
ATOM     10  C   UNL     1       6.572  17.192  23.920  0.00  0.00    +0.000 A 
ATOM     11  C   UNL     1       7.949  16.994  23.701  0.00  0.00    +0.000 A 
ATOM     12  C   UNL     1       5.647  16.291  23.350  0.00  0.00    +0.000 A 
ATOM     13  C   UNL     1       7.492  15.024  22.387  0.00  0.00    +0.000 A 
ATOM     14  C   UNL     1       6.121  15.214  22.585  0.00  0.00    +0.000 A 
ATOM     15  C   UNL     1       6.092  18.256  24.705  0.00  0.00    +0.000 A 
ATOM     16  C   UNL     1       4.274  16.471  23.578  0.00  0.00    +0.000 A 
ATOM     17  C   UNL     1       4.722  18.422  24.924  0.00  0.00    +0.000 A 
ATOM     18  C   UNL     1       3.814  17.531  24.361  0.00  0.00    +0.000 A 
ENDBRANCH   4   9
BRANCH   5  20
ATOM     19  N   UNL     1      10.223  12.564  24.353  0.00  0.00    +0.000 NA
ATOM     20  C   UNL     1      10.318  13.852  24.518  0.00  0.00    +0.000 C 
BRANCH  19  21
ATOM     21  O   UNL     1      10.676  12.174  23.088  0.00  0.00    +0.000 OA
BRANCH  21  22
ATOM     22  C   UNL     1      11.759  11.252  23.206  0.00  0.00    +0.000 C 
BRANCH  22  25
ATOM     23 CL   UNL     1      13.696  10.561  18.408  0.00  0.00    +0.000 Cl
ATOM     24 CL   UNL     1      11.722   7.990  18.116  0.00  0.00    +0.000 Cl
ATOM     25  C   UNL     1      11.801  10.449  21.931  0.00  0.00    +0.000 A 
ATOM     26  C   UNL     1      12.640  10.805  20.864  0.00  0.00    +0.000 A 
ATOM     27  C   UNL     1      10.974   9.324  21.795  0.00  0.00    +0.000 A 
ATOM     28  C   UNL     1      12.638  10.055  19.680  0.00  0.00    +0.000 A 
ATOM     29  C   UNL     1      10.973   8.576  20.619  0.00  0.00    +0.000 A 
ATOM     30  C   UNL     1      11.798   8.943  19.554  0.00  0.00    +0.000 A 
ENDBRANCH  22  25
ENDBRANCH  21  22
ENDBRANCH  19  21
ENDBRANCH   5  20
TORSDOF 5
ENDMDL
MODEL 3
REMARK VINA RESULT:      -5.3     29.931     31.258
REMARK  Name = 154040925
REMARK  5 active torsions:
REMARK  status: ('A' for Active; 'I' for Inactive)
REMARK    1  A    between atoms: O_4  and  N_7
REMARK    2  A    between atoms: O_4  and  C_24
REMARK    3  A    between atoms: C_8  and  C_9
REMARK    4  A    between atoms: C_10  and  C_18
REMARK    5  A    between atoms: C_24  and  C_25
REMARK                            x       y       z     vdW  Elec       q    Type
REMARK                         _______ _______ _______ _____ _____    ______ ____
ROOT
ATOM      1  S   UNL     1      -0.223  20.946  23.197  0.00  0.00    +0.000 S 
ATOM      2  N   UNL     1      -0.204  18.375  23.183  0.00  0.00    +0.000 N 
ATOM      3  N   UNL     1       1.306  19.120  21.717  0.00  0.00    +0.000 NA
ATOM      4  C   UNL     1       1.256  17.733  21.702  0.00  0.00    +0.000 A 
ATOM      5  C   UNL     1       0.323  17.235  22.618  0.00  0.00    +0.000 A 
ATOM      6  C   UNL     1       0.393  19.443  22.585  0.00  0.00    +0.000 A 
ATOM      7  C   UNL     1      -1.121  18.702  24.163  0.00  0.00    +0.000 A 
ATOM      8  C   UNL     1      -1.277  20.032  24.282  0.00  0.00    +0.000 A 
ENDROOT
BRANCH   4   9
ATOM      9  C   UNL     1       2.089  16.972  20.778  0.00  0.00    +0.000 A 
ATOM     10  C   UNL     1       4.288  16.610  19.751  0.00  0.00    +0.000 A 
ATOM     11  C   UNL     1       3.458  17.270  20.678  0.00  0.00    +0.000 A 
ATOM     12  C   UNL     1       3.731  15.622  18.910  0.00  0.00    +0.000 A 
ATOM     13  C   UNL     1       1.550  15.999  19.930  0.00  0.00    +0.000 A 
ATOM     14  C   UNL     1       2.363  15.326  19.013  0.00  0.00    +0.000 A 
ATOM     15  C   UNL     1       5.654  16.919  19.628  0.00  0.00    +0.000 A 
ATOM     16  C   UNL     1       4.547  14.971  17.971  0.00  0.00    +0.000 A 
ATOM     17  C   UNL     1       6.454  16.264  18.687  0.00  0.00    +0.000 A 
ATOM     18  C   UNL     1       5.900  15.292  17.861  0.00  0.00    +0.000 A 
ENDBRANCH   4   9
BRANCH   5  20
ATOM     19  N   UNL     1       0.760  15.024  23.598  0.00  0.00    +0.000 NA
ATOM     20  C   UNL     1       0.002  15.878  22.971  0.00  0.00    +0.000 C 
BRANCH  19  21
ATOM     21  O   UNL     1       1.930  15.628  24.071  0.00  0.00    +0.000 OA
BRANCH  21  22
ATOM     22  C   UNL     1       3.080  14.915  23.617  0.00  0.00    +0.000 C 
BRANCH  22  25
ATOM     23 CL   UNL     1       8.082  15.959  22.552  0.00  0.00    +0.000 Cl
ATOM     24 CL   UNL     1       7.714  18.758  24.171  0.00  0.00    +0.000 Cl
ATOM     25  C   UNL     1       4.253  15.858  23.708  0.00  0.00    +0.000 A 
ATOM     26  C   UNL     1       5.498  15.540  23.145  0.00  0.00    +0.000 A 
ATOM     27  C   UNL     1       4.107  17.079  24.383  0.00  0.00    +0.000 A 
ATOM     28  C   UNL     1       6.579  16.425  23.268  0.00  0.00    +0.000 A 
ATOM     29  C   UNL     1       5.180  17.961  24.504  0.00  0.00    +0.000 A 
ATOM     30  C   UNL     1       6.421  17.634  23.955  0.00  0.00    +0.000 A 
ENDBRANCH  22  25
ENDBRANCH  21  22
ENDBRANCH  19  21
ENDBRANCH   5  20
TORSDOF 5
ENDMDL
MODEL 4
REMARK VINA RESULT:      -5.1     30.201     31.422
REMARK  Name = 154040925
REMARK  5 active torsions:
REMARK  status: ('A' for Active; 'I' for Inactive)
REMARK    1  A    between atoms: O_4  and  N_7
REMARK    2  A    between atoms: O_4  and  C_24
REMARK    3  A    between atoms: C_8  and  C_9
REMARK    4  A    between atoms: C_10  and  C_18
REMARK    5  A    between atoms: C_24  and  C_25
REMARK                            x       y       z     vdW  Elec       q    Type
REMARK                         _______ _______ _______ _____ _____    ______ ____
ROOT
ATOM      1  S   UNL     1      -0.277  20.299  24.245  0.00  0.00    +0.000 S 
ATOM      2  N   UNL     1       0.297  17.834  23.785  0.00  0.00    +0.000 N 
ATOM      3  N   UNL     1       2.190  18.971  24.113  0.00  0.00    +0.000 NA
ATOM      4  C   UNL     1       2.465  17.644  23.815  0.00  0.00    +0.000 A 
ATOM      5  C   UNL     1       1.296  16.902  23.611  0.00  0.00    +0.000 A 
ATOM      6  C   UNL     1       0.894  19.031  24.043  0.00  0.00    +0.000 A 
ATOM      7  C   UNL     1      -1.084  17.867  23.783  0.00  0.00    +0.000 A 
ATOM      8  C   UNL     1      -1.558  19.109  23.984  0.00  0.00    +0.000 A 
ENDROOT
BRANCH   4   9
ATOM      9  C   UNL     1       3.843  17.178  23.710  0.00  0.00    +0.000 A 
ATOM     10  C   UNL     1       6.232  17.604  24.073  0.00  0.00    +0.000 A 
ATOM     11  C   UNL     1       4.882  17.979  24.213  0.00  0.00    +0.000 A 
ATOM     12  C   UNL     1       6.546  16.393  23.419  0.00  0.00    +0.000 A 
ATOM     13  C   UNL     1       4.170  15.987  23.055  0.00  0.00    +0.000 A 
ATOM     14  C   UNL     1       5.506  15.594  22.919  0.00  0.00    +0.000 A 
ATOM     15  C   UNL     1       7.279  18.411  24.552  0.00  0.00    +0.000 A 
ATOM     16  C   UNL     1       7.889  16.019  23.260  0.00  0.00    +0.000 A 
ATOM     17  C   UNL     1       8.612  18.028  24.385  0.00  0.00    +0.000 A 
ATOM     18  C   UNL     1       8.917  16.833  23.739  0.00  0.00    +0.000 A 
ENDBRANCH   4   9
BRANCH   5  20
ATOM     19  N   UNL     1       0.808  14.939  22.217  0.00  0.00    +0.000 NA
ATOM     20  C   UNL     1       1.120  15.499  23.351  0.00  0.00    +0.000 C 
BRANCH  19  21
ATOM     21  O   UNL     1       0.816  15.866  21.168  0.00  0.00    +0.000 OA
BRANCH  21  22
ATOM     22  C   UNL     1       1.371  15.283  19.989  0.00  0.00    +0.000 C 
BRANCH  22  25
ATOM     23 CL   UNL     1       6.270  15.033  18.205  0.00  0.00    +0.000 Cl
ATOM     24 CL   UNL     1       6.640  18.125  19.147  0.00  0.00    +0.000 Cl
ATOM     25  C   UNL     1       2.692  15.963  19.735  0.00  0.00    +0.000 A 
ATOM     26  C   UNL     1       3.766  15.286  19.139  0.00  0.00    +0.000 A 
ATOM     27  C   UNL     1       2.863  17.303  20.114  0.00  0.00    +0.000 A 
ATOM     28  C   UNL     1       4.992  15.937  18.940  0.00  0.00    +0.000 A 
ATOM     29  C   UNL     1       4.081  17.952  19.915  0.00  0.00    +0.000 A 
ATOM     30  C   UNL     1       5.152  17.270  19.335  0.00  0.00    +0.000 A 
ENDBRANCH  22  25
ENDBRANCH  21  22
ENDBRANCH  19  21
ENDBRANCH   5  20
TORSDOF 5
ENDMDL
MODEL 5
REMARK VINA RESULT:      -5.1     21.445     23.702
REMARK  Name = 154040925
REMARK  5 active torsions:
REMARK  status: ('A' for Active; 'I' for Inactive)
REMARK    1  A    between atoms: O_4  and  N_7
REMARK    2  A    between atoms: O_4  and  C_24
REMARK    3  A    between atoms: C_8  and  C_9
REMARK    4  A    between atoms: C_10  and  C_18
REMARK    5  A    between atoms: C_24  and  C_25
REMARK                            x       y       z     vdW  Elec       q    Type
REMARK                         _______ _______ _______ _____ _____    ______ ____
ROOT
ATOM      1  S   UNL     1     -19.777   2.813  21.025  0.00  0.00    +0.000 S 
ATOM      2  N   UNL     1     -18.598   4.285  22.773  0.00  0.00    +0.000 N 
ATOM      3  N   UNL     1     -17.344   4.205  20.928  0.00  0.00    +0.000 NA
ATOM      4  C   UNL     1     -16.716   4.955  21.912  0.00  0.00    +0.000 A 
ATOM      5  C   UNL     1     -17.482   5.031  23.080  0.00  0.00    +0.000 A 
ATOM      6  C   UNL     1     -18.436   3.804  21.509  0.00  0.00    +0.000 A 
ATOM      7  C   UNL     1     -19.790   3.931  23.375  0.00  0.00    +0.000 A 
ATOM      8  C   UNL     1     -20.528   3.122  22.594  0.00  0.00    +0.000 A 
ENDROOT
BRANCH   4   9
ATOM      9  C   UNL     1     -15.394   5.525  21.677  0.00  0.00    +0.000 A 
ATOM     10  C   UNL     1     -13.957   7.006  20.350  0.00  0.00    +0.000 A 
ATOM     11  C   UNL     1     -15.225   6.479  20.659  0.00  0.00    +0.000 A 
ATOM     12  C   UNL     1     -12.833   6.571  21.084  0.00  0.00    +0.000 A 
ATOM     13  C   UNL     1     -14.269   5.096  22.388  0.00  0.00    +0.000 A 
ATOM     14  C   UNL     1     -13.004   5.619  22.101  0.00  0.00    +0.000 A 
ATOM     15  C   UNL     1     -13.775   7.943  19.317  0.00  0.00    +0.000 A 
ATOM     16  C   UNL     1     -11.562   7.078  20.772  0.00  0.00    +0.000 A 
ATOM     17  C   UNL     1     -12.504   8.438  19.015  0.00  0.00    +0.000 A 
ATOM     18  C   UNL     1     -11.399   8.006  19.742  0.00  0.00    +0.000 A 
ENDBRANCH   4   9
BRANCH   5  20
ATOM     19  N   UNL     1     -17.154   7.040  24.455  0.00  0.00    +0.000 NA
ATOM     20  C   UNL     1     -17.244   5.750  24.302  0.00  0.00    +0.000 C 
BRANCH  19  21
ATOM     21  O   UNL     1     -17.490   7.720  23.279  0.00  0.00    +0.000 OA
BRANCH  21  22
ATOM     22  C   UNL     1     -17.453   9.132  23.489  0.00  0.00    +0.000 C 
BRANCH  22  25
ATOM     23 CL   UNL     1     -14.706  11.506  19.740  0.00  0.00    +0.000 Cl
ATOM     24 CL   UNL     1     -12.035  10.939  21.509  0.00  0.00    +0.000 Cl
ATOM     25  C   UNL     1     -16.125   9.624  22.972  0.00  0.00    +0.000 A 
ATOM     26  C   UNL     1     -16.014  10.283  21.739  0.00  0.00    +0.000 A 
ATOM     27  C   UNL     1     -14.965   9.408  23.732  0.00  0.00    +0.000 A 
ATOM     28  C   UNL     1     -14.761  10.706  21.272  0.00  0.00    +0.000 A 
ATOM     29  C   UNL     1     -13.720   9.830  23.269  0.00  0.00    +0.000 A 
ATOM     30  C   UNL     1     -13.612  10.472  22.034  0.00  0.00    +0.000 A 
ENDBRANCH  22  25
ENDBRANCH  21  22
ENDBRANCH  19  21
ENDBRANCH   5  20
TORSDOF 5
ENDMDL
MODEL 6
REMARK VINA RESULT:      -5.1     29.902     31.086
REMARK  Name = 154040925
REMARK  5 active torsions:
REMARK  status: ('A' for Active; 'I' for Inactive)
REMARK    1  A    between atoms: O_4  and  N_7
REMARK    2  A    between atoms: O_4  and  C_24
REMARK    3  A    between atoms: C_8  and  C_9
REMARK    4  A    between atoms: C_10  and  C_18
REMARK    5  A    between atoms: C_24  and  C_25
REMARK                            x       y       z     vdW  Elec       q    Type
REMARK                         _______ _______ _______ _____ _____    ______ ____
ROOT
ATOM      1  S   UNL     1       1.630  20.467  21.216  0.00  0.00    +0.000 S 
ATOM      2  N   UNL     1       2.058  18.698  23.034  0.00  0.00    +0.000 N 
ATOM      3  N   UNL     1       3.886  18.895  21.768  0.00  0.00    +0.000 NA
ATOM      4  C   UNL     1       4.065  17.914  22.733  0.00  0.00    +0.000 A 
ATOM      5  C   UNL     1       2.937  17.772  23.549  0.00  0.00    +0.000 A 
ATOM      6  C   UNL     1       2.667  19.296  21.972  0.00  0.00    +0.000 A 
ATOM      7  C   UNL     1       0.789  19.170  23.311  0.00  0.00    +0.000 A 
ATOM      8  C   UNL     1       0.391  20.097  22.421  0.00  0.00    +0.000 A 
ENDROOT
BRANCH   4   9
ATOM      9  C   UNL     1       5.304  17.145  22.787  0.00  0.00    +0.000 A 
ATOM     10  C   UNL     1       7.615  16.952  23.585  0.00  0.00    +0.000 A 
ATOM     11  C   UNL     1       6.378  17.622  23.557  0.00  0.00    +0.000 A 
ATOM     12  C   UNL     1       7.777  15.771  22.828  0.00  0.00    +0.000 A 
ATOM     13  C   UNL     1       5.482  15.981  22.034  0.00  0.00    +0.000 A 
ATOM     14  C   UNL     1       6.702  15.297  22.061  0.00  0.00    +0.000 A 
ATOM     15  C   UNL     1       8.703  17.434  24.334  0.00  0.00    +0.000 A 
ATOM     16  C   UNL     1       9.012  15.106  22.836  0.00  0.00    +0.000 A 
ATOM     17  C   UNL     1       9.928  16.763  24.332  0.00  0.00    +0.000 A 
ATOM     18  C   UNL     1      10.082  15.600  23.584  0.00  0.00    +0.000 A 
ENDBRANCH   4   9
BRANCH   5  20
ATOM     19  N   UNL     1       2.366  15.680  24.702  0.00  0.00    +0.000 NA
ATOM     20  C   UNL     1       2.720  16.933  24.696  0.00  0.00    +0.000 C 
BRANCH  19  21
ATOM     21  O   UNL     1       2.371  15.139  23.411  0.00  0.00    +0.000 OA
BRANCH  21  22
ATOM     22  C   UNL     1       1.064  14.690  23.051  0.00  0.00    +0.000 C 
BRANCH  22  25
ATOM     23 CL   UNL     1      -2.378  15.779  19.282  0.00  0.00    +0.000 Cl
ATOM     24 CL   UNL     1       0.136  16.638  17.404  0.00  0.00    +0.000 Cl
ATOM     25  C   UNL     1       0.787  15.197  21.658  0.00  0.00    +0.000 A 
ATOM     26  C   UNL     1      -0.517  15.271  21.148  0.00  0.00    +0.000 A 
ATOM     27  C   UNL     1       1.857  15.593  20.842  0.00  0.00    +0.000 A 
ATOM     28  C   UNL     1      -0.742  15.722  19.840  0.00  0.00    +0.000 A 
ATOM     29  C   UNL     1       1.635  16.043  19.541  0.00  0.00    +0.000 A 
ATOM     30  C   UNL     1       0.336  16.101  19.033  0.00  0.00    +0.000 A 
ENDBRANCH  22  25
ENDBRANCH  21  22
ENDBRANCH  19  21
ENDBRANCH   5  20
TORSDOF 5
ENDMDL
MODEL 7
REMARK VINA RESULT:      -4.9     29.455     30.696
REMARK  Name = 154040925
REMARK  5 active torsions:
REMARK  status: ('A' for Active; 'I' for Inactive)
REMARK    1  A    between atoms: O_4  and  N_7
REMARK    2  A    between atoms: O_4  and  C_24
REMARK    3  A    between atoms: C_8  and  C_9
REMARK    4  A    between atoms: C_10  and  C_18
REMARK    5  A    between atoms: C_24  and  C_25
REMARK                            x       y       z     vdW  Elec       q    Type
REMARK                         _______ _______ _______ _____ _____    ______ ____
ROOT
ATOM      1  S   UNL     1      13.286  15.180  26.476  0.00  0.00    +0.000 S 
ATOM      2  N   UNL     1      12.140  13.414  24.998  0.00  0.00    +0.000 N 
ATOM      3  N   UNL     1      11.342  15.431  24.470  0.00  0.00    +0.000 NA
ATOM      4  C   UNL     1      10.711  14.447  23.723  0.00  0.00    +0.000 A 
ATOM      5  C   UNL     1      11.196  13.170  24.026  0.00  0.00    +0.000 A 
ATOM      6  C   UNL     1      12.150  14.756  25.233  0.00  0.00    +0.000 A 
ATOM      7  C   UNL     1      13.049  12.692  25.747  0.00  0.00    +0.000 A 
ATOM      8  C   UNL     1      13.724  13.473  26.609  0.00  0.00    +0.000 A 
ENDROOT
BRANCH   4   9
ATOM      9  C   UNL     1       9.650  14.796  22.785  0.00  0.00    +0.000 A 
ATOM     10  C   UNL     1       7.293  15.361  22.402  0.00  0.00    +0.000 A 
ATOM     11  C   UNL     1       8.365  15.087  23.273  0.00  0.00    +0.000 A 
ATOM     12  C   UNL     1       7.518  15.350  21.008  0.00  0.00    +0.000 A 
ATOM     13  C   UNL     1       9.854  14.777  21.402  0.00  0.00    +0.000 A 
ATOM     14  C   UNL     1       8.803  15.060  20.523  0.00  0.00    +0.000 A 
ATOM     15  C   UNL     1       5.999  15.630  22.881  0.00  0.00    +0.000 A 
ATOM     16  C   UNL     1       6.452  15.605  20.132  0.00  0.00    +0.000 A 
ATOM     17  C   UNL     1       4.946  15.880  21.997  0.00  0.00    +0.000 A 
ATOM     18  C   UNL     1       5.173  15.868  20.624  0.00  0.00    +0.000 A 
ENDBRANCH   4   9
BRANCH   5  20
ATOM     19  N   UNL     1      11.385  11.359  22.377  0.00  0.00    +0.000 NA
ATOM     20  C   UNL     1      10.873  11.893  23.449  0.00  0.00    +0.000 C 
BRANCH  19  21
ATOM     21  O   UNL     1      12.462  12.111  21.893  0.00  0.00    +0.000 OA
BRANCH  21  22
ATOM     22  C   UNL     1      12.535  12.022  20.470  0.00  0.00    +0.000 C 
BRANCH  22  25
ATOM     23 CL   UNL     1      12.585   7.367  18.109  0.00  0.00    +0.000 Cl
ATOM     24 CL   UNL     1      15.562   6.912  19.342  0.00  0.00    +0.000 Cl
ATOM     25  C   UNL     1      13.267  10.745  20.141  0.00  0.00    +0.000 A 
ATOM     26  C   UNL     1      12.682   9.744  19.352  0.00  0.00    +0.000 A 
ATOM     27  C   UNL     1      14.560  10.541  20.646  0.00  0.00    +0.000 A 
ATOM     28  C   UNL     1      13.376   8.555  19.085  0.00  0.00    +0.000 A 
ATOM     29  C   UNL     1      15.252   9.361  20.379  0.00  0.00    +0.000 A 
ATOM     30  C   UNL     1      14.660   8.361  19.605  0.00  0.00    +0.000 A 
ENDBRANCH  22  25
ENDBRANCH  21  22
ENDBRANCH  19  21
ENDBRANCH   5  20
TORSDOF 5
ENDMDL
MODEL 8
REMARK VINA RESULT:      -4.9     31.612     32.783
REMARK  Name = 154040925
REMARK  5 active torsions:
REMARK  status: ('A' for Active; 'I' for Inactive)
REMARK    1  A    between atoms: O_4  and  N_7
REMARK    2  A    between atoms: O_4  and  C_24
REMARK    3  A    between atoms: C_8  and  C_9
REMARK    4  A    between atoms: C_10  and  C_18
REMARK    5  A    between atoms: C_24  and  C_25
REMARK                            x       y       z     vdW  Elec       q    Type
REMARK                         _______ _______ _______ _____ _____    ______ ____
ROOT
ATOM      1  S   UNL     1      13.887  17.499  22.094  0.00  0.00    +0.000 S 
ATOM      2  N   UNL     1      12.686  17.231  24.353  0.00  0.00    +0.000 N 
ATOM      3  N   UNL     1      11.158  17.449  22.740  0.00  0.00    +0.000 NA
ATOM      4  C   UNL     1      10.545  17.349  23.981  0.00  0.00    +0.000 A 
ATOM      5  C   UNL     1      11.478  17.203  25.014  0.00  0.00    +0.000 A 
ATOM      6  C   UNL     1      12.425  17.412  23.028  0.00  0.00    +0.000 A 
ATOM      7  C   UNL     1      14.027  17.112  24.665  0.00  0.00    +0.000 A 
ATOM      8  C   UNL     1      14.810  17.260  23.582  0.00  0.00    +0.000 A 
ENDROOT
BRANCH   4   9
ATOM      9  C   UNL     1       9.094  17.435  24.100  0.00  0.00    +0.000 A 
ATOM     10  C   UNL     1       6.887  16.528  23.528  0.00  0.00    +0.000 A 
ATOM     11  C   UNL     1       8.293  16.449  23.499  0.00  0.00    +0.000 A 
ATOM     12  C   UNL     1       6.272  17.617  24.181  0.00  0.00    +0.000 A 
ATOM     13  C   UNL     1       8.469  18.514  24.733  0.00  0.00    +0.000 A 
ATOM     14  C   UNL     1       7.074  18.600  24.781  0.00  0.00    +0.000 A 
ATOM     15  C   UNL     1       6.078  15.558  22.909  0.00  0.00    +0.000 A 
ATOM     16  C   UNL     1       4.871  17.713  24.200  0.00  0.00    +0.000 A 
ATOM     17  C   UNL     1       4.686  15.667  22.934  0.00  0.00    +0.000 A 
ATOM     18  C   UNL     1       4.083  16.743  23.579  0.00  0.00    +0.000 A 
ENDBRANCH   4   9
BRANCH   5  20
ATOM     19  N   UNL     1      11.243  15.866  27.061  0.00  0.00    +0.000 NA
ATOM     20  C   UNL     1      11.279  17.001  26.424  0.00  0.00    +0.000 C 
BRANCH  19  21
ATOM     21  O   UNL     1      11.597  14.798  26.229  0.00  0.00    +0.000 OA
BRANCH  21  22
ATOM     22  C   UNL     1      10.479  13.936  26.019  0.00  0.00    +0.000 C 
BRANCH  22  25
ATOM     23 CL   UNL     1      11.239  13.702  20.860  0.00  0.00    +0.000 Cl
ATOM     24 CL   UNL     1      11.560  10.480  21.178  0.00  0.00    +0.000 Cl
ATOM     25  C   UNL     1      10.776  13.114  24.790  0.00  0.00    +0.000 A 
ATOM     26  C   UNL     1      10.880  13.700  23.520  0.00  0.00    +0.000 A 
ATOM     27  C   UNL     1      10.940  11.725  24.911  0.00  0.00    +0.000 A 
ATOM     28  C   UNL     1      11.130  12.906  22.392  0.00  0.00    +0.000 A 
ATOM     29  C   UNL     1      11.191  10.936  23.790  0.00  0.00    +0.000 A 
ATOM     30  C   UNL     1      11.279  11.522  22.526  0.00  0.00    +0.000 A 
ENDBRANCH  22  25
ENDBRANCH  21  22
ENDBRANCH  19  21
ENDBRANCH   5  20
TORSDOF 5
ENDMDL
MODEL 9
REMARK VINA RESULT:      -4.9     29.834     31.107
REMARK  Name = 154040925
REMARK  5 active torsions:
REMARK  status: ('A' for Active; 'I' for Inactive)
REMARK    1  A    between atoms: O_4  and  N_7
REMARK    2  A    between atoms: O_4  and  C_24
REMARK    3  A    between atoms: C_8  and  C_9
REMARK    4  A    between atoms: C_10  and  C_18
REMARK    5  A    between atoms: C_24  and  C_25
REMARK                            x       y       z     vdW  Elec       q    Type
REMARK                         _______ _______ _______ _____ _____    ______ ____
ROOT
ATOM      1  S   UNL     1      15.345  14.815  25.472  0.00  0.00    +0.000 S 
ATOM      2  N   UNL     1      13.146  13.482  25.483  0.00  0.00    +0.000 N 
ATOM      3  N   UNL     1      13.076  14.982  23.832  0.00  0.00    +0.000 NA
ATOM      4  C   UNL     1      11.884  14.274  23.898  0.00  0.00    +0.000 A 
ATOM      5  C   UNL     1      11.900  13.319  24.920  0.00  0.00    +0.000 A 
ATOM      6  C   UNL     1      13.768  14.495  24.819  0.00  0.00    +0.000 A 
ATOM      7  C   UNL     1      13.899  12.902  26.486  0.00  0.00    +0.000 A 
ATOM      8  C   UNL     1      15.090  13.510  26.636  0.00  0.00    +0.000 A 
ENDROOT
BRANCH   4   9
ATOM      9  C   UNL     1      10.786  14.587  22.990  0.00  0.00    +0.000 A 
ATOM     10  C   UNL     1       8.431  15.204  22.685  0.00  0.00    +0.000 A 
ATOM     11  C   UNL     1       9.539  14.960  23.519  0.00  0.00    +0.000 A 
ATOM     12  C   UNL     1       8.580  15.078  21.287  0.00  0.00    +0.000 A 
ATOM     13  C   UNL     1      10.915  14.454  21.604  0.00  0.00    +0.000 A 
ATOM     14  C   UNL     1       9.827  14.705  20.761  0.00  0.00    +0.000 A 
ATOM     15  C   UNL     1       7.173  15.556  23.206  0.00  0.00    +0.000 A 
ATOM     16  C   UNL     1       7.477  15.302  20.449  0.00  0.00    +0.000 A 
ATOM     17  C   UNL     1       6.083  15.774  22.361  0.00  0.00    +0.000 A 
ATOM     18  C   UNL     1       6.235  15.648  20.983  0.00  0.00    +0.000 A 
ENDBRANCH   4   9
BRANCH   5  20
ATOM     19  N   UNL     1      10.594  11.257  24.640  0.00  0.00    +0.000 NA
ATOM     20  C   UNL     1      10.915  12.338  25.290  0.00  0.00    +0.000 C 
BRANCH  19  21
ATOM     21  O   UNL     1      11.458  11.031  23.563  0.00  0.00    +0.000 OA
BRANCH  21  22
ATOM     22  C   UNL     1      10.890  10.085  22.656  0.00  0.00    +0.000 C 
BRANCH  22  25
ATOM     23 CL   UNL     1      13.718  12.901  19.291  0.00  0.00    +0.000 Cl
ATOM     24 CL   UNL     1      13.970  10.226  17.456  0.00  0.00    +0.000 Cl
ATOM     25  C   UNL     1      11.691  10.156  21.380  0.00  0.00    +0.000 A 
ATOM     26  C   UNL     1      12.294  11.349  20.955  0.00  0.00    +0.000 A 
ATOM     27  C   UNL     1      11.829   9.007  20.587  0.00  0.00    +0.000 A 
ATOM     28  C   UNL     1      13.010  11.391  19.750  0.00  0.00    +0.000 A 
ATOM     29  C   UNL     1      12.543   9.047  19.390  0.00  0.00    +0.000 A 
ATOM     30  C   UNL     1      13.128  10.240  18.963  0.00  0.00    +0.000 A 
ENDBRANCH  22  25
ENDBRANCH  21  22
ENDBRANCH  19  21
ENDBRANCH   5  20
TORSDOF 5
ENDMDL
MODEL 10
REMARK VINA RESULT:      -4.8     25.699     27.890
REMARK  Name = 154040925
REMARK  5 active torsions:
REMARK  status: ('A' for Active; 'I' for Inactive)
REMARK    1  A    between atoms: O_4  and  N_7
REMARK    2  A    between atoms: O_4  and  C_24
REMARK    3  A    between atoms: C_8  and  C_9
REMARK    4  A    between atoms: C_10  and  C_18
REMARK    5  A    between atoms: C_24  and  C_25
REMARK                            x       y       z     vdW  Elec       q    Type
REMARK                         _______ _______ _______ _____ _____    ______ ____
ROOT
ATOM      1  S   UNL     1      20.098  -8.944  28.723  0.00  0.00    +0.000 S 
ATOM      2  N   UNL     1      17.733  -7.953  28.519  0.00  0.00    +0.000 N 
ATOM      3  N   UNL     1      19.172  -6.621  27.452  0.00  0.00    +0.000 NA
ATOM      4  C   UNL     1      17.890  -6.093  27.402  0.00  0.00    +0.000 A 
ATOM      5  C   UNL     1      16.962  -6.910  28.056  0.00  0.00    +0.000 A 
ATOM      6  C   UNL     1      19.022  -7.702  28.158  0.00  0.00    +0.000 A 
ATOM      7  C   UNL     1      17.547  -9.139  29.204  0.00  0.00    +0.000 A 
ATOM      8  C   UNL     1      18.709  -9.780  29.425  0.00  0.00    +0.000 A 
ENDROOT
BRANCH   4   9
ATOM      9  C   UNL     1      17.642  -4.809  26.754  0.00  0.00    +0.000 A 
ATOM     10  C   UNL     1      16.931  -3.572  24.758  0.00  0.00    +0.000 A 
ATOM     11  C   UNL     1      17.122  -4.784  25.449  0.00  0.00    +0.000 A 
ATOM     12  C   UNL     1      17.265  -2.357  25.394  0.00  0.00    +0.000 A 
ATOM     13  C   UNL     1      17.979  -3.598  27.366  0.00  0.00    +0.000 A 
ATOM     14  C   UNL     1      17.784  -2.385  26.698  0.00  0.00    +0.000 A 
ATOM     15  C   UNL     1      16.432  -3.539  23.444  0.00  0.00    +0.000 A 
ATOM     16  C   UNL     1      17.095  -1.145  24.706  0.00  0.00    +0.000 A 
ATOM     17  C   UNL     1      16.270  -2.326  22.770  0.00  0.00    +0.000 A 
ATOM     18  C   UNL     1      16.600  -1.131  23.401  0.00  0.00    +0.000 A 
ENDBRANCH   4   9
BRANCH   5  20
ATOM     19  N   UNL     1      14.879  -6.264  29.186  0.00  0.00    +0.000 NA
ATOM     20  C   UNL     1      15.536  -6.778  28.186  0.00  0.00    +0.000 C 
BRANCH  19  21
ATOM     21  O   UNL     1      15.740  -5.666  30.113  0.00  0.00    +0.000 OA
BRANCH  21  22
ATOM     22  C   UNL     1      14.994  -4.974  31.115  0.00  0.00    +0.000 C 
BRANCH  22  25
ATOM     23 CL   UNL     1      16.918  -1.525  34.528  0.00  0.00    +0.000 Cl
ATOM     24 CL   UNL     1      17.743   0.338  31.992  0.00  0.00    +0.000 Cl
ATOM     25  C   UNL     1      15.703  -3.669  31.376  0.00  0.00    +0.000 A 
ATOM     26  C   UNL     1      15.980  -3.230  32.679  0.00  0.00    +0.000 A 
ATOM     27  C   UNL     1      16.087  -2.863  30.294  0.00  0.00    +0.000 A 
ATOM     28  C   UNL     1      16.617  -1.999  32.892  0.00  0.00    +0.000 A 
ATOM     29  C   UNL     1      16.722  -1.640  30.505  0.00  0.00    +0.000 A 
ATOM     30  C   UNL     1      16.982  -1.200  31.804  0.00  0.00    +0.000 A 
ENDBRANCH  22  25
ENDBRANCH  21  22
ENDBRANCH  19  21
ENDBRANCH   5  20
TORSDOF 5
ENDMDL
