MODEL 1
REMARK VINA RESULT:      -5.8      0.000      0.000
REMARK  Name = 154040923
REMARK  9 active torsions:
REMARK  status: ('A' for Active; 'I' for Inactive)
REMARK    1  A    between atoms: O_4  and  N_7
REMARK    2  A    between atoms: O_4  and  C_24
REMARK    3  A    between atoms: C_8  and  C_9
REMARK    4  A    between atoms: C_8  and  C_10
REMARK    5  A    between atoms: C_8  and  C_11
REMARK    6  A    between atoms: C_8  and  C_12
REMARK    7  A    between atoms: C_15  and  C_18
REMARK    8  A    between atoms: C_19  and  C_22
REMARK    9  A    between atoms: C_24  and  C_25
REMARK                            x       y       z     vdW  Elec       q    Type
REMARK                         _______ _______ _______ _____ _____    ______ ____
ROOT
ATOM      1  S   UNL     1     -22.766   9.796 -60.140  0.00  0.00    +0.000 S 
ATOM      2  N   UNL     1     -21.133   9.530 -58.179  0.00  0.00    +0.000 N 
ATOM      3  N   UNL     1     -23.190   9.025 -57.470  0.00  0.00    +0.000 NA
ATOM      4  C   UNL     1     -22.277   8.919 -56.430  0.00  0.00    +0.000 A 
ATOM      5  C   UNL     1     -20.977   9.227 -56.846  0.00  0.00    +0.000 A 
ATOM      6  C   UNL     1     -22.461   9.416 -58.470  0.00  0.00    +0.000 A 
ATOM      7  C   UNL     1     -20.328   9.878 -59.244  0.00  0.00    +0.000 A 
ATOM      8  C   UNL     1     -21.035  10.095 -60.358  0.00  0.00    +0.000 A 
ENDROOT
BRANCH   4  12
ATOM      9  C   UNL     1     -23.243   7.699 -52.426  0.00  0.00    +0.000 A 
ATOM     10  C   UNL     1     -22.959   6.758 -53.432  0.00  0.00    +0.000 A 
ATOM     11  C   UNL     1     -23.272   9.049 -52.800  0.00  0.00    +0.000 A 
ATOM     12  C   UNL     1     -22.668   8.509 -55.093  0.00  0.00    +0.000 A 
ATOM     13  C   UNL     1     -22.680   7.153 -54.746  0.00  0.00    +0.000 A 
ATOM     14  C   UNL     1     -23.021   9.441 -54.115  0.00  0.00    +0.000 A 
BRANCH   9  15
ATOM     15  C   UNL     1     -23.518   7.310 -50.965  0.00  0.00    +0.000 C 
ATOM     16  C   UNL     1     -22.225   7.150 -50.139  0.00  0.00    +0.000 C 
ATOM     17  C   UNL     1     -24.388   8.397 -50.298  0.00  0.00    +0.000 C 
ATOM     18  C   UNL     1     -24.277   5.966 -50.898  0.00  0.00    +0.000 C 
ENDBRANCH   9  15
ENDBRANCH   4  12
BRANCH   5  20
ATOM     19  N   UNL     1     -18.891   8.186 -56.055  0.00  0.00    +0.000 NA
ATOM     20  C   UNL     1     -19.732   9.174 -56.120  0.00  0.00    +0.000 C 
BRANCH  19  21
ATOM     21  O   UNL     1     -19.243   7.161 -56.937  0.00  0.00    +0.000 OA
BRANCH  21  22
ATOM     22  C   UNL     1     -19.439   5.937 -56.236  0.00  0.00    +0.000 C 
BRANCH  22  25
ATOM     23 CL   UNL     1     -23.138   5.915 -59.908  0.00  0.00    +0.000 Cl
ATOM     24 CL   UNL     1     -24.385   3.281 -58.460  0.00  0.00    +0.000 Cl
ATOM     25  C   UNL     1     -20.632   5.263 -56.862  0.00  0.00    +0.000 A 
ATOM     26  C   UNL     1     -21.256   5.792 -58.000  0.00  0.00    +0.000 A 
ATOM     27  C   UNL     1     -21.152   4.097 -56.280  0.00  0.00    +0.000 A 
ATOM     28  C   UNL     1     -22.408   5.187 -58.520  0.00  0.00    +0.000 A 
ATOM     29  C   UNL     1     -22.296   3.493 -56.797  0.00  0.00    +0.000 A 
ATOM     30  C   UNL     1     -22.937   4.044 -57.909  0.00  0.00    +0.000 A 
ENDBRANCH  22  25
ENDBRANCH  21  22
ENDBRANCH  19  21
ENDBRANCH   5  20
TORSDOF 6
ENDMDL
MODEL 2
REMARK VINA RESULT:      -5.3     22.844     25.826
REMARK  Name = 154040923
REMARK  9 active torsions:
REMARK  status: ('A' for Active; 'I' for Inactive)
REMARK    1  A    between atoms: O_4  and  N_7
REMARK    2  A    between atoms: O_4  and  C_24
REMARK    3  A    between atoms: C_8  and  C_9
REMARK    4  A    between atoms: C_8  and  C_10
REMARK    5  A    between atoms: C_8  and  C_11
REMARK    6  A    between atoms: C_8  and  C_12
REMARK    7  A    between atoms: C_15  and  C_18
REMARK    8  A    between atoms: C_19  and  C_22
REMARK    9  A    between atoms: C_24  and  C_25
REMARK                            x       y       z     vdW  Elec       q    Type
REMARK                         _______ _______ _______ _____ _____    ______ ____
ROOT
ATOM      1  S   UNL     1      -9.172   4.260 -36.284  0.00  0.00    +0.000 S 
ATOM      2  N   UNL     1     -10.852   6.200 -36.259  0.00  0.00    +0.000 N 
ATOM      3  N   UNL     1      -9.164   6.697 -34.883  0.00  0.00    +0.000 NA
ATOM      4  C   UNL     1     -10.111   7.712 -34.878  0.00  0.00    +0.000 A 
ATOM      5  C   UNL     1     -11.180   7.429 -35.736  0.00  0.00    +0.000 A 
ATOM      6  C   UNL     1      -9.669   5.819 -35.695  0.00  0.00    +0.000 A 
ATOM      7  C   UNL     1     -11.373   5.313 -37.178  0.00  0.00    +0.000 A 
ATOM      8  C   UNL     1     -10.628   4.208 -37.289  0.00  0.00    +0.000 A 
ENDROOT
BRANCH   4  12
ATOM      9  C   UNL     1      -9.476  11.306 -32.614  0.00  0.00    +0.000 A 
ATOM     10  C   UNL     1      -8.955  10.070 -32.190  0.00  0.00    +0.000 A 
ATOM     11  C   UNL     1     -10.274  11.306 -33.765  0.00  0.00    +0.000 A 
ATOM     12  C   UNL     1      -9.954   8.916 -34.083  0.00  0.00    +0.000 A 
ATOM     13  C   UNL     1      -9.192   8.892 -32.909  0.00  0.00    +0.000 A 
ATOM     14  C   UNL     1     -10.533  10.128 -34.466  0.00  0.00    +0.000 A 
BRANCH   9  15
ATOM     15  C   UNL     1      -9.208  12.627 -31.875  0.00  0.00    +0.000 C 
ATOM     16  C   UNL     1     -10.502  13.295 -31.363  0.00  0.00    +0.000 C 
ATOM     17  C   UNL     1      -8.289  12.363 -30.664  0.00  0.00    +0.000 C 
ATOM     18  C   UNL     1      -8.508  13.637 -32.811  0.00  0.00    +0.000 C 
ENDBRANCH   9  15
ENDBRANCH   4  12
BRANCH   5  20
ATOM     19  N   UNL     1     -13.536   8.134 -35.620  0.00  0.00    +0.000 NA
ATOM     20  C   UNL     1     -12.326   8.230 -36.086  0.00  0.00    +0.000 C 
BRANCH  19  21
ATOM     21  O   UNL     1     -13.601   7.225 -34.559  0.00  0.00    +0.000 OA
BRANCH  21  22
ATOM     22  C   UNL     1     -14.454   7.713 -33.529  0.00  0.00    +0.000 C 
BRANCH  22  25
ATOM     23 CL   UNL     1     -10.871   7.237 -29.775  0.00  0.00    +0.000 Cl
ATOM     24 CL   UNL     1     -11.169  10.436 -29.257  0.00  0.00    +0.000 Cl
ATOM     25  C   UNL     1     -13.566   8.366 -32.502  0.00  0.00    +0.000 A 
ATOM     26  C   UNL     1     -12.680   7.615 -31.718  0.00  0.00    +0.000 A 
ATOM     27  C   UNL     1     -13.646   9.752 -32.301  0.00  0.00    +0.000 A 
ATOM     28  C   UNL     1     -11.918   8.236 -30.720  0.00  0.00    +0.000 A 
ATOM     29  C   UNL     1     -12.887  10.372 -31.310  0.00  0.00    +0.000 A 
ATOM     30  C   UNL     1     -12.032   9.615 -30.506  0.00  0.00    +0.000 A 
ENDBRANCH  22  25
ENDBRANCH  21  22
ENDBRANCH  19  21
ENDBRANCH   5  20
TORSDOF 6
ENDMDL
MODEL 3
REMARK VINA RESULT:      -5.3      2.748      4.988
REMARK  Name = 154040923
REMARK  9 active torsions:
REMARK  status: ('A' for Active; 'I' for Inactive)
REMARK    1  A    between atoms: O_4  and  N_7
REMARK    2  A    between atoms: O_4  and  C_24
REMARK    3  A    between atoms: C_8  and  C_9
REMARK    4  A    between atoms: C_8  and  C_10
REMARK    5  A    between atoms: C_8  and  C_11
REMARK    6  A    between atoms: C_8  and  C_12
REMARK    7  A    between atoms: C_15  and  C_18
REMARK    8  A    between atoms: C_19  and  C_22
REMARK    9  A    between atoms: C_24  and  C_25
REMARK                            x       y       z     vdW  Elec       q    Type
REMARK                         _______ _______ _______ _____ _____    ______ ____
ROOT
ATOM      1  S   UNL     1     -22.817  13.264 -56.613  0.00  0.00    +0.000 S 
ATOM      2  N   UNL     1     -21.275  11.408 -57.486  0.00  0.00    +0.000 N 
ATOM      3  N   UNL     1     -23.363  10.621 -57.398  0.00  0.00    +0.000 NA
ATOM      4  C   UNL     1     -22.491   9.637 -57.842  0.00  0.00    +0.000 A 
ATOM      5  C   UNL     1     -21.173  10.103 -57.911  0.00  0.00    +0.000 A 
ATOM      6  C   UNL     1     -22.585  11.635 -57.178  0.00  0.00    +0.000 A 
ATOM      7  C   UNL     1     -20.440  12.494 -57.326  0.00  0.00    +0.000 A 
ATOM      8  C   UNL     1     -21.085  13.556 -56.833  0.00  0.00    +0.000 A 
ENDROOT
BRANCH   4  12
ATOM      9  C   UNL     1     -23.923   5.776 -59.064  0.00  0.00    +0.000 A 
ATOM     10  C   UNL     1     -24.680   6.605 -58.217  0.00  0.00    +0.000 A 
ATOM     11  C   UNL     1     -22.649   6.228 -59.434  0.00  0.00    +0.000 A 
ATOM     12  C   UNL     1     -22.942   8.305 -58.204  0.00  0.00    +0.000 A 
ATOM     13  C   UNL     1     -24.198   7.849 -57.789  0.00  0.00    +0.000 A 
ATOM     14  C   UNL     1     -22.157   7.453 -58.985  0.00  0.00    +0.000 A 
BRANCH   9  15
ATOM     15  C   UNL     1     -24.429   4.423 -59.586  0.00  0.00    +0.000 C 
ATOM     16  C   UNL     1     -24.838   4.474 -61.073  0.00  0.00    +0.000 C 
ATOM     17  C   UNL     1     -23.320   3.361 -59.426  0.00  0.00    +0.000 C 
ATOM     18  C   UNL     1     -25.667   3.963 -58.784  0.00  0.00    +0.000 C 
ENDBRANCH   9  15
ENDBRANCH   4  12
BRANCH   5  20
ATOM     19  N   UNL     1     -19.036   8.906 -57.672  0.00  0.00    +0.000 NA
ATOM     20  C   UNL     1     -19.979   9.448 -58.383  0.00  0.00    +0.000 C 
BRANCH  19  21
ATOM     21  O   UNL     1     -19.377   8.872 -56.317  0.00  0.00    +0.000 OA
BRANCH  21  22
ATOM     22  C   UNL     1     -19.019   7.621 -55.738  0.00  0.00    +0.000 C 
BRANCH  22  25
ATOM     23 CL   UNL     1     -23.906   6.812 -54.118  0.00  0.00    +0.000 Cl
ATOM     24 CL   UNL     1     -23.810   3.946 -55.659  0.00  0.00    +0.000 Cl
ATOM     25  C   UNL     1     -20.259   6.765 -55.753  0.00  0.00    +0.000 A 
ATOM     26  C   UNL     1     -21.415   7.140 -55.055  0.00  0.00    +0.000 A 
ATOM     27  C   UNL     1     -20.251   5.550 -56.455  0.00  0.00    +0.000 A 
ATOM     28  C   UNL     1     -22.529   6.292 -55.025  0.00  0.00    +0.000 A 
ATOM     29  C   UNL     1     -21.360   4.706 -56.427  0.00  0.00    +0.000 A 
ATOM     30  C   UNL     1     -22.497   5.066 -55.700  0.00  0.00    +0.000 A 
ENDBRANCH  22  25
ENDBRANCH  21  22
ENDBRANCH  19  21
ENDBRANCH   5  20
TORSDOF 6
ENDMDL
MODEL 4
REMARK VINA RESULT:      -5.2      3.890      6.904
REMARK  Name = 154040923
REMARK  9 active torsions:
REMARK  status: ('A' for Active; 'I' for Inactive)
REMARK    1  A    between atoms: O_4  and  N_7
REMARK    2  A    between atoms: O_4  and  C_24
REMARK    3  A    between atoms: C_8  and  C_9
REMARK    4  A    between atoms: C_8  and  C_10
REMARK    5  A    between atoms: C_8  and  C_11
REMARK    6  A    between atoms: C_8  and  C_12
REMARK    7  A    between atoms: C_15  and  C_18
REMARK    8  A    between atoms: C_19  and  C_22
REMARK    9  A    between atoms: C_24  and  C_25
REMARK                            x       y       z     vdW  Elec       q    Type
REMARK                         _______ _______ _______ _____ _____    ______ ____
ROOT
ATOM      1  S   UNL     1     -26.006  11.614 -51.447  0.00  0.00    +0.000 S 
ATOM      2  N   UNL     1     -24.449   9.702 -50.735  0.00  0.00    +0.000 N 
ATOM      3  N   UNL     1     -24.454   9.829 -52.965  0.00  0.00    +0.000 NA
ATOM      4  C   UNL     1     -23.641   8.786 -52.539  0.00  0.00    +0.000 A 
ATOM      5  C   UNL     1     -23.617   8.685 -51.143  0.00  0.00    +0.000 A 
ATOM      6  C   UNL     1     -24.925  10.315 -51.858  0.00  0.00    +0.000 A 
ATOM      7  C   UNL     1     -24.883  10.247 -49.544  0.00  0.00    +0.000 A 
ATOM      8  C   UNL     1     -25.747  11.249 -49.735  0.00  0.00    +0.000 A 
ENDROOT
BRANCH   4  12
ATOM      9  C   UNL     1     -21.558   6.389 -55.430  0.00  0.00    +0.000 A 
ATOM     10  C   UNL     1     -22.822   6.014 -54.940  0.00  0.00    +0.000 A 
ATOM     11  C   UNL     1     -20.971   7.537 -54.882  0.00  0.00    +0.000 A 
ATOM     12  C   UNL     1     -22.906   7.946 -53.466  0.00  0.00    +0.000 A 
ATOM     13  C   UNL     1     -23.486   6.776 -53.970  0.00  0.00    +0.000 A 
ATOM     14  C   UNL     1     -21.620   8.281 -53.896  0.00  0.00    +0.000 A 
BRANCH   9  15
ATOM     15  C   UNL     1     -20.813   5.601 -56.519  0.00  0.00    +0.000 C 
ATOM     16  C   UNL     1     -21.141   6.099 -57.942  0.00  0.00    +0.000 C 
ATOM     17  C   UNL     1     -19.291   5.733 -56.299  0.00  0.00    +0.000 C 
ATOM     18  C   UNL     1     -21.190   4.104 -56.458  0.00  0.00    +0.000 C 
ENDBRANCH   9  15
ENDBRANCH   4  12
BRANCH   5  20
ATOM     19  N   UNL     1     -23.271   6.729 -49.689  0.00  0.00    +0.000 NA
ATOM     20  C   UNL     1     -22.858   7.806 -50.289  0.00  0.00    +0.000 C 
BRANCH  19  21
ATOM     21  O   UNL     1     -24.562   6.385 -50.096  0.00  0.00    +0.000 OA
BRANCH  21  22
ATOM     22  C   UNL     1     -25.004   5.208 -49.426  0.00  0.00    +0.000 C 
BRANCH  22  25
ATOM     23 CL   UNL     1     -25.642   3.844 -54.416  0.00  0.00    +0.000 Cl
ATOM     24 CL   UNL     1     -25.614   0.739 -53.441  0.00  0.00    +0.000 Cl
ATOM     25  C   UNL     1     -25.089   4.122 -50.467  0.00  0.00    +0.000 A 
ATOM     26  C   UNL     1     -25.258   4.422 -51.825  0.00  0.00    +0.000 A 
ATOM     27  C   UNL     1     -25.028   2.778 -50.069  0.00  0.00    +0.000 A 
ATOM     28  C   UNL     1     -25.407   3.393 -52.764  0.00  0.00    +0.000 A 
ATOM     29  C   UNL     1     -25.174   1.752 -51.002  0.00  0.00    +0.000 A 
ATOM     30  C   UNL     1     -25.379   2.056 -52.349  0.00  0.00    +0.000 A 
ENDBRANCH  22  25
ENDBRANCH  21  22
ENDBRANCH  19  21
ENDBRANCH   5  20
TORSDOF 6
ENDMDL
MODEL 5
REMARK VINA RESULT:      -5.1     22.981     24.168
REMARK  Name = 154040923
REMARK  9 active torsions:
REMARK  status: ('A' for Active; 'I' for Inactive)
REMARK    1  A    between atoms: O_4  and  N_7
REMARK    2  A    between atoms: O_4  and  C_24
REMARK    3  A    between atoms: C_8  and  C_9
REMARK    4  A    between atoms: C_8  and  C_10
REMARK    5  A    between atoms: C_8  and  C_11
REMARK    6  A    between atoms: C_8  and  C_12
REMARK    7  A    between atoms: C_15  and  C_18
REMARK    8  A    between atoms: C_19  and  C_22
REMARK    9  A    between atoms: C_24  and  C_25
REMARK                            x       y       z     vdW  Elec       q    Type
REMARK                         _______ _______ _______ _____ _____    ______ ____
ROOT
ATOM      1  S   UNL     1      -6.460   6.402 -36.869  0.00  0.00    +0.000 S 
ATOM      2  N   UNL     1      -8.577   4.966 -36.659  0.00  0.00    +0.000 N 
ATOM      3  N   UNL     1      -8.988   6.979 -35.782  0.00  0.00    +0.000 NA
ATOM      4  C   UNL     1     -10.103   6.160 -35.665  0.00  0.00    +0.000 A 
ATOM      5  C   UNL     1      -9.875   4.891 -36.210  0.00  0.00    +0.000 A 
ATOM      6  C   UNL     1      -8.111   6.211 -36.352  0.00  0.00    +0.000 A 
ATOM      7  C   UNL     1      -7.683   4.156 -37.328  0.00  0.00    +0.000 A 
ATOM      8  C   UNL     1      -6.494   4.745 -37.490  0.00  0.00    +0.000 A 
ENDROOT
BRANCH   4  12
ATOM      9  C   UNL     1     -13.824   7.327 -33.864  0.00  0.00    +0.000 A 
ATOM     10  C   UNL     1     -13.725   7.069 -35.243  0.00  0.00    +0.000 A 
ATOM     11  C   UNL     1     -12.643   7.260 -33.112  0.00  0.00    +0.000 A 
ATOM     12  C   UNL     1     -11.342   6.617 -35.064  0.00  0.00    +0.000 A 
ATOM     13  C   UNL     1     -12.504   6.724 -35.837  0.00  0.00    +0.000 A 
ATOM     14  C   UNL     1     -11.422   6.943 -33.708  0.00  0.00    +0.000 A 
BRANCH   9  15
ATOM     15  C   UNL     1     -15.149   7.672 -33.167  0.00  0.00    +0.000 C 
ATOM     16  C   UNL     1     -15.514   9.166 -33.288  0.00  0.00    +0.000 C 
ATOM     17  C   UNL     1     -16.291   6.843 -33.794  0.00  0.00    +0.000 C 
ATOM     18  C   UNL     1     -15.071   7.338 -31.661  0.00  0.00    +0.000 C 
ENDBRANCH   9  15
ENDBRANCH   4  12
BRANCH   5  20
ATOM     19  N   UNL     1     -11.069   2.865 -35.483  0.00  0.00    +0.000 NA
ATOM     20  C   UNL     1     -10.771   3.773 -36.364  0.00  0.00    +0.000 C 
BRANCH  19  21
ATOM     21  O   UNL     1     -10.530   3.176 -34.232  0.00  0.00    +0.000 OA
BRANCH  21  22
ATOM     22  C   UNL     1     -10.981   2.253 -33.245  0.00  0.00    +0.000 C 
BRANCH  22  25
ATOM     23 CL   UNL     1     -15.766   0.288 -33.878  0.00  0.00    +0.000 Cl
ATOM     24 CL   UNL     1     -16.940   3.201 -33.025  0.00  0.00    +0.000 Cl
ATOM     25  C   UNL     1     -12.473   2.428 -33.135  0.00  0.00    +0.000 A 
ATOM     26  C   UNL     1     -13.357   1.393 -33.467  0.00  0.00    +0.000 A 
ATOM     27  C   UNL     1     -12.995   3.662 -32.720  0.00  0.00    +0.000 A 
ATOM     28  C   UNL     1     -14.741   1.604 -33.425  0.00  0.00    +0.000 A 
ATOM     29  C   UNL     1     -14.372   3.874 -32.676  0.00  0.00    +0.000 A 
ATOM     30  C   UNL     1     -15.249   2.852 -33.043  0.00  0.00    +0.000 A 
ENDBRANCH  22  25
ENDBRANCH  21  22
ENDBRANCH  19  21
ENDBRANCH   5  20
TORSDOF 6
ENDMDL
MODEL 6
REMARK VINA RESULT:      -5.1     23.283     25.727
REMARK  Name = 154040923
REMARK  9 active torsions:
REMARK  status: ('A' for Active; 'I' for Inactive)
REMARK    1  A    between atoms: O_4  and  N_7
REMARK    2  A    between atoms: O_4  and  C_24
REMARK    3  A    between atoms: C_8  and  C_9
REMARK    4  A    between atoms: C_8  and  C_10
REMARK    5  A    between atoms: C_8  and  C_11
REMARK    6  A    between atoms: C_8  and  C_12
REMARK    7  A    between atoms: C_15  and  C_18
REMARK    8  A    between atoms: C_19  and  C_22
REMARK    9  A    between atoms: C_24  and  C_25
REMARK                            x       y       z     vdW  Elec       q    Type
REMARK                         _______ _______ _______ _____ _____    ______ ____
ROOT
ATOM      1  S   UNL     1     -11.269   8.133 -32.015  0.00  0.00    +0.000 S 
ATOM      2  N   UNL     1     -11.707   6.676 -34.082  0.00  0.00    +0.000 N 
ATOM      3  N   UNL     1     -10.949   5.372 -32.435  0.00  0.00    +0.000 NA
ATOM      4  C   UNL     1     -11.174   4.624 -33.584  0.00  0.00    +0.000 A 
ATOM      5  C   UNL     1     -11.654   5.416 -34.633  0.00  0.00    +0.000 A 
ATOM      6  C   UNL     1     -11.255   6.579 -32.798  0.00  0.00    +0.000 A 
ATOM      7  C   UNL     1     -12.104   7.940 -34.468  0.00  0.00    +0.000 A 
ATOM      8  C   UNL     1     -11.905   8.845 -33.505  0.00  0.00    +0.000 A 
ENDROOT
BRANCH   4  12
ATOM      9  C   UNL     1     -10.620   0.365 -33.573  0.00  0.00    +0.000 A 
ATOM     10  C   UNL     1      -9.800   1.213 -32.809  0.00  0.00    +0.000 A 
ATOM     11  C   UNL     1     -11.579   0.970 -34.397  0.00  0.00    +0.000 A 
ATOM     12  C   UNL     1     -10.948   3.191 -33.634  0.00  0.00    +0.000 A 
ATOM     13  C   UNL     1      -9.956   2.605 -32.840  0.00  0.00    +0.000 A 
ATOM     14  C   UNL     1     -11.716   2.357 -34.449  0.00  0.00    +0.000 A 
BRANCH   9  15
ATOM     15  C   UNL     1     -10.506  -1.167 -33.540  0.00  0.00    +0.000 C 
ATOM     16  C   UNL     1     -10.427  -1.727 -32.104  0.00  0.00    +0.000 C 
ATOM     17  C   UNL     1     -11.736  -1.790 -34.234  0.00  0.00    +0.000 C 
ATOM     18  C   UNL     1      -9.235  -1.631 -34.285  0.00  0.00    +0.000 C 
ENDBRANCH   9  15
ENDBRANCH   4  12
BRANCH   5  20
ATOM     19  N   UNL     1     -11.360   4.970 -37.036  0.00  0.00    +0.000 NA
ATOM     20  C   UNL     1     -12.082   5.042 -35.957  0.00  0.00    +0.000 C 
BRANCH  19  21
ATOM     21  O   UNL     1     -10.003   5.148 -36.751  0.00  0.00    +0.000 OA
BRANCH  21  22
ATOM     22  C   UNL     1      -9.248   4.017 -37.173  0.00  0.00    +0.000 C 
BRANCH  22  25
ATOM     23 CL   UNL     1      -6.357   0.570 -34.541  0.00  0.00    +0.000 Cl
ATOM     24 CL   UNL     1      -5.428   3.016 -32.604  0.00  0.00    +0.000 Cl
ATOM     25  C   UNL     1      -8.240   3.739 -36.088  0.00  0.00    +0.000 A 
ATOM     26  C   UNL     1      -7.761   2.443 -35.850  0.00  0.00    +0.000 A 
ATOM     27  C   UNL     1      -7.791   4.791 -35.277  0.00  0.00    +0.000 A 
ATOM     28  C   UNL     1      -6.880   2.199 -34.789  0.00  0.00    +0.000 A 
ATOM     29  C   UNL     1      -6.912   4.550 -34.221  0.00  0.00    +0.000 A 
ATOM     30  C   UNL     1      -6.466   3.252 -33.964  0.00  0.00    +0.000 A 
ENDBRANCH  22  25
ENDBRANCH  21  22
ENDBRANCH  19  21
ENDBRANCH   5  20
TORSDOF 6
ENDMDL
MODEL 7
REMARK VINA RESULT:      -5.1      5.075      8.845
REMARK  Name = 154040923
REMARK  9 active torsions:
REMARK  status: ('A' for Active; 'I' for Inactive)
REMARK    1  A    between atoms: O_4  and  N_7
REMARK    2  A    between atoms: O_4  and  C_24
REMARK    3  A    between atoms: C_8  and  C_9
REMARK    4  A    between atoms: C_8  and  C_10
REMARK    5  A    between atoms: C_8  and  C_11
REMARK    6  A    between atoms: C_8  and  C_12
REMARK    7  A    between atoms: C_15  and  C_18
REMARK    8  A    between atoms: C_19  and  C_22
REMARK    9  A    between atoms: C_24  and  C_25
REMARK                            x       y       z     vdW  Elec       q    Type
REMARK                         _______ _______ _______ _____ _____    ______ ____
ROOT
ATOM      1  S   UNL     1     -26.254   4.948 -49.549  0.00  0.00    +0.000 S 
ATOM      2  N   UNL     1     -26.152   6.907 -51.204  0.00  0.00    +0.000 N 
ATOM      3  N   UNL     1     -24.412   5.559 -51.583  0.00  0.00    +0.000 NA
ATOM      4  C   UNL     1     -24.380   6.649 -52.443  0.00  0.00    +0.000 A 
ATOM      5  C   UNL     1     -25.461   7.511 -52.230  0.00  0.00    +0.000 A 
ATOM      6  C   UNL     1     -25.465   5.780 -50.858  0.00  0.00    +0.000 A 
ATOM      7  C   UNL     1     -27.313   7.126 -50.491  0.00  0.00    +0.000 A 
ATOM      8  C   UNL     1     -27.503   6.202 -49.544  0.00  0.00    +0.000 A 
ENDROOT
BRANCH   4  12
ATOM      9  C   UNL     1     -21.191   7.037 -55.294  0.00  0.00    +0.000 A 
ATOM     10  C   UNL     1     -21.296   7.900 -54.189  0.00  0.00    +0.000 A 
ATOM     11  C   UNL     1     -22.209   6.091 -55.469  0.00  0.00    +0.000 A 
ATOM     12  C   UNL     1     -23.342   6.818 -53.443  0.00  0.00    +0.000 A 
ATOM     13  C   UNL     1     -22.356   7.798 -53.279  0.00  0.00    +0.000 A 
ATOM     14  C   UNL     1     -23.280   6.007 -54.579  0.00  0.00    +0.000 A 
BRANCH   9  15
ATOM     15  C   UNL     1     -20.025   7.092 -56.294  0.00  0.00    +0.000 C 
ATOM     16  C   UNL     1     -19.199   5.789 -56.317  0.00  0.00    +0.000 C 
ATOM     17  C   UNL     1     -20.577   7.340 -57.714  0.00  0.00    +0.000 C 
ATOM     18  C   UNL     1     -19.059   8.243 -55.936  0.00  0.00    +0.000 C 
ENDBRANCH   9  15
ENDBRANCH   4  12
BRANCH   5  20
ATOM     19  N   UNL     1     -25.517   9.932 -52.670  0.00  0.00    +0.000 NA
ATOM     20  C   UNL     1     -25.851   8.705 -52.938  0.00  0.00    +0.000 C 
BRANCH  19  21
ATOM     21  O   UNL     1     -24.553   9.988 -51.660  0.00  0.00    +0.000 OA
BRANCH  21  22
ATOM     22  C   UNL     1     -24.935  10.915 -50.649  0.00  0.00    +0.000 C 
BRANCH  22  25
ATOM     23 CL   UNL     1     -23.439   6.679 -48.007  0.00  0.00    +0.000 Cl
ATOM     24 CL   UNL     1     -24.386   8.194 -45.286  0.00  0.00    +0.000 Cl
ATOM     25  C   UNL     1     -24.717  10.230 -49.325  0.00  0.00    +0.000 A 
ATOM     26  C   UNL     1     -24.192   8.933 -49.251  0.00  0.00    +0.000 A 
ATOM     27  C   UNL     1     -25.073  10.889 -48.139  0.00  0.00    +0.000 A 
ATOM     28  C   UNL     1     -24.066   8.290 -48.013  0.00  0.00    +0.000 A 
ATOM     29  C   UNL     1     -24.947  10.252 -46.906  0.00  0.00    +0.000 A 
ATOM     30  C   UNL     1     -24.458   8.946 -46.839  0.00  0.00    +0.000 A 
ENDBRANCH  22  25
ENDBRANCH  21  22
ENDBRANCH  19  21
ENDBRANCH   5  20
TORSDOF 6
ENDMDL
MODEL 8
REMARK VINA RESULT:      -5.0      3.825      6.798
REMARK  Name = 154040923
REMARK  9 active torsions:
REMARK  status: ('A' for Active; 'I' for Inactive)
REMARK    1  A    between atoms: O_4  and  N_7
REMARK    2  A    between atoms: O_4  and  C_24
REMARK    3  A    between atoms: C_8  and  C_9
REMARK    4  A    between atoms: C_8  and  C_10
REMARK    5  A    between atoms: C_8  and  C_11
REMARK    6  A    between atoms: C_8  and  C_12
REMARK    7  A    between atoms: C_15  and  C_18
REMARK    8  A    between atoms: C_19  and  C_22
REMARK    9  A    between atoms: C_24  and  C_25
REMARK                            x       y       z     vdW  Elec       q    Type
REMARK                         _______ _______ _______ _____ _____    ______ ____
ROOT
ATOM      1  S   UNL     1     -25.782  11.454 -50.866  0.00  0.00    +0.000 S 
ATOM      2  N   UNL     1     -24.258   9.423 -50.492  0.00  0.00    +0.000 N 
ATOM      3  N   UNL     1     -24.375   9.836 -52.684  0.00  0.00    +0.000 NA
ATOM      4  C   UNL     1     -23.579   8.725 -52.440  0.00  0.00    +0.000 A 
ATOM      5  C   UNL     1     -23.484   8.444 -51.073  0.00  0.00    +0.000 A 
ATOM      6  C   UNL     1     -24.770  10.188 -51.499  0.00  0.00    +0.000 A 
ATOM      7  C   UNL     1     -24.608   9.822 -49.219  0.00  0.00    +0.000 A 
ATOM      8  C   UNL     1     -25.446  10.864 -49.231  0.00  0.00    +0.000 A 
ENDROOT
BRANCH   4  12
ATOM      9  C   UNL     1     -21.521   6.471 -55.462  0.00  0.00    +0.000 A 
ATOM     10  C   UNL     1     -21.048   7.723 -55.031  0.00  0.00    +0.000 A 
ATOM     11  C   UNL     1     -22.732   6.020 -54.920  0.00  0.00    +0.000 A 
ATOM     12  C   UNL     1     -22.923   7.991 -53.507  0.00  0.00    +0.000 A 
ATOM     13  C   UNL     1     -21.738   8.475 -54.072  0.00  0.00    +0.000 A 
ATOM     14  C   UNL     1     -23.434   6.782 -53.985  0.00  0.00    +0.000 A 
BRANCH   9  15
ATOM     15  C   UNL     1     -20.776   5.598 -56.484  0.00  0.00    +0.000 C 
ATOM     16  C   UNL     1     -19.245   5.636 -56.295  0.00  0.00    +0.000 C 
ATOM     17  C   UNL     1     -21.243   4.133 -56.347  0.00  0.00    +0.000 C 
ATOM     18  C   UNL     1     -21.074   6.075 -57.922  0.00  0.00    +0.000 C 
ENDBRANCH   9  15
ENDBRANCH   4  12
BRANCH   5  20
ATOM     19  N   UNL     1     -23.150   6.370 -49.790  0.00  0.00    +0.000 NA
ATOM     20  C   UNL     1     -22.712   7.442 -50.382  0.00  0.00    +0.000 C 
BRANCH  19  21
ATOM     21  O   UNL     1     -24.512   6.176 -50.032  0.00  0.00    +0.000 OA
BRANCH  21  22
ATOM     22  C   UNL     1     -24.777   4.818 -50.368  0.00  0.00    +0.000 C 
BRANCH  22  25
ATOM     23 CL   UNL     1     -25.470   2.690 -55.075  0.00  0.00    +0.000 Cl
ATOM     24 CL   UNL     1     -27.476   5.159 -55.758  0.00  0.00    +0.000 Cl
ATOM     25  C   UNL     1     -25.484   4.829 -51.698  0.00  0.00    +0.000 A 
ATOM     26  C   UNL     1     -25.235   3.848 -52.667  0.00  0.00    +0.000 A 
ATOM     27  C   UNL     1     -26.391   5.859 -51.989  0.00  0.00    +0.000 A 
ATOM     28  C   UNL     1     -25.851   3.921 -53.923  0.00  0.00    +0.000 A 
ATOM     29  C   UNL     1     -27.007   5.933 -53.238  0.00  0.00    +0.000 A 
ATOM     30  C   UNL     1     -26.727   4.974 -54.214  0.00  0.00    +0.000 A 
ENDBRANCH  22  25
ENDBRANCH  21  22
ENDBRANCH  19  21
ENDBRANCH   5  20
TORSDOF 6
ENDMDL
MODEL 9
REMARK VINA RESULT:      -4.9     12.713     15.574
REMARK  Name = 154040923
REMARK  9 active torsions:
REMARK  status: ('A' for Active; 'I' for Inactive)
REMARK    1  A    between atoms: O_4  and  N_7
REMARK    2  A    between atoms: O_4  and  C_24
REMARK    3  A    between atoms: C_8  and  C_9
REMARK    4  A    between atoms: C_8  and  C_10
REMARK    5  A    between atoms: C_8  and  C_11
REMARK    6  A    between atoms: C_8  and  C_12
REMARK    7  A    between atoms: C_15  and  C_18
REMARK    8  A    between atoms: C_19  and  C_22
REMARK    9  A    between atoms: C_24  and  C_25
REMARK                            x       y       z     vdW  Elec       q    Type
REMARK                         _______ _______ _______ _____ _____    ______ ____
ROOT
ATOM      1  S   UNL     1     -10.874  11.979 -60.045  0.00  0.00    +0.000 S 
ATOM      2  N   UNL     1     -11.188  11.789 -57.505  0.00  0.00    +0.000 N 
ATOM      3  N   UNL     1      -9.311  12.928 -57.910  0.00  0.00    +0.000 NA
ATOM      4  C   UNL     1      -9.504  12.779 -56.543  0.00  0.00    +0.000 A 
ATOM      5  C   UNL     1     -10.677  12.071 -56.259  0.00  0.00    +0.000 A 
ATOM      6  C   UNL     1     -10.321  12.299 -58.426  0.00  0.00    +0.000 A 
ATOM      7  C   UNL     1     -12.306  11.176 -58.032  0.00  0.00    +0.000 A 
ATOM      8  C   UNL     1     -12.285  11.153 -59.368  0.00  0.00    +0.000 A 
ENDROOT
BRANCH   4  12
ATOM      9  C   UNL     1      -6.679  14.253 -53.663  0.00  0.00    +0.000 A 
ATOM     10  C   UNL     1      -7.748  13.422 -53.284  0.00  0.00    +0.000 A 
ATOM     11  C   UNL     1      -6.614  14.643 -55.008  0.00  0.00    +0.000 A 
ATOM     12  C   UNL     1      -8.586  13.332 -55.564  0.00  0.00    +0.000 A 
ATOM     13  C   UNL     1      -8.690  12.970 -54.216  0.00  0.00    +0.000 A 
ATOM     14  C   UNL     1      -7.569  14.216 -55.931  0.00  0.00    +0.000 A 
BRANCH   9  15
ATOM     15  C   UNL     1      -5.603  14.740 -52.680  0.00  0.00    +0.000 C 
ATOM     16  C   UNL     1      -6.174  15.663 -51.583  0.00  0.00    +0.000 C 
ATOM     17  C   UNL     1      -4.945  13.523 -51.994  0.00  0.00    +0.000 C 
ATOM     18  C   UNL     1      -4.508  15.534 -53.425  0.00  0.00    +0.000 C 
ENDBRANCH   9  15
ENDBRANCH   4  12
BRANCH   5  20
ATOM     19  N   UNL     1     -12.010  12.541 -54.243  0.00  0.00    +0.000 NA
ATOM     20  C   UNL     1     -11.290  11.759 -54.992  0.00  0.00    +0.000 C 
BRANCH  19  21
ATOM     21  O   UNL     1     -12.291  13.747 -54.891  0.00  0.00    +0.000 OA
BRANCH  21  22
ATOM     22  C   UNL     1     -12.504  14.789 -53.944  0.00  0.00    +0.000 C 
BRANCH  22  25
ATOM     23 CL   UNL     1      -9.119  17.574 -56.764  0.00  0.00    +0.000 Cl
ATOM     24 CL   UNL     1      -7.449  18.091 -54.019  0.00  0.00    +0.000 Cl
ATOM     25  C   UNL     1     -11.287  15.676 -53.993  0.00  0.00    +0.000 A 
ATOM     26  C   UNL     1     -10.821  16.212 -55.202  0.00  0.00    +0.000 A 
ATOM     27  C   UNL     1     -10.584  15.950 -52.811  0.00  0.00    +0.000 A 
ATOM     28  C   UNL     1      -9.646  16.973 -55.231  0.00  0.00    +0.000 A 
ATOM     29  C   UNL     1      -9.415  16.710 -52.838  0.00  0.00    +0.000 A 
ATOM     30  C   UNL     1      -8.934  17.211 -54.049  0.00  0.00    +0.000 A 
ENDBRANCH  22  25
ENDBRANCH  21  22
ENDBRANCH  19  21
ENDBRANCH   5  20
TORSDOF 6
ENDMDL
MODEL 10
REMARK VINA RESULT:      -4.9     22.980     25.712
REMARK  Name = 154040923
REMARK  9 active torsions:
REMARK  status: ('A' for Active; 'I' for Inactive)
REMARK    1  A    between atoms: O_4  and  N_7
REMARK    2  A    between atoms: O_4  and  C_24
REMARK    3  A    between atoms: C_8  and  C_9
REMARK    4  A    between atoms: C_8  and  C_10
REMARK    5  A    between atoms: C_8  and  C_11
REMARK    6  A    between atoms: C_8  and  C_12
REMARK    7  A    between atoms: C_15  and  C_18
REMARK    8  A    between atoms: C_19  and  C_22
REMARK    9  A    between atoms: C_24  and  C_25
REMARK                            x       y       z     vdW  Elec       q    Type
REMARK                         _______ _______ _______ _____ _____    ______ ____
ROOT
ATOM      1  S   UNL     1      -9.840   9.977 -29.560  0.00  0.00    +0.000 S 
ATOM      2  N   UNL     1     -11.614   9.183 -31.237  0.00  0.00    +0.000 N 
ATOM      3  N   UNL     1     -10.484   7.405 -30.494  0.00  0.00    +0.000 NA
ATOM      4  C   UNL     1     -11.439   7.021 -31.426  0.00  0.00    +0.000 A 
ATOM      5  C   UNL     1     -12.165   8.115 -31.907  0.00  0.00    +0.000 A 
ATOM      6  C   UNL     1     -10.616   8.695 -30.444  0.00  0.00    +0.000 A 
ATOM      7  C   UNL     1     -11.818  10.545 -31.148  0.00  0.00    +0.000 A 
ATOM      8  C   UNL     1     -10.938  11.133 -30.330  0.00  0.00    +0.000 A 
ENDROOT
BRANCH   4  12
ATOM      9  C   UNL     1     -11.854   2.877 -32.476  0.00  0.00    +0.000 A 
ATOM     10  C   UNL     1     -11.228   3.793 -33.339  0.00  0.00    +0.000 A 
ATOM     11  C   UNL     1     -12.404   3.383 -31.290  0.00  0.00    +0.000 A 
ATOM     12  C   UNL     1     -11.639   5.634 -31.805  0.00  0.00    +0.000 A 
ATOM     13  C   UNL     1     -11.125   5.151 -33.014  0.00  0.00    +0.000 A 
ATOM     14  C   UNL     1     -12.325   4.741 -30.979  0.00  0.00    +0.000 A 
BRANCH   9  15
ATOM     15  C   UNL     1     -11.956   1.373 -32.778  0.00  0.00    +0.000 C 
ATOM     16  C   UNL     1     -12.959   1.060 -33.907  0.00  0.00    +0.000 C 
ATOM     17  C   UNL     1     -10.571   0.838 -33.199  0.00  0.00    +0.000 C 
ATOM     18  C   UNL     1     -12.420   0.600 -31.523  0.00  0.00    +0.000 C 
ENDBRANCH   9  15
ENDBRANCH   4  12
BRANCH   5  20
ATOM     19  N   UNL     1     -13.257   8.385 -34.097  0.00  0.00    +0.000 NA
ATOM     20  C   UNL     1     -13.283   8.161 -32.817  0.00  0.00    +0.000 C 
BRANCH  19  21
ATOM     21  O   UNL     1     -11.946   8.426 -34.579  0.00  0.00    +0.000 OA
BRANCH  21  22
ATOM     22  C   UNL     1     -11.916   8.175 -35.980  0.00  0.00    +0.000 C 
BRANCH  22  25
ATOM     23 CL   UNL     1      -7.148   6.077 -35.803  0.00  0.00    +0.000 Cl
ATOM     24 CL   UNL     1      -8.415   3.394 -37.139  0.00  0.00    +0.000 Cl
ATOM     25  C   UNL     1     -11.023   6.980 -36.189  0.00  0.00    +0.000 A 
ATOM     26  C   UNL     1      -9.654   7.029 -35.894  0.00  0.00    +0.000 A 
ATOM     27  C   UNL     1     -11.564   5.798 -36.717  0.00  0.00    +0.000 A 
ATOM     28  C   UNL     1      -8.832   5.928 -36.166  0.00  0.00    +0.000 A 
ATOM     29  C   UNL     1     -10.747   4.700 -36.986  0.00  0.00    +0.000 A 
ATOM     30  C   UNL     1      -9.377   4.767 -36.726  0.00  0.00    +0.000 A 
ENDBRANCH  22  25
ENDBRANCH  21  22
ENDBRANCH  19  21
ENDBRANCH   5  20
TORSDOF 6
ENDMDL
