MODEL 1
REMARK VINA RESULT:      -5.3      0.000      0.000
REMARK  Name = 154040920
REMARK  6 active torsions:
REMARK  status: ('A' for Active; 'I' for Inactive)
REMARK    1  A    between atoms: O_4  and  N_7
REMARK    2  A    between atoms: O_4  and  C_22
REMARK    3  A    between atoms: C_9  and  C_14
REMARK    4  A    between atoms: C_10  and  C_12
REMARK    5  A    between atoms: C_20  and  C_28
REMARK    6  A    between atoms: C_21  and  C_22
REMARK                            x       y       z     vdW  Elec       q    Type
REMARK                         _______ _______ _______ _____ _____    ______ ____
ROOT
ATOM      1  S   UNL     1     -24.130   9.037 -60.393  0.00  0.00    +0.000 S 
ATOM      2  N   UNL     1     -22.287   9.833 -58.790  0.00  0.00    +0.000 N 
ATOM      3  N   UNL     1     -23.806   8.683 -57.624  0.00  0.00    +0.000 NA
ATOM      4  C   UNL     1     -21.830   9.869 -57.494  0.00  0.00    +0.000 A 
ATOM      5  C   UNL     1     -22.800   9.145 -56.788  0.00  0.00    +0.000 A 
ATOM      6  C   UNL     1     -23.462   9.145 -58.793  0.00  0.00    +0.000 A 
ATOM      7  C   UNL     1     -21.861  10.254 -60.033  0.00  0.00    +0.000 A 
ATOM      8  C   UNL     1     -22.735   9.938 -61.002  0.00  0.00    +0.000 A 
ENDROOT
BRANCH   5   9
ATOM      9  C   UNL     1     -22.796   8.840 -55.361  0.00  0.00    +0.000 A 
ATOM     10  C   UNL     1     -22.306   7.602 -54.919  0.00  0.00    +0.000 A 
ATOM     11  C   UNL     1     -23.267   9.753 -54.406  0.00  0.00    +0.000 A 
ATOM     12  C   UNL     1     -22.230   7.307 -53.553  0.00  0.00    +0.000 A 
ATOM     13  C   UNL     1     -23.177   9.469 -53.040  0.00  0.00    +0.000 A 
ATOM     14  C   UNL     1     -22.646   8.250 -52.611  0.00  0.00    +0.000 A 
BRANCH  14  16
ATOM     15  N   UNL     1     -22.411   7.750 -50.081  0.00  0.00    +0.000 NA
ATOM     16  C   UNL     1     -22.525   7.973 -51.212  0.00  0.00    +0.000 C 
ENDBRANCH  14  16
ENDBRANCH   5   9
BRANCH   4  18
ATOM     17  N   UNL     1     -19.397   9.951 -57.182  0.00  0.00    +0.000 NA
ATOM     18  C   UNL     1     -20.592  10.446 -57.042  0.00  0.00    +0.000 C 
BRANCH  17  19
ATOM     19  O   UNL     1     -19.404   8.812 -57.996  0.00  0.00    +0.000 OA
BRANCH  19  20
ATOM     20  C   UNL     1     -18.732   7.735 -57.344  0.00  0.00    +0.000 C 
BRANCH  20  23
ATOM     21 CL   UNL     1     -22.939   5.294 -59.228  0.00  0.00    +0.000 Cl
ATOM     22 CL   UNL     1     -22.619   3.139 -56.811  0.00  0.00    +0.000 Cl
ATOM     23  C   UNL     1     -19.701   6.584 -57.267  0.00  0.00    +0.000 A 
ATOM     24  C   UNL     1     -20.755   6.448 -58.181  0.00  0.00    +0.000 A 
ATOM     25  C   UNL     1     -19.562   5.632 -56.245  0.00  0.00    +0.000 A 
ATOM     26  C   UNL     1     -21.662   5.388 -58.065  0.00  0.00    +0.000 A 
ATOM     27  C   UNL     1     -20.464   4.574 -56.130  0.00  0.00    +0.000 A 
ATOM     28  C   UNL     1     -21.522   4.453 -57.033  0.00  0.00    +0.000 A 
ENDBRANCH  20  23
ENDBRANCH  19  20
ENDBRANCH  17  19
ENDBRANCH   4  18
TORSDOF 6
ENDMDL
MODEL 2
REMARK VINA RESULT:      -5.1     23.349     25.507
REMARK  Name = 154040920
REMARK  6 active torsions:
REMARK  status: ('A' for Active; 'I' for Inactive)
REMARK    1  A    between atoms: O_4  and  N_7
REMARK    2  A    between atoms: O_4  and  C_22
REMARK    3  A    between atoms: C_9  and  C_14
REMARK    4  A    between atoms: C_10  and  C_12
REMARK    5  A    between atoms: C_20  and  C_28
REMARK    6  A    between atoms: C_21  and  C_22
REMARK                            x       y       z     vdW  Elec       q    Type
REMARK                         _______ _______ _______ _____ _____    ______ ____
ROOT
ATOM      1  S   UNL     1     -15.184   7.739 -35.670  0.00  0.00    +0.000 S 
ATOM      2  N   UNL     1     -13.562   6.366 -34.225  0.00  0.00    +0.000 N 
ATOM      3  N   UNL     1     -12.539   6.912 -36.134  0.00  0.00    +0.000 NA
ATOM      4  C   UNL     1     -12.314   5.800 -34.124  0.00  0.00    +0.000 A 
ATOM      5  C   UNL     1     -11.698   6.154 -35.331  0.00  0.00    +0.000 A 
ATOM      6  C   UNL     1     -13.637   6.982 -35.437  0.00  0.00    +0.000 A 
ATOM      7  C   UNL     1     -14.686   6.505 -33.435  0.00  0.00    +0.000 A 
ATOM      8  C   UNL     1     -15.661   7.187 -34.058  0.00  0.00    +0.000 A 
ENDROOT
BRANCH   5   9
ATOM      9  C   UNL     1     -10.334   5.838 -35.742  0.00  0.00    +0.000 A 
ATOM     10  C   UNL     1     -10.052   4.580 -36.296  0.00  0.00    +0.000 A 
ATOM     11  C   UNL     1      -9.285   6.758 -35.604  0.00  0.00    +0.000 A 
ATOM     12  C   UNL     1      -8.768   4.272 -36.759  0.00  0.00    +0.000 A 
ATOM     13  C   UNL     1      -8.004   6.460 -36.079  0.00  0.00    +0.000 A 
ATOM     14  C   UNL     1      -7.747   5.221 -36.670  0.00  0.00    +0.000 A 
BRANCH  14  16
ATOM     15  N   UNL     1      -5.393   4.700 -37.616  0.00  0.00    +0.000 NA
ATOM     16  C   UNL     1      -6.444   4.928 -37.185  0.00  0.00    +0.000 C 
ENDBRANCH  14  16
ENDBRANCH   5   9
BRANCH   4  18
ATOM     17  N   UNL     1     -10.863   5.514 -32.166  0.00  0.00    +0.000 NA
ATOM     18  C   UNL     1     -11.786   5.099 -32.984  0.00  0.00    +0.000 C 
BRANCH  17  19
ATOM     19  O   UNL     1     -10.516   6.847 -32.415  0.00  0.00    +0.000 OA
BRANCH  19  20
ATOM     20  C   UNL     1     -11.278   7.720 -31.581  0.00  0.00    +0.000 C 
BRANCH  20  23
ATOM     21 CL   UNL     1     -12.772  12.717 -31.524  0.00  0.00    +0.000 Cl
ATOM     22 CL   UNL     1     -11.143  13.108 -34.314  0.00  0.00    +0.000 Cl
ATOM     23  C   UNL     1     -11.240   9.087 -32.213  0.00  0.00    +0.000 A 
ATOM     24  C   UNL     1     -11.923  10.175 -31.650  0.00  0.00    +0.000 A 
ATOM     25  C   UNL     1     -10.522   9.279 -33.403  0.00  0.00    +0.000 A 
ATOM     26  C   UNL     1     -11.899  11.428 -32.277  0.00  0.00    +0.000 A 
ATOM     27  C   UNL     1     -10.495  10.526 -34.026  0.00  0.00    +0.000 A 
ATOM     28  C   UNL     1     -11.191  11.602 -33.471  0.00  0.00    +0.000 A 
ENDBRANCH  20  23
ENDBRANCH  19  20
ENDBRANCH  17  19
ENDBRANCH   4  18
TORSDOF 6
ENDMDL
MODEL 3
REMARK VINA RESULT:      -5.0     17.710     19.474
REMARK  Name = 154040920
REMARK  6 active torsions:
REMARK  status: ('A' for Active; 'I' for Inactive)
REMARK    1  A    between atoms: O_4  and  N_7
REMARK    2  A    between atoms: O_4  and  C_22
REMARK    3  A    between atoms: C_9  and  C_14
REMARK    4  A    between atoms: C_10  and  C_12
REMARK    5  A    between atoms: C_20  and  C_28
REMARK    6  A    between atoms: C_21  and  C_22
REMARK                            x       y       z     vdW  Elec       q    Type
REMARK                         _______ _______ _______ _____ _____    ______ ____
ROOT
ATOM      1  S   UNL     1      -4.892  -3.906 -49.757  0.00  0.00    +0.000 S 
ATOM      2  N   UNL     1      -6.552  -2.679 -51.286  0.00  0.00    +0.000 N 
ATOM      3  N   UNL     1      -4.828  -1.323 -50.861  0.00  0.00    +0.000 NA
ATOM      4  C   UNL     1      -6.849  -1.517 -51.958  0.00  0.00    +0.000 A 
ATOM      5  C   UNL     1      -5.756  -0.688 -51.673  0.00  0.00    +0.000 A 
ATOM      6  C   UNL     1      -5.366  -2.489 -50.643  0.00  0.00    +0.000 A 
ATOM      7  C   UNL     1      -7.094  -3.939 -51.138  0.00  0.00    +0.000 A 
ATOM      8  C   UNL     1      -6.354  -4.718 -50.333  0.00  0.00    +0.000 A 
ENDROOT
BRANCH   5   9
ATOM      9  C   UNL     1      -5.536   0.667 -52.167  0.00  0.00    +0.000 A 
ATOM     10  C   UNL     1      -4.672   1.526 -51.470  0.00  0.00    +0.000 A 
ATOM     11  C   UNL     1      -6.161   1.145 -53.327  0.00  0.00    +0.000 A 
ATOM     12  C   UNL     1      -4.391   2.808 -51.954  0.00  0.00    +0.000 A 
ATOM     13  C   UNL     1      -5.871   2.420 -53.823  0.00  0.00    +0.000 A 
ATOM     14  C   UNL     1      -4.975   3.249 -53.145  0.00  0.00    +0.000 A 
BRANCH  14  16
ATOM     15  N   UNL     1      -4.382   5.579 -54.105  0.00  0.00    +0.000 NA
ATOM     16  C   UNL     1      -4.653   4.541 -53.669  0.00  0.00    +0.000 C 
ENDBRANCH  14  16
ENDBRANCH   5   9
BRANCH   4  18
ATOM     17  N   UNL     1      -8.148  -1.735 -54.029  0.00  0.00    +0.000 NA
ATOM     18  C   UNL     1      -7.983  -1.296 -52.815  0.00  0.00    +0.000 C 
BRANCH  17  19
ATOM     19  O   UNL     1      -7.133  -2.627 -54.396  0.00  0.00    +0.000 OA
BRANCH  19  20
ATOM     20  C   UNL     1      -6.743  -2.402 -55.750  0.00  0.00    +0.000 C 
BRANCH  20  23
ATOM     21 CL   UNL     1      -4.330   1.825 -57.627  0.00  0.00    +0.000 Cl
ATOM     22 CL   UNL     1      -1.853   1.147 -55.629  0.00  0.00    +0.000 Cl
ATOM     23  C   UNL     1      -5.557  -1.473 -55.725  0.00  0.00    +0.000 A 
ATOM     24  C   UNL     1      -5.481  -0.356 -56.569  0.00  0.00    +0.000 A 
ATOM     25  C   UNL     1      -4.491  -1.737 -54.852  0.00  0.00    +0.000 A 
ATOM     26  C   UNL     1      -4.351   0.472 -56.550  0.00  0.00    +0.000 A 
ATOM     27  C   UNL     1      -3.366  -0.913 -54.830  0.00  0.00    +0.000 A 
ATOM     28  C   UNL     1      -3.288   0.189 -55.685  0.00  0.00    +0.000 A 
ENDBRANCH  20  23
ENDBRANCH  19  20
ENDBRANCH  17  19
ENDBRANCH   4  18
TORSDOF 6
ENDMDL
MODEL 4
REMARK VINA RESULT:      -5.0     24.243     26.666
REMARK  Name = 154040920
REMARK  6 active torsions:
REMARK  status: ('A' for Active; 'I' for Inactive)
REMARK    1  A    between atoms: O_4  and  N_7
REMARK    2  A    between atoms: O_4  and  C_22
REMARK    3  A    between atoms: C_9  and  C_14
REMARK    4  A    between atoms: C_10  and  C_12
REMARK    5  A    between atoms: C_20  and  C_28
REMARK    6  A    between atoms: C_21  and  C_22
REMARK                            x       y       z     vdW  Elec       q    Type
REMARK                         _______ _______ _______ _____ _____    ______ ____
ROOT
ATOM      1  S   UNL     1      -3.865  -0.208 -32.585  0.00  0.00    +0.000 S 
ATOM      2  N   UNL     1      -5.300   0.267 -34.661  0.00  0.00    +0.000 N 
ATOM      3  N   UNL     1      -6.418   0.934 -32.846  0.00  0.00    +0.000 NA
ATOM      4  C   UNL     1      -6.491   0.753 -35.146  0.00  0.00    +0.000 A 
ATOM      5  C   UNL     1      -7.170   1.160 -33.991  0.00  0.00    +0.000 A 
ATOM      6  C   UNL     1      -5.333   0.380 -33.305  0.00  0.00    +0.000 A 
ATOM      7  C   UNL     1      -4.121  -0.237 -35.172  0.00  0.00    +0.000 A 
ATOM      8  C   UNL     1      -3.251  -0.568 -34.205  0.00  0.00    +0.000 A 
ENDROOT
BRANCH   5   9
ATOM      9  C   UNL     1      -8.486   1.788 -33.926  0.00  0.00    +0.000 A 
ATOM     10  C   UNL     1      -9.629   1.033 -34.228  0.00  0.00    +0.000 A 
ATOM     11  C   UNL     1      -8.648   3.134 -33.565  0.00  0.00    +0.000 A 
ATOM     12  C   UNL     1     -10.907   1.590 -34.111  0.00  0.00    +0.000 A 
ATOM     13  C   UNL     1      -9.925   3.689 -33.432  0.00  0.00    +0.000 A 
ATOM     14  C   UNL     1     -11.057   2.914 -33.692  0.00  0.00    +0.000 A 
BRANCH  14  16
ATOM     15  N   UNL     1     -13.416   3.937 -33.379  0.00  0.00    +0.000 NA
ATOM     16  C   UNL     1     -12.364   3.474 -33.525  0.00  0.00    +0.000 C 
ENDBRANCH  14  16
ENDBRANCH   5   9
BRANCH   4  18
ATOM     17  N   UNL     1      -6.881   1.966 -37.244  0.00  0.00    +0.000 NA
ATOM     18  C   UNL     1      -6.860   0.878 -36.531  0.00  0.00    +0.000 C 
BRANCH  17  19
ATOM     19  O   UNL     1      -6.330   3.048 -36.547  0.00  0.00    +0.000 OA
BRANCH  19  20
ATOM     20  C   UNL     1      -6.451   4.244 -37.316  0.00  0.00    +0.000 C 
BRANCH  20  23
ATOM     21 CL   UNL     1     -11.635   4.620 -36.880  0.00  0.00    +0.000 Cl
ATOM     22 CL   UNL     1     -11.176   7.423 -35.293  0.00  0.00    +0.000 Cl
ATOM     23  C   UNL     1      -7.654   4.989 -36.798  0.00  0.00    +0.000 A 
ATOM     24  C   UNL     1      -8.957   4.525 -37.021  0.00  0.00    +0.000 A 
ATOM     25  C   UNL     1      -7.472   6.187 -36.090  0.00  0.00    +0.000 A 
ATOM     26  C   UNL     1     -10.059   5.255 -36.558  0.00  0.00    +0.000 A 
ATOM     27  C   UNL     1      -8.568   6.914 -35.626  0.00  0.00    +0.000 A 
ATOM     28  C   UNL     1      -9.865   6.456 -35.866  0.00  0.00    +0.000 A 
ENDBRANCH  20  23
ENDBRANCH  19  20
ENDBRANCH  17  19
ENDBRANCH   4  18
TORSDOF 6
ENDMDL
MODEL 5
REMARK VINA RESULT:      -5.0     24.078     25.889
REMARK  Name = 154040920
REMARK  6 active torsions:
REMARK  status: ('A' for Active; 'I' for Inactive)
REMARK    1  A    between atoms: O_4  and  N_7
REMARK    2  A    between atoms: O_4  and  C_22
REMARK    3  A    between atoms: C_9  and  C_14
REMARK    4  A    between atoms: C_10  and  C_12
REMARK    5  A    between atoms: C_20  and  C_28
REMARK    6  A    between atoms: C_21  and  C_22
REMARK                            x       y       z     vdW  Elec       q    Type
REMARK                         _______ _______ _______ _____ _____    ______ ____
ROOT
ATOM      1  S   UNL     1      -6.485   1.421 -32.376  0.00  0.00    +0.000 S 
ATOM      2  N   UNL     1      -7.597   2.484 -34.433  0.00  0.00    +0.000 N 
ATOM      3  N   UNL     1      -8.908   2.815 -32.656  0.00  0.00    +0.000 NA
ATOM      4  C   UNL     1      -8.681   3.171 -34.925  0.00  0.00    +0.000 A 
ATOM      5  C   UNL     1      -9.484   3.362 -33.793  0.00  0.00    +0.000 A 
ATOM      6  C   UNL     1      -7.805   2.285 -33.103  0.00  0.00    +0.000 A 
ATOM      7  C   UNL     1      -6.391   2.007 -34.908  0.00  0.00    +0.000 A 
ATOM      8  C   UNL     1      -5.681   1.387 -33.952  0.00  0.00    +0.000 A 
ENDROOT
BRANCH   5   9
ATOM      9  C   UNL     1     -10.758   4.073 -33.735  0.00  0.00    +0.000 A 
ATOM     10  C   UNL     1     -11.655   3.975 -34.809  0.00  0.00    +0.000 A 
ATOM     11  C   UNL     1     -11.120   4.857 -32.630  0.00  0.00    +0.000 A 
ATOM     12  C   UNL     1     -12.909   4.592 -34.754  0.00  0.00    +0.000 A 
ATOM     13  C   UNL     1     -12.379   5.462 -32.564  0.00  0.00    +0.000 A 
ATOM     14  C   UNL     1     -13.281   5.320 -33.621  0.00  0.00    +0.000 A 
BRANCH  14  16
ATOM     15  N   UNL     1     -15.640   6.378 -33.468  0.00  0.00    +0.000 NA
ATOM     16  C   UNL     1     -14.581   5.912 -33.540  0.00  0.00    +0.000 C 
ENDBRANCH  14  16
ENDBRANCH   5   9
BRANCH   4  18
ATOM     17  N   UNL     1      -8.617   4.839 -36.724  0.00  0.00    +0.000 NA
ATOM     18  C   UNL     1      -8.852   3.641 -36.274  0.00  0.00    +0.000 C 
BRANCH  17  19
ATOM     19  O   UNL     1      -7.998   5.640 -35.757  0.00  0.00    +0.000 OA
BRANCH  19  20
ATOM     20  C   UNL     1      -8.154   7.021 -36.085  0.00  0.00    +0.000 C 
BRANCH  20  23
ATOM     21 CL   UNL     1     -13.234   8.202 -35.992  0.00  0.00    +0.000 Cl
ATOM     22 CL   UNL     1     -12.815   9.220 -32.930  0.00  0.00    +0.000 Cl
ATOM     23  C   UNL     1      -9.348   7.530 -35.321  0.00  0.00    +0.000 A 
ATOM     24  C   UNL     1     -10.617   7.614 -35.912  0.00  0.00    +0.000 A 
ATOM     25  C   UNL     1      -9.190   7.950 -33.992  0.00  0.00    +0.000 A 
ATOM     26  C   UNL     1     -11.704   8.124 -35.190  0.00  0.00    +0.000 A 
ATOM     27  C   UNL     1     -10.271   8.456 -33.270  0.00  0.00    +0.000 A 
ATOM     28  C   UNL     1     -11.529   8.553 -33.870  0.00  0.00    +0.000 A 
ENDBRANCH  20  23
ENDBRANCH  19  20
ENDBRANCH  17  19
ENDBRANCH   4  18
TORSDOF 6
ENDMDL
MODEL 6
REMARK VINA RESULT:      -4.9     10.417     12.587
REMARK  Name = 154040920
REMARK  6 active torsions:
REMARK  status: ('A' for Active; 'I' for Inactive)
REMARK    1  A    between atoms: O_4  and  N_7
REMARK    2  A    between atoms: O_4  and  C_22
REMARK    3  A    between atoms: C_9  and  C_14
REMARK    4  A    between atoms: C_10  and  C_12
REMARK    5  A    between atoms: C_20  and  C_28
REMARK    6  A    between atoms: C_21  and  C_22
REMARK                            x       y       z     vdW  Elec       q    Type
REMARK                         _______ _______ _______ _____ _____    ______ ____
ROOT
ATOM      1  S   UNL     1     -16.475  13.448 -59.212  0.00  0.00    +0.000 S 
ATOM      2  N   UNL     1     -14.332  12.037 -59.349  0.00  0.00    +0.000 N 
ATOM      3  N   UNL     1     -14.195  13.382 -57.571  0.00  0.00    +0.000 NA
ATOM      4  C   UNL     1     -13.106  11.757 -58.795  0.00  0.00    +0.000 A 
ATOM      5  C   UNL     1     -13.046  12.613 -57.688  0.00  0.00    +0.000 A 
ATOM      6  C   UNL     1     -14.908  13.016 -58.598  0.00  0.00    +0.000 A 
ATOM      7  C   UNL     1     -15.111  11.574 -60.390  0.00  0.00    +0.000 A 
ATOM      8  C   UNL     1     -16.277  12.232 -60.483  0.00  0.00    +0.000 A 
ENDROOT
BRANCH   5   9
ATOM      9  C   UNL     1     -11.964  12.708 -56.714  0.00  0.00    +0.000 A 
ATOM     10  C   UNL     1     -10.976  11.712 -56.677  0.00  0.00    +0.000 A 
ATOM     11  C   UNL     1     -11.874  13.773 -55.807  0.00  0.00    +0.000 A 
ATOM     12  C   UNL     1      -9.892  11.811 -55.799  0.00  0.00    +0.000 A 
ATOM     13  C   UNL     1     -10.783  13.884 -54.938  0.00  0.00    +0.000 A 
ATOM     14  C   UNL     1      -9.783  12.909 -54.942  0.00  0.00    +0.000 A 
BRANCH  14  16
ATOM     15  N   UNL     1      -7.733  13.126 -53.375  0.00  0.00    +0.000 NA
ATOM     16  C   UNL     1      -8.651  13.038 -54.076  0.00  0.00    +0.000 C 
ENDBRANCH  14  16
ENDBRANCH   5   9
BRANCH   4  18
ATOM     17  N   UNL     1     -11.356  10.818 -60.238  0.00  0.00    +0.000 NA
ATOM     18  C   UNL     1     -12.183  10.745 -59.236  0.00  0.00    +0.000 C 
BRANCH  17  19
ATOM     19  O   UNL     1     -11.330  12.105 -60.790  0.00  0.00    +0.000 OA
BRANCH  19  20
ATOM     20  C   UNL     1      -9.982  12.520 -61.010  0.00  0.00    +0.000 C 
BRANCH  20  23
ATOM     21 CL   UNL     1      -6.773  13.809 -57.105  0.00  0.00    +0.000 Cl
ATOM     22 CL   UNL     1      -8.736  16.330 -56.488  0.00  0.00    +0.000 Cl
ATOM     23  C   UNL     1      -9.618  13.467 -59.896  0.00  0.00    +0.000 A 
ATOM     24  C   UNL     1      -8.483  13.260 -59.099  0.00  0.00    +0.000 A 
ATOM     25  C   UNL     1     -10.440  14.572 -59.632  0.00  0.00    +0.000 A 
ATOM     26  C   UNL     1      -8.187  14.137 -58.047  0.00  0.00    +0.000 A 
ATOM     27  C   UNL     1     -10.145  15.447 -58.587  0.00  0.00    +0.000 A 
ATOM     28  C   UNL     1      -9.023  15.227 -57.785  0.00  0.00    +0.000 A 
ENDBRANCH  20  23
ENDBRANCH  19  20
ENDBRANCH  17  19
ENDBRANCH   4  18
TORSDOF 6
ENDMDL
MODEL 7
REMARK VINA RESULT:      -4.9     17.703     19.234
REMARK  Name = 154040920
REMARK  6 active torsions:
REMARK  status: ('A' for Active; 'I' for Inactive)
REMARK    1  A    between atoms: O_4  and  N_7
REMARK    2  A    between atoms: O_4  and  C_22
REMARK    3  A    between atoms: C_9  and  C_14
REMARK    4  A    between atoms: C_10  and  C_12
REMARK    5  A    between atoms: C_20  and  C_28
REMARK    6  A    between atoms: C_21  and  C_22
REMARK                            x       y       z     vdW  Elec       q    Type
REMARK                         _______ _______ _______ _____ _____    ______ ____
ROOT
ATOM      1  S   UNL     1      -8.971  -3.380 -49.470  0.00  0.00    +0.000 S 
ATOM      2  N   UNL     1      -6.776  -3.183 -50.791  0.00  0.00    +0.000 N 
ATOM      3  N   UNL     1      -7.759  -1.178 -50.726  0.00  0.00    +0.000 NA
ATOM      4  C   UNL     1      -5.934  -2.360 -51.501  0.00  0.00    +0.000 A 
ATOM      5  C   UNL     1      -6.575  -1.116 -51.447  0.00  0.00    +0.000 A 
ATOM      6  C   UNL     1      -7.838  -2.433 -50.386  0.00  0.00    +0.000 A 
ATOM      7  C   UNL     1      -6.798  -4.495 -50.364  0.00  0.00    +0.000 A 
ATOM      8  C   UNL     1      -7.910  -4.782 -49.668  0.00  0.00    +0.000 A 
ENDROOT
BRANCH   5   9
ATOM      9  C   UNL     1      -6.095   0.139 -52.016  0.00  0.00    +0.000 A 
ATOM     10  C   UNL     1      -6.436   0.476 -53.335  0.00  0.00    +0.000 A 
ATOM     11  C   UNL     1      -5.300   1.031 -51.282  0.00  0.00    +0.000 A 
ATOM     12  C   UNL     1      -6.045   1.702 -53.886  0.00  0.00    +0.000 A 
ATOM     13  C   UNL     1      -4.921   2.264 -51.824  0.00  0.00    +0.000 A 
ATOM     14  C   UNL     1      -5.304   2.607 -53.122  0.00  0.00    +0.000 A 
BRANCH  14  16
ATOM     15  N   UNL     1      -4.638   4.912 -54.094  0.00  0.00    +0.000 NA
ATOM     16  C   UNL     1      -4.944   3.881 -53.664  0.00  0.00    +0.000 C 
ENDBRANCH  14  16
ENDBRANCH   5   9
BRANCH   4  18
ATOM     17  N   UNL     1      -4.408  -3.015 -53.308  0.00  0.00    +0.000 NA
ATOM     18  C   UNL     1      -4.662  -2.725 -52.065  0.00  0.00    +0.000 C 
BRANCH  17  19
ATOM     19  O   UNL     1      -5.516  -2.776 -54.129  0.00  0.00    +0.000 OA
BRANCH  19  20
ATOM     20  C   UNL     1      -5.340  -3.414 -55.394  0.00  0.00    +0.000 C 
BRANCH  20  23
ATOM     21 CL   UNL     1      -4.307   1.430 -57.029  0.00  0.00    +0.000 Cl
ATOM     22 CL   UNL     1      -6.094   0.787 -59.671  0.00  0.00    +0.000 Cl
ATOM     23  C   UNL     1      -5.475  -2.352 -56.453  0.00  0.00    +0.000 A 
ATOM     24  C   UNL     1      -4.887  -1.088 -56.305  0.00  0.00    +0.000 A 
ATOM     25  C   UNL     1      -6.222  -2.621 -57.610  0.00  0.00    +0.000 A 
ATOM     26  C   UNL     1      -5.057  -0.106 -57.290  0.00  0.00    +0.000 A 
ATOM     27  C   UNL     1      -6.390  -1.646 -58.593  0.00  0.00    +0.000 A 
ATOM     28  C   UNL     1      -5.817  -0.382 -58.432  0.00  0.00    +0.000 A 
ENDBRANCH  20  23
ENDBRANCH  19  20
ENDBRANCH  17  19
ENDBRANCH   4  18
TORSDOF 6
ENDMDL
MODEL 8
REMARK VINA RESULT:      -4.9      2.125      2.833
REMARK  Name = 154040920
REMARK  6 active torsions:
REMARK  status: ('A' for Active; 'I' for Inactive)
REMARK    1  A    between atoms: O_4  and  N_7
REMARK    2  A    between atoms: O_4  and  C_22
REMARK    3  A    between atoms: C_9  and  C_14
REMARK    4  A    between atoms: C_10  and  C_12
REMARK    5  A    between atoms: C_20  and  C_28
REMARK    6  A    between atoms: C_21  and  C_22
REMARK                            x       y       z     vdW  Elec       q    Type
REMARK                         _______ _______ _______ _____ _____    ______ ____
ROOT
ATOM      1  S   UNL     1     -22.311  10.516 -58.942  0.00  0.00    +0.000 S 
ATOM      2  N   UNL     1     -20.823   9.091 -57.408  0.00  0.00    +0.000 N 
ATOM      3  N   UNL     1     -22.891   9.135 -56.565  0.00  0.00    +0.000 NA
ATOM      4  C   UNL     1     -20.746   8.339 -56.260  0.00  0.00    +0.000 A 
ATOM      5  C   UNL     1     -22.051   8.385 -55.753  0.00  0.00    +0.000 A 
ATOM      6  C   UNL     1     -22.101   9.549 -57.514  0.00  0.00    +0.000 A 
ATOM      7  C   UNL     1     -19.992   9.446 -58.452  0.00  0.00    +0.000 A 
ATOM      8  C   UNL     1     -20.613  10.229 -59.348  0.00  0.00    +0.000 A 
ENDROOT
BRANCH   5   9
ATOM      9  C   UNL     1     -22.547   7.721 -54.552  0.00  0.00    +0.000 A 
ATOM     10  C   UNL     1     -22.196   8.221 -53.289  0.00  0.00    +0.000 A 
ATOM     11  C   UNL     1     -23.372   6.589 -54.618  0.00  0.00    +0.000 A 
ATOM     12  C   UNL     1     -22.709   7.644 -52.122  0.00  0.00    +0.000 A 
ATOM     13  C   UNL     1     -23.899   6.019 -53.455  0.00  0.00    +0.000 A 
ATOM     14  C   UNL     1     -23.579   6.554 -52.205  0.00  0.00    +0.000 A 
BRANCH  14  16
ATOM     15  N   UNL     1     -24.590   5.544 -50.046  0.00  0.00    +0.000 NA
ATOM     16  C   UNL     1     -24.143   5.991 -51.017  0.00  0.00    +0.000 C 
ENDBRANCH  14  16
ENDBRANCH   5   9
BRANCH   4  18
ATOM     17  N   UNL     1     -19.334   6.354 -55.959  0.00  0.00    +0.000 NA
ATOM     18  C   UNL     1     -19.594   7.617 -55.789  0.00  0.00    +0.000 C 
BRANCH  17  19
ATOM     19  O   UNL     1     -20.254   5.752 -56.827  0.00  0.00    +0.000 OA
BRANCH  19  20
ATOM     20  C   UNL     1     -20.710   4.514 -56.282  0.00  0.00    +0.000 C 
BRANCH  20  23
ATOM     21 CL   UNL     1     -23.650   5.049 -60.557  0.00  0.00    +0.000 Cl
ATOM     22 CL   UNL     1     -25.635   2.783 -59.326  0.00  0.00    +0.000 Cl
ATOM     23  C   UNL     1     -21.909   4.086 -57.088  0.00  0.00    +0.000 A 
ATOM     24  C   UNL     1     -22.207   4.669 -58.327  0.00  0.00    +0.000 A 
ATOM     25  C   UNL     1     -22.761   3.093 -56.583  0.00  0.00    +0.000 A 
ATOM     26  C   UNL     1     -23.347   4.277 -59.040  0.00  0.00    +0.000 A 
ATOM     27  C   UNL     1     -23.895   2.698 -57.292  0.00  0.00    +0.000 A 
ATOM     28  C   UNL     1     -24.197   3.295 -58.518  0.00  0.00    +0.000 A 
ENDBRANCH  20  23
ENDBRANCH  19  20
ENDBRANCH  17  19
ENDBRANCH   4  18
TORSDOF 6
ENDMDL
MODEL 9
REMARK VINA RESULT:      -4.7     23.188     24.867
REMARK  Name = 154040920
REMARK  6 active torsions:
REMARK  status: ('A' for Active; 'I' for Inactive)
REMARK    1  A    between atoms: O_4  and  N_7
REMARK    2  A    between atoms: O_4  and  C_22
REMARK    3  A    between atoms: C_9  and  C_14
REMARK    4  A    between atoms: C_10  and  C_12
REMARK    5  A    between atoms: C_20  and  C_28
REMARK    6  A    between atoms: C_21  and  C_22
REMARK                            x       y       z     vdW  Elec       q    Type
REMARK                         _______ _______ _______ _____ _____    ______ ____
ROOT
ATOM      1  S   UNL     1     -14.863   7.951 -35.676  0.00  0.00    +0.000 S 
ATOM      2  N   UNL     1     -13.323   6.507 -34.212  0.00  0.00    +0.000 N 
ATOM      3  N   UNL     1     -12.252   7.007 -36.108  0.00  0.00    +0.000 NA
ATOM      4  C   UNL     1     -12.103   5.884 -34.096  0.00  0.00    +0.000 A 
ATOM      5  C   UNL     1     -11.456   6.212 -35.295  0.00  0.00    +0.000 A 
ATOM      6  C   UNL     1     -13.355   7.125 -35.425  0.00  0.00    +0.000 A 
ATOM      7  C   UNL     1     -14.449   6.695 -33.437  0.00  0.00    +0.000 A 
ATOM      8  C   UNL     1     -15.385   7.420 -34.071  0.00  0.00    +0.000 A 
ENDROOT
BRANCH   5   9
ATOM      9  C   UNL     1     -10.103   5.835 -35.689  0.00  0.00    +0.000 A 
ATOM     10  C   UNL     1      -9.903   4.680 -36.460  0.00  0.00    +0.000 A 
ATOM     11  C   UNL     1      -8.984   6.597 -35.322  0.00  0.00    +0.000 A 
ATOM     12  C   UNL     1      -8.624   4.329 -36.907  0.00  0.00    +0.000 A 
ATOM     13  C   UNL     1      -7.707   6.258 -35.781  0.00  0.00    +0.000 A 
ATOM     14  C   UNL     1      -7.527   5.131 -36.585  0.00  0.00    +0.000 A 
BRANCH  14  16
ATOM     15  N   UNL     1      -5.168   4.553 -37.485  0.00  0.00    +0.000 NA
ATOM     16  C   UNL     1      -6.224   4.803 -37.080  0.00  0.00    +0.000 C 
ENDBRANCH  14  16
ENDBRANCH   5   9
BRANCH   4  18
ATOM     17  N   UNL     1     -12.029   4.000 -32.526  0.00  0.00    +0.000 NA
ATOM     18  C   UNL     1     -11.621   5.160 -32.950  0.00  0.00    +0.000 C 
BRANCH  17  19
ATOM     19  O   UNL     1     -12.925   3.409 -33.425  0.00  0.00    +0.000 OA
BRANCH  19  20
ATOM     20  C   UNL     1     -13.361   2.144 -32.929  0.00  0.00    +0.000 C 
BRANCH  20  23
ATOM     21 CL   UNL     1     -17.868  -0.483 -32.960  0.00  0.00    +0.000 Cl
ATOM     22 CL   UNL     1     -19.399   2.388 -33.040  0.00  0.00    +0.000 Cl
ATOM     23  C   UNL     1     -14.868   2.162 -32.921  0.00  0.00    +0.000 A 
ATOM     24  C   UNL     1     -15.617   0.977 -32.923  0.00  0.00    +0.000 A 
ATOM     25  C   UNL     1     -15.544   3.392 -32.930  0.00  0.00    +0.000 A 
ATOM     26  C   UNL     1     -17.017   1.023 -32.951  0.00  0.00    +0.000 A 
ATOM     27  C   UNL     1     -16.937   3.439 -32.955  0.00  0.00    +0.000 A 
ATOM     28  C   UNL     1     -17.678   2.255 -32.975  0.00  0.00    +0.000 A 
ENDBRANCH  20  23
ENDBRANCH  19  20
ENDBRANCH  17  19
ENDBRANCH   4  18
TORSDOF 6
ENDMDL
MODEL 10
REMARK VINA RESULT:      -4.6      9.172     12.030
REMARK  Name = 154040920
REMARK  6 active torsions:
REMARK  status: ('A' for Active; 'I' for Inactive)
REMARK    1  A    between atoms: O_4  and  N_7
REMARK    2  A    between atoms: O_4  and  C_22
REMARK    3  A    between atoms: C_9  and  C_14
REMARK    4  A    between atoms: C_10  and  C_12
REMARK    5  A    between atoms: C_20  and  C_28
REMARK    6  A    between atoms: C_21  and  C_22
REMARK                            x       y       z     vdW  Elec       q    Type
REMARK                         _______ _______ _______ _____ _____    ______ ____
ROOT
ATOM      1  S   UNL     1     -17.536  14.182 -59.581  0.00  0.00    +0.000 S 
ATOM      2  N   UNL     1     -16.174  12.005 -59.549  0.00  0.00    +0.000 N 
ATOM      3  N   UNL     1     -15.152  13.473 -60.887  0.00  0.00    +0.000 NA
ATOM      4  C   UNL     1     -15.070  11.335 -60.022  0.00  0.00    +0.000 A 
ATOM      5  C   UNL     1     -14.453  12.275 -60.857  0.00  0.00    +0.000 A 
ATOM      6  C   UNL     1     -16.176  13.243 -60.115  0.00  0.00    +0.000 A 
ATOM      7  C   UNL     1     -17.202  11.774 -58.659  0.00  0.00    +0.000 A 
ATOM      8  C   UNL     1     -18.040  12.819 -58.571  0.00  0.00    +0.000 A 
ENDROOT
BRANCH   5   9
ATOM      9  C   UNL     1     -13.208  12.101 -61.599  0.00  0.00    +0.000 A 
ATOM     10  C   UNL     1     -13.229  11.451 -62.842  0.00  0.00    +0.000 A 
ATOM     11  C   UNL     1     -11.980  12.568 -61.108  0.00  0.00    +0.000 A 
ATOM     12  C   UNL     1     -12.062  11.327 -63.605  0.00  0.00    +0.000 A 
ATOM     13  C   UNL     1     -10.816  12.460 -61.875  0.00  0.00    +0.000 A 
ATOM     14  C   UNL     1     -10.858  11.851 -63.131  0.00  0.00    +0.000 A 
BRANCH  14  16
ATOM     15  N   UNL     1      -8.717  11.688 -64.580  0.00  0.00    +0.000 NA
ATOM     16  C   UNL     1      -9.672  11.769 -63.929  0.00  0.00    +0.000 C 
ENDBRANCH  14  16
ENDBRANCH   5   9
BRANCH   4  18
ATOM     17  N   UNL     1     -13.766   9.702 -58.735  0.00  0.00    +0.000 NA
ATOM     18  C   UNL     1     -14.647  10.014 -59.640  0.00  0.00    +0.000 C 
BRANCH  17  19
ATOM     19  O   UNL     1     -13.353  10.826 -58.010  0.00  0.00    +0.000 OA
BRANCH  19  20
ATOM     20  C   UNL     1     -11.929  10.921 -58.014  0.00  0.00    +0.000 C 
BRANCH  20  23
ATOM     21 CL   UNL     1      -8.951  14.417 -55.540  0.00  0.00    +0.000 Cl
ATOM     22 CL   UNL     1     -10.305  13.416 -52.755  0.00  0.00    +0.000 Cl
ATOM     23  C   UNL     1     -11.522  11.592 -56.728  0.00  0.00    +0.000 A 
ATOM     24  C   UNL     1     -10.548  12.601 -56.703  0.00  0.00    +0.000 A 
ATOM     25  C   UNL     1     -12.113  11.190 -55.521  0.00  0.00    +0.000 A 
ATOM     26  C   UNL     1     -10.164  13.185 -55.489  0.00  0.00    +0.000 A 
ATOM     27  C   UNL     1     -11.733  11.771 -54.312  0.00  0.00    +0.000 A 
ATOM     28  C   UNL     1     -10.751  12.764 -54.290  0.00  0.00    +0.000 A 
ENDBRANCH  20  23
ENDBRANCH  19  20
ENDBRANCH  17  19
ENDBRANCH   4  18
TORSDOF 6
ENDMDL
