MODEL 1
REMARK VINA RESULT:      -5.4      0.000      0.000
REMARK  Name = 155269237
REMARK  6 active torsions:
REMARK  status: ('A' for Active; 'I' for Inactive)
REMARK    1  A    between atoms: O_4  and  N_7
REMARK    2  A    between atoms: O_4  and  C_22
REMARK    3  A    between atoms: C_8  and  C_10
REMARK    4  A    between atoms: C_9  and  C_15
REMARK    5  A    between atoms: C_16  and  C_20
REMARK    6  A    between atoms: C_21  and  C_22
REMARK                            x       y       z     vdW  Elec       q    Type
REMARK                         _______ _______ _______ _____ _____    ______ ____
ROOT
ATOM      1  S   UNL     1     -10.405  14.070  17.814  0.00  0.00    +0.000 S 
ATOM      2  N   UNL     1     -10.198  11.627  17.037  0.00  0.00    +0.000 N 
ATOM      3  N   UNL     1     -11.165  11.669  19.049  0.00  0.00    +0.000 NA
ATOM      4  C   UNL     1     -11.028  10.362  18.604  0.00  0.00    +0.000 A 
ATOM      5  C   UNL     1     -10.423  10.305  17.341  0.00  0.00    +0.000 A 
ATOM      6  C   UNL     1     -10.632  12.370  18.093  0.00  0.00    +0.000 A 
ATOM      7  C   UNL     1      -9.713  12.364  15.975  0.00  0.00    +0.000 A 
ATOM      8  C   UNL     1      -9.731  13.683  16.225  0.00  0.00    +0.000 A 
ENDROOT
BRANCH   4   9
ATOM      9  C   UNL     1     -11.503   9.234  19.399  0.00  0.00    +0.000 A 
ATOM     10  C   UNL     1     -12.230   9.479  20.572  0.00  0.00    +0.000 A 
ATOM     11  C   UNL     1     -11.243   7.908  19.039  0.00  0.00    +0.000 A 
ATOM     12  C   UNL     1     -12.499   7.097  20.955  0.00  0.00    +0.000 A 
ATOM     13  C   UNL     1     -12.725   8.419  21.344  0.00  0.00    +0.000 A 
ATOM     14  C   UNL     1     -11.749   6.850  19.800  0.00  0.00    +0.000 A 
ATOM     15  C   UNL     1     -13.033   5.947  21.756  0.00  0.00    +0.000 C 
ENDBRANCH   4   9
BRANCH   5  17
ATOM     16  N   UNL     1     -10.965   8.665  15.594  0.00  0.00    +0.000 NA
ATOM     17  C   UNL     1     -10.168   9.177  16.486  0.00  0.00    +0.000 C 
BRANCH  16  18
ATOM     18  O   UNL     1     -12.112   9.447  15.418  0.00  0.00    +0.000 OA
BRANCH  18  19
ATOM     19  C   UNL     1     -13.279   8.624  15.442  0.00  0.00    +0.000 C 
BRANCH  19  22
ATOM     20 CL   UNL     1     -15.925   7.019  19.639  0.00  0.00    +0.000 Cl
ATOM     21 CL   UNL     1     -16.344  10.148  20.424  0.00  0.00    +0.000 Cl
ATOM     22  C   UNL     1     -14.035   8.964  16.701  0.00  0.00    +0.000 A 
ATOM     23  C   UNL     1     -14.579   7.965  17.521  0.00  0.00    +0.000 A 
ATOM     24  C   UNL     1     -14.208  10.308  17.063  0.00  0.00    +0.000 A 
ATOM     25  C   UNL     1     -15.289   8.307  18.679  0.00  0.00    +0.000 A 
ATOM     26  C   UNL     1     -14.914  10.650  18.216  0.00  0.00    +0.000 A 
ATOM     27  C   UNL     1     -15.462   9.652  19.023  0.00  0.00    +0.000 A 
ENDBRANCH  19  22
ENDBRANCH  18  19
ENDBRANCH  16  18
ENDBRANCH   5  17
TORSDOF 5
ENDMDL
MODEL 2
REMARK VINA RESULT:      -5.0     21.864     23.937
REMARK  Name = 155269237
REMARK  6 active torsions:
REMARK  status: ('A' for Active; 'I' for Inactive)
REMARK    1  A    between atoms: O_4  and  N_7
REMARK    2  A    between atoms: O_4  and  C_22
REMARK    3  A    between atoms: C_8  and  C_10
REMARK    4  A    between atoms: C_9  and  C_15
REMARK    5  A    between atoms: C_16  and  C_20
REMARK    6  A    between atoms: C_21  and  C_22
REMARK                            x       y       z     vdW  Elec       q    Type
REMARK                         _______ _______ _______ _____ _____    ______ ____
ROOT
ATOM      1  S   UNL     1      -8.253 -10.791  11.947  0.00  0.00    +0.000 S 
ATOM      2  N   UNL     1      -6.066  -9.878  10.949  0.00  0.00    +0.000 N 
ATOM      3  N   UNL     1      -6.815 -11.538   9.656  0.00  0.00    +0.000 NA
ATOM      4  C   UNL     1      -5.628 -11.028   9.152  0.00  0.00    +0.000 A 
ATOM      5  C   UNL     1      -5.133  -9.983   9.944  0.00  0.00    +0.000 A 
ATOM      6  C   UNL     1      -7.009 -10.837  10.734  0.00  0.00    +0.000 A 
ATOM      7  C   UNL     1      -6.308  -9.066  12.039  0.00  0.00    +0.000 A 
ATOM      8  C   UNL     1      -7.422  -9.423  12.698  0.00  0.00    +0.000 A 
ENDROOT
BRANCH   4   9
ATOM      9  C   UNL     1      -5.037 -11.551   7.924  0.00  0.00    +0.000 A 
ATOM     10  C   UNL     1      -4.239 -12.702   7.983  0.00  0.00    +0.000 A 
ATOM     11  C   UNL     1      -5.227 -10.932   6.684  0.00  0.00    +0.000 A 
ATOM     12  C   UNL     1      -3.911 -12.649   5.578  0.00  0.00    +0.000 A 
ATOM     13  C   UNL     1      -3.680 -13.247   6.819  0.00  0.00    +0.000 A 
ATOM     14  C   UNL     1      -4.683 -11.484   5.521  0.00  0.00    +0.000 A 
ATOM     15  C   UNL     1      -3.337 -13.224   4.317  0.00  0.00    +0.000 C 
ENDBRANCH   4   9
BRANCH   5  17
ATOM     16  N   UNL     1      -2.826  -9.225  10.319  0.00  0.00    +0.000 NA
ATOM     17  C   UNL     1      -3.992  -9.131   9.747  0.00  0.00    +0.000 C 
BRANCH  16  18
ATOM     18  O   UNL     1      -2.720 -10.391  11.085  0.00  0.00    +0.000 OA
BRANCH  18  19
ATOM     19  C   UNL     1      -1.684 -10.250  12.058  0.00  0.00    +0.000 C 
BRANCH  19  22
ATOM     20 CL   UNL     1      -5.799 -11.798  14.862  0.00  0.00    +0.000 Cl
ATOM     21 CL   UNL     1      -4.057 -11.178  17.539  0.00  0.00    +0.000 Cl
ATOM     22  C   UNL     1      -2.304 -10.509  13.407  0.00  0.00    +0.000 A 
ATOM     23  C   UNL     1      -3.618 -10.986  13.530  0.00  0.00    +0.000 A 
ATOM     24  C   UNL     1      -1.560 -10.265  14.570  0.00  0.00    +0.000 A 
ATOM     25  C   UNL     1      -4.177 -11.206  14.795  0.00  0.00    +0.000 A 
ATOM     26  C   UNL     1      -2.115 -10.485  15.831  0.00  0.00    +0.000 A 
ATOM     27  C   UNL     1      -3.426 -10.950  15.947  0.00  0.00    +0.000 A 
ENDBRANCH  19  22
ENDBRANCH  18  19
ENDBRANCH  16  18
ENDBRANCH   5  17
TORSDOF 5
ENDMDL
MODEL 3
REMARK VINA RESULT:      -4.6     16.574     19.124
REMARK  Name = 155269237
REMARK  6 active torsions:
REMARK  status: ('A' for Active; 'I' for Inactive)
REMARK    1  A    between atoms: O_4  and  N_7
REMARK    2  A    between atoms: O_4  and  C_22
REMARK    3  A    between atoms: C_8  and  C_10
REMARK    4  A    between atoms: C_9  and  C_15
REMARK    5  A    between atoms: C_16  and  C_20
REMARK    6  A    between atoms: C_21  and  C_22
REMARK                            x       y       z     vdW  Elec       q    Type
REMARK                         _______ _______ _______ _____ _____    ______ ____
ROOT
ATOM      1  S   UNL     1       6.629  20.175  17.629  0.00  0.00    +0.000 S 
ATOM      2  N   UNL     1       6.422  17.735  18.414  0.00  0.00    +0.000 N 
ATOM      3  N   UNL     1       4.482  18.779  18.776  0.00  0.00    +0.000 NA
ATOM      4  C   UNL     1       4.408  17.460  19.198  0.00  0.00    +0.000 A 
ATOM      5  C   UNL     1       5.614  16.779  18.983  0.00  0.00    +0.000 A 
ATOM      6  C   UNL     1       5.704  18.891  18.346  0.00  0.00    +0.000 A 
ATOM      7  C   UNL     1       7.691  17.813  17.877  0.00  0.00    +0.000 A 
ATOM      8  C   UNL     1       7.976  19.048  17.430  0.00  0.00    +0.000 A 
ENDROOT
BRANCH   4   9
ATOM      9  C   UNL     1       3.181  16.912  19.767  0.00  0.00    +0.000 A 
ATOM     10  C   UNL     1       2.648  15.728  19.238  0.00  0.00    +0.000 A 
ATOM     11  C   UNL     1       2.504  17.538  20.818  0.00  0.00    +0.000 A 
ATOM     12  C   UNL     1       0.841  15.767  20.858  0.00  0.00    +0.000 A 
ATOM     13  C   UNL     1       1.487  15.160  19.779  0.00  0.00    +0.000 A 
ATOM     14  C   UNL     1       1.355  16.964  21.369  0.00  0.00    +0.000 A 
ATOM     15  C   UNL     1      -0.393  15.169  21.465  0.00  0.00    +0.000 C 
ENDBRANCH   4   9
BRANCH   5  17
ATOM     16  N   UNL     1       6.599  14.883  20.196  0.00  0.00    +0.000 NA
ATOM     17  C   UNL     1       5.946  15.396  19.194  0.00  0.00    +0.000 C 
BRANCH  16  18
ATOM     18  O   UNL     1       6.841  15.834  21.195  0.00  0.00    +0.000 OA
BRANCH  18  19
ATOM     19  C   UNL     1       6.738  15.231  22.485  0.00  0.00    +0.000 C 
BRANCH  19  22
ATOM     20 CL   UNL     1       5.376  19.358  25.367  0.00  0.00    +0.000 Cl
ATOM     21 CL   UNL     1       2.381  18.100  25.538  0.00  0.00    +0.000 Cl
ATOM     22  C   UNL     1       5.674  15.984  23.242  0.00  0.00    +0.000 A 
ATOM     23  C   UNL     1       5.955  17.195  23.890  0.00  0.00    +0.000 A 
ATOM     24  C   UNL     1       4.373  15.465  23.310  0.00  0.00    +0.000 A 
ATOM     25  C   UNL     1       4.952  17.870  24.598  0.00  0.00    +0.000 A 
ATOM     26  C   UNL     1       3.373  16.135  24.013  0.00  0.00    +0.000 A 
ATOM     27  C   UNL     1       3.661  17.335  24.665  0.00  0.00    +0.000 A 
ENDBRANCH  19  22
ENDBRANCH  18  19
ENDBRANCH  16  18
ENDBRANCH   5  17
TORSDOF 5
ENDMDL
MODEL 4
REMARK VINA RESULT:      -4.5     27.519     29.145
REMARK  Name = 155269237
REMARK  6 active torsions:
REMARK  status: ('A' for Active; 'I' for Inactive)
REMARK    1  A    between atoms: O_4  and  N_7
REMARK    2  A    between atoms: O_4  and  C_22
REMARK    3  A    between atoms: C_8  and  C_10
REMARK    4  A    between atoms: C_9  and  C_15
REMARK    5  A    between atoms: C_16  and  C_20
REMARK    6  A    between atoms: C_21  and  C_22
REMARK                            x       y       z     vdW  Elec       q    Type
REMARK                         _______ _______ _______ _____ _____    ______ ____
ROOT
ATOM      1  S   UNL     1      -8.212 -11.091  41.284  0.00  0.00    +0.000 S 
ATOM      2  N   UNL     1      -7.825 -11.069  38.741  0.00  0.00    +0.000 N 
ATOM      3  N   UNL     1      -9.999 -11.388  39.141  0.00  0.00    +0.000 NA
ATOM      4  C   UNL     1      -9.752 -11.381  37.775  0.00  0.00    +0.000 A 
ATOM      5  C   UNL     1      -8.394 -11.183  37.495  0.00  0.00    +0.000 A 
ATOM      6  C   UNL     1      -8.818 -11.226  39.661  0.00  0.00    +0.000 A 
ATOM      7  C   UNL     1      -6.581 -10.805  39.277  0.00  0.00    +0.000 A 
ATOM      8  C   UNL     1      -6.599 -10.800  40.620  0.00  0.00    +0.000 A 
ENDROOT
BRANCH   4   9
ATOM      9  C   UNL     1     -10.833 -11.543  36.808  0.00  0.00    +0.000 A 
ATOM     10  C   UNL     1     -10.867 -12.690  36.002  0.00  0.00    +0.000 A 
ATOM     11  C   UNL     1     -11.834 -10.581  36.643  0.00  0.00    +0.000 A 
ATOM     12  C   UNL     1     -12.927 -11.946  34.956  0.00  0.00    +0.000 A 
ATOM     13  C   UNL     1     -11.905 -12.890  35.083  0.00  0.00    +0.000 A 
ATOM     14  C   UNL     1     -12.880 -10.787  35.738  0.00  0.00    +0.000 A 
ATOM     15  C   UNL     1     -14.058 -12.146  33.991  0.00  0.00    +0.000 C 
ENDBRANCH   4   9
BRANCH   5  17
ATOM     16  N   UNL     1      -7.152 -11.956  35.520  0.00  0.00    +0.000 NA
ATOM     17  C   UNL     1      -7.722 -11.028  36.232  0.00  0.00    +0.000 C 
BRANCH  16  18
ATOM     18  O   UNL     1      -7.390 -13.230  36.048  0.00  0.00    +0.000 OA
BRANCH  18  19
ATOM     19  C   UNL     1      -6.849 -14.231  35.185  0.00  0.00    +0.000 C 
BRANCH  19  22
ATOM     20 CL   UNL     1      -9.281 -14.703  30.596  0.00  0.00    +0.000 Cl
ATOM     21 CL   UNL     1     -11.542 -16.484  32.112  0.00  0.00    +0.000 Cl
ATOM     22  C   UNL     1      -7.996 -14.789  34.382  0.00  0.00    +0.000 A 
ATOM     23  C   UNL     1      -8.119 -14.537  33.008  0.00  0.00    +0.000 A 
ATOM     24  C   UNL     1      -8.968 -15.575  35.016  0.00  0.00    +0.000 A 
ATOM     25  C   UNL     1      -9.201 -15.056  32.286  0.00  0.00    +0.000 A 
ATOM     26  C   UNL     1     -10.046 -16.094  34.299  0.00  0.00    +0.000 A 
ATOM     27  C   UNL     1     -10.169 -15.830  32.934  0.00  0.00    +0.000 A 
ENDBRANCH  19  22
ENDBRANCH  18  19
ENDBRANCH  16  18
ENDBRANCH   5  17
TORSDOF 5
ENDMDL
MODEL 5
REMARK VINA RESULT:      -4.4      2.602      3.425
REMARK  Name = 155269237
REMARK  6 active torsions:
REMARK  status: ('A' for Active; 'I' for Inactive)
REMARK    1  A    between atoms: O_4  and  N_7
REMARK    2  A    between atoms: O_4  and  C_22
REMARK    3  A    between atoms: C_8  and  C_10
REMARK    4  A    between atoms: C_9  and  C_15
REMARK    5  A    between atoms: C_16  and  C_20
REMARK    6  A    between atoms: C_21  and  C_22
REMARK                            x       y       z     vdW  Elec       q    Type
REMARK                         _______ _______ _______ _____ _____    ______ ____
ROOT
ATOM      1  S   UNL     1     -10.700  13.650  18.088  0.00  0.00    +0.000 S 
ATOM      2  N   UNL     1     -10.359  11.193  17.409  0.00  0.00    +0.000 N 
ATOM      3  N   UNL     1     -11.614  11.267  19.254  0.00  0.00    +0.000 NA
ATOM      4  C   UNL     1     -11.402   9.953  18.864  0.00  0.00    +0.000 A 
ATOM      5  C   UNL     1     -10.615   9.876  17.707  0.00  0.00    +0.000 A 
ATOM      6  C   UNL     1     -10.951  11.954  18.371  0.00  0.00    +0.000 A 
ATOM      7  C   UNL     1      -9.729  11.913  16.413  0.00  0.00    +0.000 A 
ATOM      8  C   UNL     1      -9.795  13.237  16.627  0.00  0.00    +0.000 A 
ENDROOT
BRANCH   4   9
ATOM      9  C   UNL     1     -11.979   8.838  19.607  0.00  0.00    +0.000 A 
ATOM     10  C   UNL     1     -11.131   7.879  20.177  0.00  0.00    +0.000 A 
ATOM     11  C   UNL     1     -13.361   8.681  19.758  0.00  0.00    +0.000 A 
ATOM     12  C   UNL     1     -13.030   6.686  21.105  0.00  0.00    +0.000 A 
ATOM     13  C   UNL     1     -11.652   6.811  20.920  0.00  0.00    +0.000 A 
ATOM     14  C   UNL     1     -13.881   7.625  20.512  0.00  0.00    +0.000 A 
ATOM     15  C   UNL     1     -13.610   5.561  21.910  0.00  0.00    +0.000 C 
ENDBRANCH   4   9
BRANCH   5  17
ATOM     16  N   UNL     1     -10.864   8.208  15.920  0.00  0.00    +0.000 NA
ATOM     17  C   UNL     1     -10.227   8.733  16.926  0.00  0.00    +0.000 C 
BRANCH  16  18
ATOM     18  O   UNL     1     -11.961   8.991  15.540  0.00  0.00    +0.000 OA
BRANCH  18  19
ATOM     19  C   UNL     1     -13.179   8.351  15.919  0.00  0.00    +0.000 C 
BRANCH  19  22
ATOM     20 CL   UNL     1     -17.062   5.851  13.496  0.00  0.00    +0.000 Cl
ATOM     21 CL   UNL     1     -16.133   7.322  10.747  0.00  0.00    +0.000 Cl
ATOM     22  C   UNL     1     -13.951   8.081  14.653  0.00  0.00    +0.000 A 
ATOM     23  C   UNL     1     -15.038   7.196  14.632  0.00  0.00    +0.000 A 
ATOM     24  C   UNL     1     -13.576   8.722  13.463  0.00  0.00    +0.000 A 
ATOM     25  C   UNL     1     -15.731   6.952  13.439  0.00  0.00    +0.000 A 
ATOM     26  C   UNL     1     -14.265   8.481  12.275  0.00  0.00    +0.000 A 
ATOM     27  C   UNL     1     -15.340   7.591  12.258  0.00  0.00    +0.000 A 
ENDBRANCH  19  22
ENDBRANCH  18  19
ENDBRANCH  16  18
ENDBRANCH   5  17
TORSDOF 5
ENDMDL
MODEL 6
REMARK VINA RESULT:      -4.4     32.863     34.609
REMARK  Name = 155269237
REMARK  6 active torsions:
REMARK  status: ('A' for Active; 'I' for Inactive)
REMARK    1  A    between atoms: O_4  and  N_7
REMARK    2  A    between atoms: O_4  and  C_22
REMARK    3  A    between atoms: C_8  and  C_10
REMARK    4  A    between atoms: C_9  and  C_15
REMARK    5  A    between atoms: C_16  and  C_20
REMARK    6  A    between atoms: C_21  and  C_22
REMARK                            x       y       z     vdW  Elec       q    Type
REMARK                         _______ _______ _______ _____ _____    ______ ____
ROOT
ATOM      1  S   UNL     1       5.974 -21.172   1.031  0.00  0.00    +0.000 S 
ATOM      2  N   UNL     1       5.510 -18.700   1.567  0.00  0.00    +0.000 N 
ATOM      3  N   UNL     1       4.793 -19.958   3.268  0.00  0.00    +0.000 NA
ATOM      4  C   UNL     1       4.548 -18.616   3.520  0.00  0.00    +0.000 A 
ATOM      5  C   UNL     1       4.988 -17.801   2.468  0.00  0.00    +0.000 A 
ATOM      6  C   UNL     1       5.338 -19.947   2.087  0.00  0.00    +0.000 A 
ATOM      7  C   UNL     1       6.170 -18.668   0.356  0.00  0.00    +0.000 A 
ATOM      8  C   UNL     1       6.475 -19.898  -0.088  0.00  0.00    +0.000 A 
ENDROOT
BRANCH   4   9
ATOM      9  C   UNL     1       3.924 -18.178   4.765  0.00  0.00    +0.000 A 
ATOM     10  C   UNL     1       2.563 -17.843   4.771  0.00  0.00    +0.000 A 
ATOM     11  C   UNL     1       4.646 -18.065   5.958  0.00  0.00    +0.000 A 
ATOM     12  C   UNL     1       2.643 -17.379   7.152  0.00  0.00    +0.000 A 
ATOM     13  C   UNL     1       1.927 -17.447   5.955  0.00  0.00    +0.000 A 
ATOM     14  C   UNL     1       4.009 -17.684   7.143  0.00  0.00    +0.000 A 
ATOM     15  C   UNL     1       1.980 -16.973   8.435  0.00  0.00    +0.000 C 
ENDBRANCH   4   9
BRANCH   5  17
ATOM     16  N   UNL     1       4.176 -15.619   1.685  0.00  0.00    +0.000 NA
ATOM     17  C   UNL     1       5.006 -16.368   2.351  0.00  0.00    +0.000 C 
BRANCH  16  18
ATOM     18  O   UNL     1       3.104 -16.361   1.177  0.00  0.00    +0.000 OA
BRANCH  18  19
ATOM     19  C   UNL     1       1.984 -15.509   0.935  0.00  0.00    +0.000 C 
BRANCH  19  22
ATOM     20 CL   UNL     1      -0.304 -14.176   5.428  0.00  0.00    +0.000 Cl
ATOM     21 CL   UNL     1      -2.107 -16.871   5.172  0.00  0.00    +0.000 Cl
ATOM     22  C   UNL     1       0.963 -15.806   2.003  0.00  0.00    +0.000 A 
ATOM     23  C   UNL     1       0.794 -14.962   3.110  0.00  0.00    +0.000 A 
ATOM     24  C   UNL     1       0.164 -16.954   1.898  0.00  0.00    +0.000 A 
ATOM     25  C   UNL     1      -0.153 -15.267   4.096  0.00  0.00    +0.000 A 
ATOM     26  C   UNL     1      -0.780 -17.259   2.878  0.00  0.00    +0.000 A 
ATOM     27  C   UNL     1      -0.936 -16.420   3.983  0.00  0.00    +0.000 A 
ENDBRANCH  19  22
ENDBRANCH  18  19
ENDBRANCH  16  18
ENDBRANCH   5  17
TORSDOF 5
ENDMDL
MODEL 7
REMARK VINA RESULT:      -4.3     33.160     35.069
REMARK  Name = 155269237
REMARK  6 active torsions:
REMARK  status: ('A' for Active; 'I' for Inactive)
REMARK    1  A    between atoms: O_4  and  N_7
REMARK    2  A    between atoms: O_4  and  C_22
REMARK    3  A    between atoms: C_8  and  C_10
REMARK    4  A    between atoms: C_9  and  C_15
REMARK    5  A    between atoms: C_16  and  C_20
REMARK    6  A    between atoms: C_21  and  C_22
REMARK                            x       y       z     vdW  Elec       q    Type
REMARK                         _______ _______ _______ _____ _____    ______ ____
ROOT
ATOM      1  S   UNL     1       5.230 -17.874   0.567  0.00  0.00    +0.000 S 
ATOM      2  N   UNL     1       3.749 -15.782   0.772  0.00  0.00    +0.000 N 
ATOM      3  N   UNL     1       4.114 -16.202  -1.391  0.00  0.00    +0.000 NA
ATOM      4  C   UNL     1       3.324 -15.071  -1.243  0.00  0.00    +0.000 A 
ATOM      5  C   UNL     1       3.078 -14.783   0.106  0.00  0.00    +0.000 A 
ATOM      6  C   UNL     1       4.355 -16.563  -0.165  0.00  0.00    +0.000 A 
ATOM      7  C   UNL     1       3.920 -16.207   2.074  0.00  0.00    +0.000 A 
ATOM      8  C   UNL     1       4.700 -17.297   2.152  0.00  0.00    +0.000 A 
ENDROOT
BRANCH   4   9
ATOM      9  C   UNL     1       2.827 -14.335  -2.401  0.00  0.00    +0.000 A 
ATOM     10  C   UNL     1       3.200 -14.747  -3.688  0.00  0.00    +0.000 A 
ATOM     11  C   UNL     1       1.998 -13.216  -2.271  0.00  0.00    +0.000 A 
ATOM     12  C   UNL     1       1.855 -12.990  -4.686  0.00  0.00    +0.000 A 
ATOM     13  C   UNL     1       2.718 -14.079  -4.822  0.00  0.00    +0.000 A 
ATOM     14  C   UNL     1       1.504 -12.559  -3.402  0.00  0.00    +0.000 A 
ATOM     15  C   UNL     1       1.313 -12.271  -5.886  0.00  0.00    +0.000 C 
ENDBRANCH   4   9
BRANCH   5  17
ATOM     16  N   UNL     1       0.991 -13.848   1.003  0.00  0.00    +0.000 NA
ATOM     17  C   UNL     1       2.254 -13.765   0.700  0.00  0.00    +0.000 C 
BRANCH  16  18
ATOM     18  O   UNL     1       0.502 -15.147   0.826  0.00  0.00    +0.000 OA
BRANCH  18  19
ATOM     19  C   UNL     1      -0.879 -15.110   0.464  0.00  0.00    +0.000 C 
BRANCH  19  22
ATOM     20 CL   UNL     1       0.488 -17.320  -4.058  0.00  0.00    +0.000 Cl
ATOM     21 CL   UNL     1      -1.169 -14.966  -5.573  0.00  0.00    +0.000 Cl
ATOM     22  C   UNL     1      -0.942 -15.117  -1.042  0.00  0.00    +0.000 A 
ATOM     23  C   UNL     1      -0.284 -16.098  -1.799  0.00  0.00    +0.000 A 
ATOM     24  C   UNL     1      -1.668 -14.120  -1.710  0.00  0.00    +0.000 A 
ATOM     25  C   UNL     1      -0.346 -16.075  -3.198  0.00  0.00    +0.000 A 
ATOM     26  C   UNL     1      -1.733 -14.097  -3.103  0.00  0.00    +0.000 A 
ATOM     27  C   UNL     1      -1.067 -15.069  -3.851  0.00  0.00    +0.000 A 
ENDBRANCH  19  22
ENDBRANCH  18  19
ENDBRANCH  16  18
ENDBRANCH   5  17
TORSDOF 5
ENDMDL
MODEL 8
REMARK VINA RESULT:      -4.3      4.654      7.510
REMARK  Name = 155269237
REMARK  6 active torsions:
REMARK  status: ('A' for Active; 'I' for Inactive)
REMARK    1  A    between atoms: O_4  and  N_7
REMARK    2  A    between atoms: O_4  and  C_22
REMARK    3  A    between atoms: C_8  and  C_10
REMARK    4  A    between atoms: C_9  and  C_15
REMARK    5  A    between atoms: C_16  and  C_20
REMARK    6  A    between atoms: C_21  and  C_22
REMARK                            x       y       z     vdW  Elec       q    Type
REMARK                         _______ _______ _______ _____ _____    ______ ____
ROOT
ATOM      1  S   UNL     1     -19.911   8.933  22.228  0.00  0.00    +0.000 S 
ATOM      2  N   UNL     1     -18.378   7.009  21.478  0.00  0.00    +0.000 N 
ATOM      3  N   UNL     1     -18.135   8.721  20.066  0.00  0.00    +0.000 NA
ATOM      4  C   UNL     1     -17.328   7.659  19.685  0.00  0.00    +0.000 A 
ATOM      5  C   UNL     1     -17.461   6.568  20.554  0.00  0.00    +0.000 A 
ATOM      6  C   UNL     1     -18.752   8.267  21.117  0.00  0.00    +0.000 A 
ATOM      7  C   UNL     1     -18.957   6.549  22.644  0.00  0.00    +0.000 A 
ATOM      8  C   UNL     1     -19.816   7.438  23.167  0.00  0.00    +0.000 A 
ENDROOT
BRANCH   4   9
ATOM      9  C   UNL     1     -16.455   7.750  18.519  0.00  0.00    +0.000 A 
ATOM     10  C   UNL     1     -16.942   7.359  17.264  0.00  0.00    +0.000 A 
ATOM     11  C   UNL     1     -15.134   8.201  18.612  0.00  0.00    +0.000 A 
ATOM     12  C   UNL     1     -14.835   7.953  16.214  0.00  0.00    +0.000 A 
ATOM     13  C   UNL     1     -16.138   7.460  16.120  0.00  0.00    +0.000 A 
ATOM     14  C   UNL     1     -14.337   8.316  17.470  0.00  0.00    +0.000 A 
ATOM     15  C   UNL     1     -13.963   8.086  15.001  0.00  0.00    +0.000 C 
ENDBRANCH   4   9
BRANCH   5  17
ATOM     16  N   UNL     1     -15.554   5.088  21.015  0.00  0.00    +0.000 NA
ATOM     17  C   UNL     1     -16.759   5.313  20.578  0.00  0.00    +0.000 C 
BRANCH  16  18
ATOM     18  O   UNL     1     -15.013   6.219  21.639  0.00  0.00    +0.000 OA
BRANCH  18  19
ATOM     19  C   UNL     1     -13.630   6.009  21.926  0.00  0.00    +0.000 C 
BRANCH  19  22
ATOM     20 CL   UNL     1     -12.651  11.107  21.426  0.00  0.00    +0.000 Cl
ATOM     21 CL   UNL     1     -10.535  10.349  19.074  0.00  0.00    +0.000 Cl
ATOM     22  C   UNL     1     -12.865   7.118  21.249  0.00  0.00    +0.000 A 
ATOM     23  C   UNL     1     -13.065   8.462  21.594  0.00  0.00    +0.000 A 
ATOM     24  C   UNL     1     -11.935   6.806  20.246  0.00  0.00    +0.000 A 
ATOM     25  C   UNL     1     -12.351   9.476  20.941  0.00  0.00    +0.000 A 
ATOM     26  C   UNL     1     -11.223   7.814  19.596  0.00  0.00    +0.000 A 
ATOM     27  C   UNL     1     -11.433   9.151  19.937  0.00  0.00    +0.000 A 
ENDBRANCH  19  22
ENDBRANCH  18  19
ENDBRANCH  16  18
ENDBRANCH   5  17
TORSDOF 5
ENDMDL
MODEL 9
REMARK VINA RESULT:      -4.3     34.910     36.937
REMARK  Name = 155269237
REMARK  6 active torsions:
REMARK  status: ('A' for Active; 'I' for Inactive)
REMARK    1  A    between atoms: O_4  and  N_7
REMARK    2  A    between atoms: O_4  and  C_22
REMARK    3  A    between atoms: C_8  and  C_10
REMARK    4  A    between atoms: C_9  and  C_15
REMARK    5  A    between atoms: C_16  and  C_20
REMARK    6  A    between atoms: C_21  and  C_22
REMARK                            x       y       z     vdW  Elec       q    Type
REMARK                         _______ _______ _______ _____ _____    ______ ____
ROOT
ATOM      1  S   UNL     1       2.056 -18.437   2.612  0.00  0.00    +0.000 S 
ATOM      2  N   UNL     1       3.652 -16.760   1.493  0.00  0.00    +0.000 N 
ATOM      3  N   UNL     1       4.343 -18.833   1.035  0.00  0.00    +0.000 NA
ATOM      4  C   UNL     1       5.189 -17.900   0.453  0.00  0.00    +0.000 A 
ATOM      5  C   UNL     1       4.780 -16.588   0.725  0.00  0.00    +0.000 A 
ATOM      6  C   UNL     1       3.469 -18.099   1.659  0.00  0.00    +0.000 A 
ATOM      7  C   UNL     1       2.680 -15.970   2.073  0.00  0.00    +0.000 A 
ATOM      8  C   UNL     1       1.761 -16.698   2.728  0.00  0.00    +0.000 A 
ENDROOT
BRANCH   4   9
ATOM      9  C   UNL     1       6.335 -18.312  -0.350  0.00  0.00    +0.000 A 
ATOM     10  C   UNL     1       7.630 -18.141   0.160  0.00  0.00    +0.000 A 
ATOM     11  C   UNL     1       6.188 -18.861  -1.629  0.00  0.00    +0.000 A 
ATOM     12  C   UNL     1       8.594 -19.140  -1.831  0.00  0.00    +0.000 A 
ATOM     13  C   UNL     1       8.750 -18.551  -0.575  0.00  0.00    +0.000 A 
ATOM     14  C   UNL     1       7.305 -19.286  -2.355  0.00  0.00    +0.000 A 
ATOM     15  C   UNL     1       9.777 -19.603  -2.628  0.00  0.00    +0.000 C 
ENDBRANCH   4   9
BRANCH   5  17
ATOM     16  N   UNL     1       4.905 -14.635  -0.760  0.00  0.00    +0.000 NA
ATOM     17  C   UNL     1       5.312 -15.337   0.257  0.00  0.00    +0.000 C 
BRANCH  16  18
ATOM     18  O   UNL     1       3.731 -15.160  -1.313  0.00  0.00    +0.000 OA
BRANCH  18  19
ATOM     19  C   UNL     1       2.736 -14.141  -1.417  0.00  0.00    +0.000 C 
BRANCH  19  22
ATOM     20 CL   UNL     1      -0.074 -11.854  -5.167  0.00  0.00    +0.000 Cl
ATOM     21 CL   UNL     1       1.725 -13.475  -7.339  0.00  0.00    +0.000 Cl
ATOM     22  C   UNL     1       2.465 -13.936  -2.885  0.00  0.00    +0.000 A 
ATOM     23  C   UNL     1       1.442 -13.086  -3.330  0.00  0.00    +0.000 A 
ATOM     24  C   UNL     1       3.244 -14.613  -3.835  0.00  0.00    +0.000 A 
ATOM     25  C   UNL     1       1.201 -12.922  -4.700  0.00  0.00    +0.000 A 
ATOM     26  C   UNL     1       3.006 -14.451  -5.200  0.00  0.00    +0.000 A 
ATOM     27  C   UNL     1       1.980 -13.610  -5.636  0.00  0.00    +0.000 A 
ENDBRANCH  19  22
ENDBRANCH  18  19
ENDBRANCH  16  18
ENDBRANCH   5  17
TORSDOF 5
ENDMDL
MODEL 10
REMARK VINA RESULT:      -4.3     29.982     32.235
REMARK  Name = 155269237
REMARK  6 active torsions:
REMARK  status: ('A' for Active; 'I' for Inactive)
REMARK    1  A    between atoms: O_4  and  N_7
REMARK    2  A    between atoms: O_4  and  C_22
REMARK    3  A    between atoms: C_8  and  C_10
REMARK    4  A    between atoms: C_9  and  C_15
REMARK    5  A    between atoms: C_16  and  C_20
REMARK    6  A    between atoms: C_21  and  C_22
REMARK                            x       y       z     vdW  Elec       q    Type
REMARK                         _______ _______ _______ _____ _____    ______ ____
ROOT
ATOM      1  S   UNL     1      10.192 -14.048  33.759  0.00  0.00    +0.000 S 
ATOM      2  N   UNL     1       8.074 -13.604  32.370  0.00  0.00    +0.000 N 
ATOM      3  N   UNL     1       7.745 -12.863  34.450  0.00  0.00    +0.000 NA
ATOM      4  C   UNL     1       6.615 -12.647  33.674  0.00  0.00    +0.000 A 
ATOM      5  C   UNL     1       6.794 -13.104  32.361  0.00  0.00    +0.000 A 
ATOM      6  C   UNL     1       8.564 -13.455  33.632  0.00  0.00    +0.000 A 
ATOM      7  C   UNL     1       8.966 -14.147  31.467  0.00  0.00    +0.000 A 
ATOM      8  C   UNL     1      10.138 -14.462  32.041  0.00  0.00    +0.000 A 
ENDROOT
BRANCH   4   9
ATOM      9  C   UNL     1       5.430 -11.997  34.223  0.00  0.00    +0.000 A 
ATOM     10  C   UNL     1       5.499 -10.649  34.600  0.00  0.00    +0.000 A 
ATOM     11  C   UNL     1       4.222 -12.680  34.401  0.00  0.00    +0.000 A 
ATOM     12  C   UNL     1       3.157 -10.663  35.238  0.00  0.00    +0.000 A 
ATOM     13  C   UNL     1       4.371  -9.987  35.104  0.00  0.00    +0.000 A 
ATOM     14  C   UNL     1       3.093 -12.016  34.889  0.00  0.00    +0.000 A 
ATOM     15  C   UNL     1       1.932  -9.971  35.759  0.00  0.00    +0.000 C 
ENDBRANCH   4   9
BRANCH   5  17
ATOM     16  N   UNL     1       5.980 -12.138  30.253  0.00  0.00    +0.000 NA
ATOM     17  C   UNL     1       5.922 -13.006  31.221  0.00  0.00    +0.000 C 
BRANCH  16  18
ATOM     18  O   UNL     1       7.128 -11.342  30.342  0.00  0.00    +0.000 OA
BRANCH  18  19
ATOM     19  C   UNL     1       6.806  -9.979  30.062  0.00  0.00    +0.000 C 
BRANCH  19  22
ATOM     20 CL   UNL     1       9.622  -9.292  34.397  0.00  0.00    +0.000 Cl
ATOM     21 CL   UNL     1       7.687  -6.777  35.114  0.00  0.00    +0.000 Cl
ATOM     22  C   UNL     1       7.067  -9.195  31.323  0.00  0.00    +0.000 A 
ATOM     23  C   UNL     1       8.106  -9.541  32.199  0.00  0.00    +0.000 A 
ATOM     24  C   UNL     1       6.254  -8.096  31.637  0.00  0.00    +0.000 A 
ATOM     25  C   UNL     1       8.320  -8.804  33.371  0.00  0.00    +0.000 A 
ATOM     26  C   UNL     1       6.466  -7.361  32.803  0.00  0.00    +0.000 A 
ATOM     27  C   UNL     1       7.495  -7.717  33.676  0.00  0.00    +0.000 A 
ENDBRANCH  19  22
ENDBRANCH  18  19
ENDBRANCH  16  18
ENDBRANCH   5  17
TORSDOF 5
ENDMDL
