MODEL 1
REMARK VINA RESULT:      -5.7      0.000      0.000
REMARK  Name = 155269219
REMARK  6 active torsions:
REMARK  status: ('A' for Active; 'I' for Inactive)
REMARK    1  A    between atoms: O_7  and  N_10
REMARK    2  A    between atoms: O_7  and  C_25
REMARK    3  A    between atoms: C_11  and  C_13
REMARK    4  A    between atoms: C_12  and  C_18
REMARK    5  A    between atoms: C_19  and  C_23
REMARK    6  A    between atoms: C_24  and  C_25
REMARK                            x       y       z     vdW  Elec       q    Type
REMARK                         _______ _______ _______ _____ _____    ______ ____
ROOT
ATOM      1  S   UNL     1     -22.504   9.918 -59.718  0.00  0.00    +0.000 S 
ATOM      2  N   UNL     1     -20.911   9.427 -57.763  0.00  0.00    +0.000 N 
ATOM      3  N   UNL     1     -22.967   8.758 -57.204  0.00  0.00    +0.000 NA
ATOM      4  C   UNL     1     -22.078   8.518 -56.166  0.00  0.00    +0.000 A 
ATOM      5  C   UNL     1     -20.780   8.933 -56.488  0.00  0.00    +0.000 A 
ATOM      6  C   UNL     1     -22.224   9.325 -58.110  0.00  0.00    +0.000 A 
ATOM      7  C   UNL     1     -20.088   9.937 -58.748  0.00  0.00    +0.000 A 
ATOM      8  C   UNL     1     -20.776  10.271 -59.852  0.00  0.00    +0.000 A 
ENDROOT
BRANCH   4   9
ATOM      9  C   UNL     1     -22.503   7.867 -54.931  0.00  0.00    +0.000 A 
ATOM     10  C   UNL     1     -22.043   8.351 -53.699  0.00  0.00    +0.000 A 
ATOM     11  C   UNL     1     -23.371   6.767 -54.935  0.00  0.00    +0.000 A 
ATOM     12  C   UNL     1     -23.417   6.740 -52.503  0.00  0.00    +0.000 A 
ATOM     13  C   UNL     1     -22.495   7.796 -52.496  0.00  0.00    +0.000 A 
ATOM     14  C   UNL     1     -23.837   6.221 -53.736  0.00  0.00    +0.000 A 
BRANCH  12  18
ATOM     15  F   UNL     1     -25.056   6.839 -50.743  0.00  0.00    +0.000 F 
ATOM     16  F   UNL     1     -24.380   4.872 -51.377  0.00  0.00    +0.000 F 
ATOM     17  F   UNL     1     -23.061   6.151 -50.216  0.00  0.00    +0.000 F 
ATOM     18  C   UNL     1     -23.975   6.165 -51.225  0.00  0.00    +0.000 C 
ENDBRANCH  12  18
ENDBRANCH   4   9
BRANCH   5  20
ATOM     19  N   UNL     1     -18.730   7.792 -55.764  0.00  0.00    +0.000 NA
ATOM     20  C   UNL     1     -19.553   8.800 -55.751  0.00  0.00    +0.000 C 
BRANCH  19  21
ATOM     21  O   UNL     1     -19.082   6.847 -56.736  0.00  0.00    +0.000 OA
BRANCH  21  22
ATOM     22  C   UNL     1     -19.361   5.590 -56.118  0.00  0.00    +0.000 C 
BRANCH  22  25
ATOM     23 CL   UNL     1     -23.073   5.945 -59.766  0.00  0.00    +0.000 Cl
ATOM     24 CL   UNL     1     -24.561   3.437 -58.323  0.00  0.00    +0.000 Cl
ATOM     25  C   UNL     1     -20.640   5.061 -56.718  0.00  0.00    +0.000 A 
ATOM     26  C   UNL     1     -21.218   5.651 -57.850  0.00  0.00    +0.000 A 
ATOM     27  C   UNL     1     -21.283   3.968 -56.119  0.00  0.00    +0.000 A 
ATOM     28  C   UNL     1     -22.424   5.161 -58.369  0.00  0.00    +0.000 A 
ATOM     29  C   UNL     1     -22.483   3.477 -56.635  0.00  0.00    +0.000 A 
ATOM     30  C   UNL     1     -23.060   4.076 -57.756  0.00  0.00    +0.000 A 
ENDBRANCH  22  25
ENDBRANCH  21  22
ENDBRANCH  19  21
ENDBRANCH   5  20
TORSDOF 6
ENDMDL
MODEL 2
REMARK VINA RESULT:      -5.5     22.999     24.347
REMARK  Name = 155269219
REMARK  6 active torsions:
REMARK  status: ('A' for Active; 'I' for Inactive)
REMARK    1  A    between atoms: O_7  and  N_10
REMARK    2  A    between atoms: O_7  and  C_25
REMARK    3  A    between atoms: C_11  and  C_13
REMARK    4  A    between atoms: C_12  and  C_18
REMARK    5  A    between atoms: C_19  and  C_23
REMARK    6  A    between atoms: C_24  and  C_25
REMARK                            x       y       z     vdW  Elec       q    Type
REMARK                         _______ _______ _______ _____ _____    ______ ____
ROOT
ATOM      1  S   UNL     1     -15.344   7.534 -35.187  0.00  0.00    +0.000 S 
ATOM      2  N   UNL     1     -13.530   6.082 -34.090  0.00  0.00    +0.000 N 
ATOM      3  N   UNL     1     -12.671   7.063 -35.904  0.00  0.00    +0.000 NA
ATOM      4  C   UNL     1     -11.722   6.260 -35.288  0.00  0.00    +0.000 A 
ATOM      5  C   UNL     1     -12.236   5.628 -34.149  0.00  0.00    +0.000 A 
ATOM      6  C   UNL     1     -13.730   6.894 -35.166  0.00  0.00    +0.000 A 
ATOM      7  C   UNL     1     -14.613   5.966 -33.240  0.00  0.00    +0.000 A 
ATOM      8  C   UNL     1     -15.674   6.660 -33.684  0.00  0.00    +0.000 A 
ENDROOT
BRANCH   4   9
ATOM      9  C   UNL     1     -10.356   6.166 -35.795  0.00  0.00    +0.000 A 
ATOM     10  C   UNL     1      -9.465   7.227 -35.585  0.00  0.00    +0.000 A 
ATOM     11  C   UNL     1      -9.899   5.036 -36.485  0.00  0.00    +0.000 A 
ATOM     12  C   UNL     1      -7.658   5.971 -36.619  0.00  0.00    +0.000 A 
ATOM     13  C   UNL     1      -8.128   7.132 -35.991  0.00  0.00    +0.000 A 
ATOM     14  C   UNL     1      -8.562   4.931 -36.877  0.00  0.00    +0.000 A 
BRANCH  12  18
ATOM     15  F   UNL     1      -5.756   6.773 -37.858  0.00  0.00    +0.000 F 
ATOM     16  F   UNL     1      -5.379   5.850 -35.926  0.00  0.00    +0.000 F 
ATOM     17  F   UNL     1      -5.960   4.621 -37.621  0.00  0.00    +0.000 F 
ATOM     18  C   UNL     1      -6.208   5.811 -37.007  0.00  0.00    +0.000 C 
ENDBRANCH  12  18
ENDBRANCH   4   9
BRANCH   5  20
ATOM     19  N   UNL     1     -11.633   3.490 -33.101  0.00  0.00    +0.000 NA
ATOM     20  C   UNL     1     -11.584   4.788 -33.180  0.00  0.00    +0.000 C 
BRANCH  19  21
ATOM     21  O   UNL     1     -12.294   2.928 -34.200  0.00  0.00    +0.000 OA
BRANCH  21  22
ATOM     22  C   UNL     1     -12.130   1.509 -34.196  0.00  0.00    +0.000 C 
BRANCH  22  25
ATOM     23 CL   UNL     1     -17.250   2.049 -33.357  0.00  0.00    +0.000 Cl
ATOM     24 CL   UNL     1     -17.285  -1.037 -32.327  0.00  0.00    +0.000 Cl
ATOM     25  C   UNL     1     -13.442   0.900 -33.769  0.00  0.00    +0.000 A 
ATOM     26  C   UNL     1     -14.630   1.644 -33.766  0.00  0.00    +0.000 A 
ATOM     27  C   UNL     1     -13.477  -0.435 -33.341  0.00  0.00    +0.000 A 
ATOM     28  C   UNL     1     -15.830   1.064 -33.333  0.00  0.00    +0.000 A 
ATOM     29  C   UNL     1     -14.671  -1.015 -32.911  0.00  0.00    +0.000 A 
ATOM     30  C   UNL     1     -15.849  -0.266 -32.899  0.00  0.00    +0.000 A 
ENDBRANCH  22  25
ENDBRANCH  21  22
ENDBRANCH  19  21
ENDBRANCH   5  20
TORSDOF 6
ENDMDL
MODEL 3
REMARK VINA RESULT:      -5.4      4.397      6.474
REMARK  Name = 155269219
REMARK  6 active torsions:
REMARK  status: ('A' for Active; 'I' for Inactive)
REMARK    1  A    between atoms: O_7  and  N_10
REMARK    2  A    between atoms: O_7  and  C_25
REMARK    3  A    between atoms: C_11  and  C_13
REMARK    4  A    between atoms: C_12  and  C_18
REMARK    5  A    between atoms: C_19  and  C_23
REMARK    6  A    between atoms: C_24  and  C_25
REMARK                            x       y       z     vdW  Elec       q    Type
REMARK                         _______ _______ _______ _____ _____    ______ ____
ROOT
ATOM      1  S   UNL     1     -27.216   3.954 -53.409  0.00  0.00    +0.000 S 
ATOM      2  N   UNL     1     -25.493   3.293 -55.197  0.00  0.00    +0.000 N 
ATOM      3  N   UNL     1     -24.795   5.152 -54.175  0.00  0.00    +0.000 NA
ATOM      4  C   UNL     1     -23.894   4.769 -55.157  0.00  0.00    +0.000 A 
ATOM      5  C   UNL     1     -24.309   3.606 -55.819  0.00  0.00    +0.000 A 
ATOM      6  C   UNL     1     -25.736   4.257 -54.266  0.00  0.00    +0.000 A 
ATOM      7  C   UNL     1     -26.431   2.279 -55.242  0.00  0.00    +0.000 A 
ATOM      8  C   UNL     1     -27.431   2.484 -54.369  0.00  0.00    +0.000 A 
ENDROOT
BRANCH   4   9
ATOM      9  C   UNL     1     -22.657   5.508 -55.390  0.00  0.00    +0.000 A 
ATOM     10  C   UNL     1     -21.626   4.917 -56.133  0.00  0.00    +0.000 A 
ATOM     11  C   UNL     1     -22.467   6.806 -54.898  0.00  0.00    +0.000 A 
ATOM     12  C   UNL     1     -20.305   6.955 -56.003  0.00  0.00    +0.000 A 
ATOM     13  C   UNL     1     -20.462   5.633 -56.439  0.00  0.00    +0.000 A 
ATOM     14  C   UNL     1     -21.313   7.528 -55.214  0.00  0.00    +0.000 A 
BRANCH  12  18
ATOM     15  F   UNL     1     -18.368   8.200 -55.300  0.00  0.00    +0.000 F 
ATOM     16  F   UNL     1     -18.223   7.079 -57.158  0.00  0.00    +0.000 F 
ATOM     17  F   UNL     1     -19.414   8.895 -57.076  0.00  0.00    +0.000 F 
ATOM     18  C   UNL     1     -19.093   7.774 -56.372  0.00  0.00    +0.000 C 
ENDBRANCH  12  18
ENDBRANCH   4   9
BRANCH   5  20
ATOM     19  N   UNL     1     -23.806   2.908 -58.118  0.00  0.00    +0.000 NA
ATOM     20  C   UNL     1     -23.648   2.826 -56.829  0.00  0.00    +0.000 C 
BRANCH  19  21
ATOM     21  O   UNL     1     -24.617   3.992 -58.474  0.00  0.00    +0.000 OA
BRANCH  21  22
ATOM     22  C   UNL     1     -24.032   4.704 -59.565  0.00  0.00    +0.000 C 
BRANCH  22  25
ATOM     23 CL   UNL     1     -25.224   8.942 -56.767  0.00  0.00    +0.000 Cl
ATOM     24 CL   UNL     1     -22.401  10.233 -57.745  0.00  0.00    +0.000 Cl
ATOM     25  C   UNL     1     -23.646   6.073 -59.063  0.00  0.00    +0.000 A 
ATOM     26  C   UNL     1     -24.492   6.812 -58.225  0.00  0.00    +0.000 A 
ATOM     27  C   UNL     1     -22.424   6.635 -59.460  0.00  0.00    +0.000 A 
ATOM     28  C   UNL     1     -24.125   8.095 -57.798  0.00  0.00    +0.000 A 
ATOM     29  C   UNL     1     -22.055   7.912 -59.035  0.00  0.00    +0.000 A 
ATOM     30  C   UNL     1     -22.907   8.648 -58.210  0.00  0.00    +0.000 A 
ENDBRANCH  22  25
ENDBRANCH  21  22
ENDBRANCH  19  21
ENDBRANCH   5  20
TORSDOF 6
ENDMDL
MODEL 4
REMARK VINA RESULT:      -5.4     22.978     24.756
REMARK  Name = 155269219
REMARK  6 active torsions:
REMARK  status: ('A' for Active; 'I' for Inactive)
REMARK    1  A    between atoms: O_7  and  N_10
REMARK    2  A    between atoms: O_7  and  C_25
REMARK    3  A    between atoms: C_11  and  C_13
REMARK    4  A    between atoms: C_12  and  C_18
REMARK    5  A    between atoms: C_19  and  C_23
REMARK    6  A    between atoms: C_24  and  C_25
REMARK                            x       y       z     vdW  Elec       q    Type
REMARK                         _______ _______ _______ _____ _____    ______ ____
ROOT
ATOM      1  S   UNL     1     -11.181   0.561 -33.139  0.00  0.00    +0.000 S 
ATOM      2  N   UNL     1     -11.483   2.597 -34.677  0.00  0.00    +0.000 N 
ATOM      3  N   UNL     1      -9.300   2.194 -34.434  0.00  0.00    +0.000 NA
ATOM      4  C   UNL     1      -9.503   3.296 -35.251  0.00  0.00    +0.000 A 
ATOM      5  C   UNL     1     -10.866   3.575 -35.418  0.00  0.00    +0.000 A 
ATOM      6  C   UNL     1     -10.508   1.841 -34.100  0.00  0.00    +0.000 A 
ATOM      7  C   UNL     1     -12.774   2.179 -34.414  0.00  0.00    +0.000 A 
ATOM      8  C   UNL     1     -12.798   1.117 -33.593  0.00  0.00    +0.000 A 
ENDROOT
BRANCH   4   9
ATOM      9  C   UNL     1      -8.388   4.006 -35.868  0.00  0.00    +0.000 A 
ATOM     10  C   UNL     1      -7.627   4.900 -35.102  0.00  0.00    +0.000 A 
ATOM     11  C   UNL     1      -8.042   3.818 -37.212  0.00  0.00    +0.000 A 
ATOM     12  C   UNL     1      -6.121   5.290 -36.971  0.00  0.00    +0.000 A 
ATOM     13  C   UNL     1      -6.504   5.535 -35.645  0.00  0.00    +0.000 A 
ATOM     14  C   UNL     1      -6.913   4.438 -37.754  0.00  0.00    +0.000 A 
BRANCH  12  18
ATOM     15  F   UNL     1      -4.162   6.658 -36.685  0.00  0.00    +0.000 F 
ATOM     16  F   UNL     1      -4.015   4.965 -38.041  0.00  0.00    +0.000 F 
ATOM     17  F   UNL     1      -5.154   6.723 -38.620  0.00  0.00    +0.000 F 
ATOM     18  C   UNL     1      -4.879   5.906 -37.565  0.00  0.00    +0.000 C 
ENDBRANCH  12  18
ENDBRANCH   4   9
BRANCH   5  20
ATOM     19  N   UNL     1     -12.019   5.698 -35.856  0.00  0.00    +0.000 NA
ATOM     20  C   UNL     1     -11.518   4.559 -36.237  0.00  0.00    +0.000 C 
BRANCH  19  21
ATOM     21  O   UNL     1     -11.717   5.974 -34.516  0.00  0.00    +0.000 OA
BRANCH  21  22
ATOM     22  C   UNL     1     -12.275   7.233 -34.138  0.00  0.00    +0.000 C 
BRANCH  22  25
ATOM     23 CL   UNL     1     -17.222   8.216 -35.470  0.00  0.00    +0.000 Cl
ATOM     24 CL   UNL     1     -18.140   6.408 -32.925  0.00  0.00    +0.000 Cl
ATOM     25  C   UNL     1     -13.748   7.024 -33.888  0.00  0.00    +0.000 A 
ATOM     26  C   UNL     1     -14.721   7.624 -34.698  0.00  0.00    +0.000 A 
ATOM     27  C   UNL     1     -14.160   6.231 -32.806  0.00  0.00    +0.000 A 
ATOM     28  C   UNL     1     -16.084   7.441 -34.425  0.00  0.00    +0.000 A 
ATOM     29  C   UNL     1     -15.515   6.046 -32.533  0.00  0.00    +0.000 A 
ATOM     30  C   UNL     1     -16.481   6.655 -33.337  0.00  0.00    +0.000 A 
ENDBRANCH  22  25
ENDBRANCH  21  22
ENDBRANCH  19  21
ENDBRANCH   5  20
TORSDOF 6
ENDMDL
MODEL 5
REMARK VINA RESULT:      -5.3     25.581     27.880
REMARK  Name = 155269219
REMARK  6 active torsions:
REMARK  status: ('A' for Active; 'I' for Inactive)
REMARK    1  A    between atoms: O_7  and  N_10
REMARK    2  A    between atoms: O_7  and  C_25
REMARK    3  A    between atoms: C_11  and  C_13
REMARK    4  A    between atoms: C_12  and  C_18
REMARK    5  A    between atoms: C_19  and  C_23
REMARK    6  A    between atoms: C_24  and  C_25
REMARK                            x       y       z     vdW  Elec       q    Type
REMARK                         _______ _______ _______ _____ _____    ______ ____
ROOT
ATOM      1  S   UNL     1     -10.206  12.707 -32.083  0.00  0.00    +0.000 S 
ATOM      2  N   UNL     1     -10.770  10.263 -31.526  0.00  0.00    +0.000 N 
ATOM      3  N   UNL     1     -10.279  10.413 -33.699  0.00  0.00    +0.000 NA
ATOM      4  C   UNL     1     -10.600   9.106 -33.362  0.00  0.00    +0.000 A 
ATOM      5  C   UNL     1     -10.918   8.984 -32.003  0.00  0.00    +0.000 A 
ATOM      6  C   UNL     1     -10.427  11.057 -32.578  0.00  0.00    +0.000 A 
ATOM      7  C   UNL     1     -10.837  10.910 -30.307  0.00  0.00    +0.000 A 
ATOM      8  C   UNL     1     -10.584  12.224 -30.423  0.00  0.00    +0.000 A 
ENDROOT
BRANCH   4   9
ATOM      9  C   UNL     1     -10.550   8.029 -34.345  0.00  0.00    +0.000 A 
ATOM     10  C   UNL     1      -9.499   7.102 -34.303  0.00  0.00    +0.000 A 
ATOM     11  C   UNL     1     -11.530   7.883 -35.335  0.00  0.00    +0.000 A 
ATOM     12  C   UNL     1     -10.488   5.833 -36.127  0.00  0.00    +0.000 A 
ATOM     13  C   UNL     1      -9.468   6.013 -35.183  0.00  0.00    +0.000 A 
ATOM     14  C   UNL     1     -11.510   6.790 -36.205  0.00  0.00    +0.000 A 
BRANCH  12  18
ATOM     15  F   UNL     1     -10.924   3.486 -36.436  0.00  0.00    +0.000 F 
ATOM     16  F   UNL     1     -11.363   4.817 -38.099  0.00  0.00    +0.000 F 
ATOM     17  F   UNL     1      -9.300   4.363 -37.588  0.00  0.00    +0.000 F 
ATOM     18  C   UNL     1     -10.518   4.636 -37.044  0.00  0.00    +0.000 C 
ENDBRANCH  12  18
ENDBRANCH   4   9
BRANCH   5  20
ATOM     19  N   UNL     1     -10.470   7.248 -30.325  0.00  0.00    +0.000 NA
ATOM     20  C   UNL     1     -11.222   7.815 -31.223  0.00  0.00    +0.000 C 
BRANCH  19  21
ATOM     21  O   UNL     1      -9.325   8.006 -30.054  0.00  0.00    +0.000 OA
BRANCH  21  22
ATOM     22  C   UNL     1      -9.180   8.189 -28.645  0.00  0.00    +0.000 C 
BRANCH  22  25
ATOM     23 CL   UNL     1      -4.618  10.017 -30.391  0.00  0.00    +0.000 Cl
ATOM     24 CL   UNL     1      -3.381   9.404 -27.444  0.00  0.00    +0.000 Cl
ATOM     25  C   UNL     1      -7.738   8.536 -28.374  0.00  0.00    +0.000 A 
ATOM     26  C   UNL     1      -6.914   9.074 -29.373  0.00  0.00    +0.000 A 
ATOM     27  C   UNL     1      -7.195   8.296 -27.104  0.00  0.00    +0.000 A 
ATOM     28  C   UNL     1      -5.568   9.357 -29.106  0.00  0.00    +0.000 A 
ATOM     29  C   UNL     1      -5.856   8.580 -26.835  0.00  0.00    +0.000 A 
ATOM     30  C   UNL     1      -5.037   9.104 -27.836  0.00  0.00    +0.000 A 
ENDBRANCH  22  25
ENDBRANCH  21  22
ENDBRANCH  19  21
ENDBRANCH   5  20
TORSDOF 6
ENDMDL
MODEL 6
REMARK VINA RESULT:      -5.3     23.134     25.152
REMARK  Name = 155269219
REMARK  6 active torsions:
REMARK  status: ('A' for Active; 'I' for Inactive)
REMARK    1  A    between atoms: O_7  and  N_10
REMARK    2  A    between atoms: O_7  and  C_25
REMARK    3  A    between atoms: C_11  and  C_13
REMARK    4  A    between atoms: C_12  and  C_18
REMARK    5  A    between atoms: C_19  and  C_23
REMARK    6  A    between atoms: C_24  and  C_25
REMARK                            x       y       z     vdW  Elec       q    Type
REMARK                         _______ _______ _______ _____ _____    ______ ____
ROOT
ATOM      1  S   UNL     1     -10.356   9.980 -30.732  0.00  0.00    +0.000 S 
ATOM      2  N   UNL     1     -11.018   9.605 -33.187  0.00  0.00    +0.000 N 
ATOM      3  N   UNL     1      -9.328   8.237 -32.678  0.00  0.00    +0.000 NA
ATOM      4  C   UNL     1      -9.708   8.070 -34.002  0.00  0.00    +0.000 A 
ATOM      5  C   UNL     1     -10.765   8.921 -34.350  0.00  0.00    +0.000 A 
ATOM      6  C   UNL     1     -10.120   9.180 -32.256  0.00  0.00    +0.000 A 
ATOM      7  C   UNL     1     -11.931  10.536 -32.730  0.00  0.00    +0.000 A 
ATOM      8  C   UNL     1     -11.711  10.865 -31.447  0.00  0.00    +0.000 A 
ENDROOT
BRANCH   4   9
ATOM      9  C   UNL     1      -9.070   7.078 -34.861  0.00  0.00    +0.000 A 
ATOM     10  C   UNL     1      -8.203   7.498 -35.879  0.00  0.00    +0.000 A 
ATOM     11  C   UNL     1      -9.291   5.704 -34.696  0.00  0.00    +0.000 A 
ATOM     12  C   UNL     1      -7.688   5.191 -36.452  0.00  0.00    +0.000 A 
ATOM     13  C   UNL     1      -7.517   6.565 -36.667  0.00  0.00    +0.000 A 
ATOM     14  C   UNL     1      -8.596   4.771 -35.469  0.00  0.00    +0.000 A 
BRANCH  12  18
ATOM     15  F   UNL     1      -7.285   4.073 -38.545  0.00  0.00    +0.000 F 
ATOM     16  F   UNL     1      -5.576   4.424 -37.248  0.00  0.00    +0.000 F 
ATOM     17  F   UNL     1      -7.042   2.907 -36.725  0.00  0.00    +0.000 F 
ATOM     18  C   UNL     1      -6.914   4.162 -37.238  0.00  0.00    +0.000 C 
ENDBRANCH  12  18
ENDBRANCH   4   9
BRANCH   5  20
ATOM     19  N   UNL     1     -12.526   8.290 -35.941  0.00  0.00    +0.000 NA
ATOM     20  C   UNL     1     -11.512   9.020 -35.574  0.00  0.00    +0.000 C 
BRANCH  19  21
ATOM     21  O   UNL     1     -12.954   7.443 -34.912  0.00  0.00    +0.000 OA
BRANCH  21  22
ATOM     22  C   UNL     1     -13.179   6.128 -35.422  0.00  0.00    +0.000 C 
BRANCH  22  25
ATOM     23 CL   UNL     1     -11.877   1.244 -34.132  0.00  0.00    +0.000 Cl
ATOM     24 CL   UNL     1     -11.463   2.289 -31.078  0.00  0.00    +0.000 Cl
ATOM     25  C   UNL     1     -12.718   5.147 -34.373  0.00  0.00    +0.000 A 
ATOM     26  C   UNL     1     -12.509   3.794 -34.676  0.00  0.00    +0.000 A 
ATOM     27  C   UNL     1     -12.516   5.585 -33.056  0.00  0.00    +0.000 A 
ATOM     28  C   UNL     1     -12.113   2.895 -33.677  0.00  0.00    +0.000 A 
ATOM     29  C   UNL     1     -12.120   4.693 -32.060  0.00  0.00    +0.000 A 
ATOM     30  C   UNL     1     -11.925   3.345 -32.365  0.00  0.00    +0.000 A 
ENDBRANCH  22  25
ENDBRANCH  21  22
ENDBRANCH  19  21
ENDBRANCH   5  20
TORSDOF 6
ENDMDL
MODEL 7
REMARK VINA RESULT:      -5.2     16.783     18.583
REMARK  Name = 155269219
REMARK  6 active torsions:
REMARK  status: ('A' for Active; 'I' for Inactive)
REMARK    1  A    between atoms: O_7  and  N_10
REMARK    2  A    between atoms: O_7  and  C_25
REMARK    3  A    between atoms: C_11  and  C_13
REMARK    4  A    between atoms: C_12  and  C_18
REMARK    5  A    between atoms: C_19  and  C_23
REMARK    6  A    between atoms: C_24  and  C_25
REMARK                            x       y       z     vdW  Elec       q    Type
REMARK                         _______ _______ _______ _____ _____    ______ ____
ROOT
ATOM      1  S   UNL     1       1.063   5.747 -60.594  0.00  0.00    +0.000 S 
ATOM      2  N   UNL     1      -1.368   6.533 -60.328  0.00  0.00    +0.000 N 
ATOM      3  N   UNL     1      -0.839   5.227 -58.596  0.00  0.00    +0.000 NA
ATOM      4  C   UNL     1      -2.152   5.665 -58.493  0.00  0.00    +0.000 A 
ATOM      5  C   UNL     1      -2.512   6.483 -59.571  0.00  0.00    +0.000 A 
ATOM      6  C   UNL     1      -0.436   5.750 -59.718  0.00  0.00    +0.000 A 
ATOM      7  C   UNL     1      -0.929   7.176 -61.470  0.00  0.00    +0.000 A 
ATOM      8  C   UNL     1       0.339   6.853 -61.769  0.00  0.00    +0.000 A 
ENDROOT
BRANCH   4   9
ATOM      9  C   UNL     1      -2.987   5.312 -57.349  0.00  0.00    +0.000 A 
ATOM     10  C   UNL     1      -3.491   4.010 -57.235  0.00  0.00    +0.000 A 
ATOM     11  C   UNL     1      -3.299   6.240 -56.347  0.00  0.00    +0.000 A 
ATOM     12  C   UNL     1      -4.480   4.535 -55.076  0.00  0.00    +0.000 A 
ATOM     13  C   UNL     1      -4.229   3.622 -56.109  0.00  0.00    +0.000 A 
ATOM     14  C   UNL     1      -4.021   5.853 -55.215  0.00  0.00    +0.000 A 
BRANCH  12  18
ATOM     15  F   UNL     1      -6.502   4.568 -53.771  0.00  0.00    +0.000 F 
ATOM     16  F   UNL     1      -5.274   2.777 -53.674  0.00  0.00    +0.000 F 
ATOM     17  F   UNL     1      -4.614   4.600 -52.691  0.00  0.00    +0.000 F 
ATOM     18  C   UNL     1      -5.213   4.131 -53.821  0.00  0.00    +0.000 C 
ENDBRANCH  12  18
ENDBRANCH   4   9
BRANCH   5  20
ATOM     19  N   UNL     1      -4.864   6.728 -60.235  0.00  0.00    +0.000 NA
ATOM     20  C   UNL     1      -3.729   7.209 -59.818  0.00  0.00    +0.000 C 
BRANCH  19  21
ATOM     21  O   UNL     1      -4.848   5.328 -60.283  0.00  0.00    +0.000 OA
BRANCH  21  22
ATOM     22  C   UNL     1      -6.044   4.804 -59.706  0.00  0.00    +0.000 C 
BRANCH  22  25
ATOM     23 CL   UNL     1      -8.511   1.329 -62.714  0.00  0.00    +0.000 Cl
ATOM     24 CL   UNL     1      -6.615  -0.969 -61.404  0.00  0.00    +0.000 Cl
ATOM     25  C   UNL     1      -6.194   3.380 -60.180  0.00  0.00    +0.000 A 
ATOM     26  C   UNL     1      -7.157   3.023 -61.134  0.00  0.00    +0.000 A 
ATOM     27  C   UNL     1      -5.371   2.381 -59.639  0.00  0.00    +0.000 A 
ATOM     28  C   UNL     1      -7.299   1.688 -61.534  0.00  0.00    +0.000 A 
ATOM     29  C   UNL     1      -5.510   1.051 -60.037  0.00  0.00    +0.000 A 
ATOM     30  C   UNL     1      -6.478   0.699 -60.979  0.00  0.00    +0.000 A 
ENDBRANCH  22  25
ENDBRANCH  21  22
ENDBRANCH  19  21
ENDBRANCH   5  20
TORSDOF 6
ENDMDL
MODEL 8
REMARK VINA RESULT:      -5.2      2.268      4.094
REMARK  Name = 155269219
REMARK  6 active torsions:
REMARK  status: ('A' for Active; 'I' for Inactive)
REMARK    1  A    between atoms: O_7  and  N_10
REMARK    2  A    between atoms: O_7  and  C_25
REMARK    3  A    between atoms: C_11  and  C_13
REMARK    4  A    between atoms: C_12  and  C_18
REMARK    5  A    between atoms: C_19  and  C_23
REMARK    6  A    between atoms: C_24  and  C_25
REMARK                            x       y       z     vdW  Elec       q    Type
REMARK                         _______ _______ _______ _____ _____    ______ ____
ROOT
ATOM      1  S   UNL     1     -24.752   7.371 -59.430  0.00  0.00    +0.000 S 
ATOM      2  N   UNL     1     -23.035   6.142 -57.966  0.00  0.00    +0.000 N 
ATOM      3  N   UNL     1     -24.275   7.468 -56.665  0.00  0.00    +0.000 NA
ATOM      4  C   UNL     1     -23.327   6.793 -55.910  0.00  0.00    +0.000 A 
ATOM      5  C   UNL     1     -22.530   5.957 -56.702  0.00  0.00    +0.000 A 
ATOM      6  C   UNL     1     -24.034   7.064 -57.879  0.00  0.00    +0.000 A 
ATOM      7  C   UNL     1     -22.827   5.628 -59.232  0.00  0.00    +0.000 A 
ATOM      8  C   UNL     1     -23.644   6.188 -60.139  0.00  0.00    +0.000 A 
ENDROOT
BRANCH   4   9
ATOM      9  C   UNL     1     -23.252   6.949 -54.461  0.00  0.00    +0.000 A 
ATOM     10  C   UNL     1     -24.126   6.223 -53.640  0.00  0.00    +0.000 A 
ATOM     11  C   UNL     1     -22.322   7.804 -53.855  0.00  0.00    +0.000 A 
ATOM     12  C   UNL     1     -23.047   7.096 -51.643  0.00  0.00    +0.000 A 
ATOM     13  C   UNL     1     -24.025   6.293 -52.245  0.00  0.00    +0.000 A 
ATOM     14  C   UNL     1     -22.208   7.864 -52.464  0.00  0.00    +0.000 A 
BRANCH  12  18
ATOM     15  F   UNL     1     -22.971   8.392 -49.616  0.00  0.00    +0.000 F 
ATOM     16  F   UNL     1     -23.796   6.384 -49.494  0.00  0.00    +0.000 F 
ATOM     17  F   UNL     1     -21.656   6.665 -49.749  0.00  0.00    +0.000 F 
ATOM     18  C   UNL     1     -22.868   7.142 -50.146  0.00  0.00    +0.000 C 
ENDBRANCH  12  18
ENDBRANCH   4   9
BRANCH   5  20
ATOM     19  N   UNL     1     -20.240   5.286 -56.125  0.00  0.00    +0.000 NA
ATOM     20  C   UNL     1     -21.499   5.028 -56.326  0.00  0.00    +0.000 C 
BRANCH  19  21
ATOM     21  O   UNL     1     -19.980   6.661 -56.161  0.00  0.00    +0.000 OA
BRANCH  21  22
ATOM     22  C   UNL     1     -19.049   6.957 -57.202  0.00  0.00    +0.000 C 
BRANCH  22  25
ATOM     23 CL   UNL     1     -22.144   9.704 -60.378  0.00  0.00    +0.000 Cl
ATOM     24 CL   UNL     1     -20.396  12.338 -59.606  0.00  0.00    +0.000 Cl
ATOM     25  C   UNL     1     -19.437   8.288 -57.797  0.00  0.00    +0.000 A 
ATOM     26  C   UNL     1     -20.500   8.403 -58.703  0.00  0.00    +0.000 A 
ATOM     27  C   UNL     1     -18.706   9.436 -57.459  0.00  0.00    +0.000 A 
ATOM     28  C   UNL     1     -20.820   9.645 -59.268  0.00  0.00    +0.000 A 
ATOM     29  C   UNL     1     -19.024  10.674 -58.018  0.00  0.00    +0.000 A 
ATOM     30  C   UNL     1     -20.076  10.781 -58.929  0.00  0.00    +0.000 A 
ENDBRANCH  22  25
ENDBRANCH  21  22
ENDBRANCH  19  21
ENDBRANCH   5  20
TORSDOF 6
ENDMDL
MODEL 9
REMARK VINA RESULT:      -5.1     17.207     18.815
REMARK  Name = 155269219
REMARK  6 active torsions:
REMARK  status: ('A' for Active; 'I' for Inactive)
REMARK    1  A    between atoms: O_7  and  N_10
REMARK    2  A    between atoms: O_7  and  C_25
REMARK    3  A    between atoms: C_11  and  C_13
REMARK    4  A    between atoms: C_12  and  C_18
REMARK    5  A    between atoms: C_19  and  C_23
REMARK    6  A    between atoms: C_24  and  C_25
REMARK                            x       y       z     vdW  Elec       q    Type
REMARK                         _______ _______ _______ _____ _____    ______ ____
ROOT
ATOM      1  S   UNL     1       1.443   6.561 -60.377  0.00  0.00    +0.000 S 
ATOM      2  N   UNL     1      -1.012   7.229 -60.019  0.00  0.00    +0.000 N 
ATOM      3  N   UNL     1      -0.425   5.762 -58.440  0.00  0.00    +0.000 NA
ATOM      4  C   UNL     1      -1.752   6.139 -58.286  0.00  0.00    +0.000 A 
ATOM      5  C   UNL     1      -2.148   7.057 -59.267  0.00  0.00    +0.000 A 
ATOM      6  C   UNL     1      -0.049   6.417 -59.500  0.00  0.00    +0.000 A 
ATOM      7  C   UNL     1      -0.604   8.006 -61.086  0.00  0.00    +0.000 A 
ATOM      8  C   UNL     1       0.673   7.762 -61.423  0.00  0.00    +0.000 A 
ENDROOT
BRANCH   4   9
ATOM      9  C   UNL     1      -2.566   5.636 -57.184  0.00  0.00    +0.000 A 
ATOM     10  C   UNL     1      -2.960   6.508 -56.160  0.00  0.00    +0.000 A 
ATOM     11  C   UNL     1      -2.978   4.299 -57.119  0.00  0.00    +0.000 A 
ATOM     12  C   UNL     1      -4.272   4.751 -55.109  0.00  0.00    +0.000 A 
ATOM     13  C   UNL     1      -3.806   6.072 -55.133  0.00  0.00    +0.000 A 
ATOM     14  C   UNL     1      -3.835   3.865 -56.104  0.00  0.00    +0.000 A 
BRANCH  12  18
ATOM     15  F   UNL     1      -5.532   2.942 -54.143  0.00  0.00    +0.000 F 
ATOM     16  F   UNL     1      -4.757   4.459 -52.793  0.00  0.00    +0.000 F 
ATOM     17  F   UNL     1      -6.430   4.922 -54.100  0.00  0.00    +0.000 F 
ATOM     18  C   UNL     1      -5.237   4.268 -54.055  0.00  0.00    +0.000 C 
ENDBRANCH  12  18
ENDBRANCH   4   9
BRANCH   5  20
ATOM     19  N   UNL     1      -4.465   7.339 -60.032  0.00  0.00    +0.000 NA
ATOM     20  C   UNL     1      -3.390   7.762 -59.431  0.00  0.00    +0.000 C 
BRANCH  19  21
ATOM     21  O   UNL     1      -4.357   5.993 -60.401  0.00  0.00    +0.000 OA
BRANCH  21  22
ATOM     22  C   UNL     1      -5.352   5.220 -59.730  0.00  0.00    +0.000 C 
BRANCH  22  25
ATOM     23 CL   UNL     1      -7.141   0.397 -60.598  0.00  0.00    +0.000 Cl
ATOM     24 CL   UNL     1      -7.233   1.132 -63.767  0.00  0.00    +0.000 Cl
ATOM     25  C   UNL     1      -5.858   4.184 -60.703  0.00  0.00    +0.000 A 
ATOM     26  C   UNL     1      -6.246   2.906 -60.277  0.00  0.00    +0.000 A 
ATOM     27  C   UNL     1      -5.923   4.492 -62.069  0.00  0.00    +0.000 A 
ATOM     28  C   UNL     1      -6.682   1.950 -61.204  0.00  0.00    +0.000 A 
ATOM     29  C   UNL     1      -6.358   3.542 -62.995  0.00  0.00    +0.000 A 
ATOM     30  C   UNL     1      -6.732   2.267 -62.566  0.00  0.00    +0.000 A 
ENDBRANCH  22  25
ENDBRANCH  21  22
ENDBRANCH  19  21
ENDBRANCH   5  20
TORSDOF 6
ENDMDL
MODEL 10
REMARK VINA RESULT:      -4.9     17.645     19.553
REMARK  Name = 155269219
REMARK  6 active torsions:
REMARK  status: ('A' for Active; 'I' for Inactive)
REMARK    1  A    between atoms: O_7  and  N_10
REMARK    2  A    between atoms: O_7  and  C_25
REMARK    3  A    between atoms: C_11  and  C_13
REMARK    4  A    between atoms: C_12  and  C_18
REMARK    5  A    between atoms: C_19  and  C_23
REMARK    6  A    between atoms: C_24  and  C_25
REMARK                            x       y       z     vdW  Elec       q    Type
REMARK                         _______ _______ _______ _____ _____    ______ ____
ROOT
ATOM      1  S   UNL     1      -2.773  -4.325 -52.171  0.00  0.00    +0.000 S 
ATOM      2  N   UNL     1      -4.852  -2.924 -51.609  0.00  0.00    +0.000 N 
ATOM      3  N   UNL     1      -3.379  -1.632 -52.681  0.00  0.00    +0.000 NA
ATOM      4  C   UNL     1      -4.514  -0.906 -52.351  0.00  0.00    +0.000 A 
ATOM      5  C   UNL     1      -5.454  -1.692 -51.672  0.00  0.00    +0.000 A 
ATOM      6  C   UNL     1      -3.625  -2.812 -52.189  0.00  0.00    +0.000 A 
ATOM      7  C   UNL     1      -5.172  -4.193 -51.168  0.00  0.00    +0.000 A 
ATOM      8  C   UNL     1      -4.168  -5.062 -51.370  0.00  0.00    +0.000 A 
ENDROOT
BRANCH   4   9
ATOM      9  C   UNL     1      -4.663   0.494 -52.735  0.00  0.00    +0.000 A 
ATOM     10  C   UNL     1      -4.319   1.503 -51.824  0.00  0.00    +0.000 A 
ATOM     11  C   UNL     1      -5.137   0.869 -53.999  0.00  0.00    +0.000 A 
ATOM     12  C   UNL     1      -4.787   3.219 -53.482  0.00  0.00    +0.000 A 
ATOM     13  C   UNL     1      -4.378   2.852 -52.193  0.00  0.00    +0.000 A 
ATOM     14  C   UNL     1      -5.182   2.213 -54.375  0.00  0.00    +0.000 A 
BRANCH  12  18
ATOM     15  F   UNL     1      -4.423   5.542 -52.963  0.00  0.00    +0.000 F 
ATOM     16  F   UNL     1      -3.952   4.877 -54.979  0.00  0.00    +0.000 F 
ATOM     17  F   UNL     1      -6.025   5.066 -54.356  0.00  0.00    +0.000 F 
ATOM     18  C   UNL     1      -4.797   4.660 -53.932  0.00  0.00    +0.000 C 
ENDBRANCH  12  18
ENDBRANCH   4   9
BRANCH   5  20
ATOM     19  N   UNL     1      -7.903  -1.623 -51.839  0.00  0.00    +0.000 NA
ATOM     20  C   UNL     1      -6.783  -1.370 -51.227  0.00  0.00    +0.000 C 
BRANCH  19  21
ATOM     21  O   UNL     1      -7.706  -2.421 -52.973  0.00  0.00    +0.000 OA
BRANCH  21  22
ATOM     22  C   UNL     1      -7.959  -1.662 -54.156  0.00  0.00    +0.000 C 
BRANCH  22  25
ATOM     23 CL   UNL     1      -4.110  -4.852 -55.644  0.00  0.00    +0.000 Cl
ATOM     24 CL   UNL     1      -3.697  -2.943 -58.247  0.00  0.00    +0.000 Cl
ATOM     25  C   UNL     1      -6.907  -2.033 -55.171  0.00  0.00    +0.000 A 
ATOM     26  C   UNL     1      -6.081  -3.152 -54.994  0.00  0.00    +0.000 A 
ATOM     27  C   UNL     1      -6.730  -1.232 -56.308  0.00  0.00    +0.000 A 
ATOM     28  C   UNL     1      -5.088  -3.457 -55.935  0.00  0.00    +0.000 A 
ATOM     29  C   UNL     1      -5.743  -1.535 -57.247  0.00  0.00    +0.000 A 
ATOM     30  C   UNL     1      -4.916  -2.643 -57.060  0.00  0.00    +0.000 A 
ENDBRANCH  22  25
ENDBRANCH  21  22
ENDBRANCH  19  21
ENDBRANCH   5  20
TORSDOF 6
ENDMDL
