MODEL 1
REMARK VINA RESULT:      -5.6      0.000      0.000
REMARK  Name = 155269218
REMARK  5 active torsions:
REMARK  status: ('A' for Active; 'I' for Inactive)
REMARK    1  A    between atoms: O_5  and  N_8
REMARK    2  A    between atoms: O_5  and  C_21
REMARK    3  A    between atoms: C_9  and  C_14
REMARK    4  A    between atoms: C_10  and  C_12
REMARK    5  A    between atoms: C_20  and  C_21
REMARK                            x       y       z     vdW  Elec       q    Type
REMARK                         _______ _______ _______ _____ _____    ______ ____
ROOT
ATOM      1  S   UNL     1     -14.736   7.508 -35.524  0.00  0.00    +0.000 S 
ATOM      2  N   UNL     1     -12.860   6.497 -34.091  0.00  0.00    +0.000 N 
ATOM      3  N   UNL     1     -12.165   6.615 -36.208  0.00  0.00    +0.000 NA
ATOM      4  C   UNL     1     -11.590   5.964 -34.069  0.00  0.00    +0.000 A 
ATOM      5  C   UNL     1     -11.180   6.060 -35.405  0.00  0.00    +0.000 A 
ATOM      6  C   UNL     1     -13.146   6.823 -35.380  0.00  0.00    +0.000 A 
ATOM      7  C   UNL     1     -13.852   6.802 -33.182  0.00  0.00    +0.000 A 
ATOM      8  C   UNL     1     -14.934   7.332 -33.775  0.00  0.00    +0.000 A 
ENDROOT
BRANCH   5  10
ATOM      9  F   UNL     1      -6.279   4.602 -37.677  0.00  0.00    +0.000 F 
ATOM     10  C   UNL     1      -9.882   5.679 -35.953  0.00  0.00    +0.000 A 
ATOM     11  C   UNL     1      -9.779   4.508 -36.723  0.00  0.00    +0.000 A 
ATOM     12  C   UNL     1      -8.728   6.444 -35.731  0.00  0.00    +0.000 A 
ATOM     13  C   UNL     1      -8.561   4.139 -37.301  0.00  0.00    +0.000 A 
ATOM     14  C   UNL     1      -7.512   6.082 -36.319  0.00  0.00    +0.000 A 
ATOM     15  C   UNL     1      -7.443   4.939 -37.106  0.00  0.00    +0.000 A 
ENDBRANCH   5  10
BRANCH   4  17
ATOM     16  N   UNL     1     -10.582   4.308 -32.566  0.00  0.00    +0.000 NA
ATOM     17  C   UNL     1     -10.873   5.531 -32.903  0.00  0.00    +0.000 C 
BRANCH  16  18
ATOM     18  O   UNL     1     -10.913   3.400 -33.579  0.00  0.00    +0.000 OA
BRANCH  18  19
ATOM     19  C   UNL     1     -10.336   2.123 -33.305  0.00  0.00    +0.000 C 
BRANCH  19  22
ATOM     20 CL   UNL     1      -7.025  -0.165 -36.623  0.00  0.00    +0.000 Cl
ATOM     21 CL   UNL     1      -4.801   2.037 -35.733  0.00  0.00    +0.000 Cl
ATOM     22  C   UNL     1      -8.977   2.089 -33.958  0.00  0.00    +0.000 A 
ATOM     23  C   UNL     1      -8.643   1.109 -34.902  0.00  0.00    +0.000 A 
ATOM     24  C   UNL     1      -8.014   3.043 -33.599  0.00  0.00    +0.000 A 
ATOM     25  C   UNL     1      -7.362   1.078 -35.470  0.00  0.00    +0.000 A 
ATOM     26  C   UNL     1      -6.738   3.015 -34.166  0.00  0.00    +0.000 A 
ATOM     27  C   UNL     1      -6.406   2.029 -35.096  0.00  0.00    +0.000 A 
ENDBRANCH  19  22
ENDBRANCH  18  19
ENDBRANCH  16  18
ENDBRANCH   4  17
TORSDOF 5
ENDMDL
MODEL 2
REMARK VINA RESULT:      -5.5     23.931     25.373
REMARK  Name = 155269218
REMARK  5 active torsions:
REMARK  status: ('A' for Active; 'I' for Inactive)
REMARK    1  A    between atoms: O_5  and  N_8
REMARK    2  A    between atoms: O_5  and  C_21
REMARK    3  A    between atoms: C_9  and  C_14
REMARK    4  A    between atoms: C_10  and  C_12
REMARK    5  A    between atoms: C_20  and  C_21
REMARK                            x       y       z     vdW  Elec       q    Type
REMARK                         _______ _______ _______ _____ _____    ______ ____
ROOT
ATOM      1  S   UNL     1     -25.123   6.294 -52.483  0.00  0.00    +0.000 S 
ATOM      2  N   UNL     1     -24.004   5.103 -54.464  0.00  0.00    +0.000 N 
ATOM      3  N   UNL     1     -22.819   6.924 -53.956  0.00  0.00    +0.000 NA
ATOM      4  C   UNL     1     -22.977   5.115 -55.383  0.00  0.00    +0.000 A 
ATOM      5  C   UNL     1     -22.250   6.259 -55.033  0.00  0.00    +0.000 A 
ATOM      6  C   UNL     1     -23.871   6.209 -53.685  0.00  0.00    +0.000 A 
ATOM      7  C   UNL     1     -25.058   4.279 -54.127  0.00  0.00    +0.000 A 
ATOM      8  C   UNL     1     -25.774   4.770 -53.103  0.00  0.00    +0.000 A 
ENDROOT
BRANCH   5  10
ATOM      9  F   UNL     1     -17.467   8.143 -57.243  0.00  0.00    +0.000 F 
ATOM     10  C   UNL     1     -21.019   6.739 -55.653  0.00  0.00    +0.000 A 
ATOM     11  C   UNL     1     -20.625   8.073 -55.457  0.00  0.00    +0.000 A 
ATOM     12  C   UNL     1     -20.215   5.909 -56.448  0.00  0.00    +0.000 A 
ATOM     13  C   UNL     1     -19.429   8.552 -55.999  0.00  0.00    +0.000 A 
ATOM     14  C   UNL     1     -19.011   6.383 -56.979  0.00  0.00    +0.000 A 
ATOM     15  C   UNL     1     -18.626   7.696 -56.741  0.00  0.00    +0.000 A 
ENDBRANCH   5  10
BRANCH   4  17
ATOM     16  N   UNL     1     -23.174   4.051 -57.584  0.00  0.00    +0.000 NA
ATOM     17  C   UNL     1     -22.710   4.106 -56.369  0.00  0.00    +0.000 C 
BRANCH  16  18
ATOM     18  O   UNL     1     -23.877   5.213 -57.923  0.00  0.00    +0.000 OA
BRANCH  18  19
ATOM     19  C   UNL     1     -23.247   5.866 -59.026  0.00  0.00    +0.000 C 
BRANCH  19  22
ATOM     20 CL   UNL     1     -20.296  10.158 -59.302  0.00  0.00    +0.000 Cl
ATOM     21 CL   UNL     1     -22.378  11.577 -57.243  0.00  0.00    +0.000 Cl
ATOM     22  C   UNL     1     -23.014   7.303 -58.630  0.00  0.00    +0.000 A 
ATOM     23  C   UNL     1     -21.904   8.020 -59.096  0.00  0.00    +0.000 A 
ATOM     24  C   UNL     1     -23.914   7.934 -57.759  0.00  0.00    +0.000 A 
ATOM     25  C   UNL     1     -21.691   9.343 -58.688  0.00  0.00    +0.000 A 
ATOM     26  C   UNL     1     -23.705   9.254 -57.353  0.00  0.00    +0.000 A 
ATOM     27  C   UNL     1     -22.590   9.959 -57.809  0.00  0.00    +0.000 A 
ENDBRANCH  19  22
ENDBRANCH  18  19
ENDBRANCH  16  18
ENDBRANCH   4  17
TORSDOF 5
ENDMDL
MODEL 3
REMARK VINA RESULT:      -5.1     21.622     23.438
REMARK  Name = 155269218
REMARK  5 active torsions:
REMARK  status: ('A' for Active; 'I' for Inactive)
REMARK    1  A    between atoms: O_5  and  N_8
REMARK    2  A    between atoms: O_5  and  C_21
REMARK    3  A    between atoms: C_9  and  C_14
REMARK    4  A    between atoms: C_10  and  C_12
REMARK    5  A    between atoms: C_20  and  C_21
REMARK                            x       y       z     vdW  Elec       q    Type
REMARK                         _______ _______ _______ _____ _____    ______ ____
ROOT
ATOM      1  S   UNL     1      -8.320  13.410 -58.791  0.00  0.00    +0.000 S 
ATOM      2  N   UNL     1      -9.910  12.513 -56.985  0.00  0.00    +0.000 N 
ATOM      3  N   UNL     1     -11.042  12.736 -58.895  0.00  0.00    +0.000 NA
ATOM      4  C   UNL     1     -11.195  12.122 -56.675  0.00  0.00    +0.000 A 
ATOM      5  C   UNL     1     -11.875  12.264 -57.891  0.00  0.00    +0.000 A 
ATOM      6  C   UNL     1      -9.902  12.894 -58.290  0.00  0.00    +0.000 A 
ATOM      7  C   UNL     1      -8.686  12.580 -56.353  0.00  0.00    +0.000 A 
ATOM      8  C   UNL     1      -7.726  13.055 -57.162  0.00  0.00    +0.000 A 
ENDROOT
BRANCH   5  10
ATOM      9  F   UNL     1     -17.234  11.152 -59.049  0.00  0.00    +0.000 F 
ATOM     10  C   UNL     1     -13.274  11.944 -58.156  0.00  0.00    +0.000 A 
ATOM     11  C   UNL     1     -14.226  12.977 -58.163  0.00  0.00    +0.000 A 
ATOM     12  C   UNL     1     -13.702  10.630 -58.398  0.00  0.00    +0.000 A 
ATOM     13  C   UNL     1     -15.566  12.710 -58.458  0.00  0.00    +0.000 A 
ATOM     14  C   UNL     1     -15.040  10.365 -58.706  0.00  0.00    +0.000 A 
ATOM     15  C   UNL     1     -15.955  11.408 -58.743  0.00  0.00    +0.000 A 
ENDBRANCH   5  10
BRANCH   4  17
ATOM     16  N   UNL     1     -11.990  12.280 -54.359  0.00  0.00    +0.000 NA
ATOM     17  C   UNL     1     -11.640  11.601 -55.413  0.00  0.00    +0.000 C 
BRANCH  16  18
ATOM     18  O   UNL     1     -12.047  13.653 -54.624  0.00  0.00    +0.000 OA
BRANCH  18  19
ATOM     19  C   UNL     1     -11.610  14.394 -53.484  0.00  0.00    +0.000 C 
BRANCH  19  22
ATOM     20 CL   UNL     1      -7.010  12.382 -52.068  0.00  0.00    +0.000 Cl
ATOM     21 CL   UNL     1      -5.584  14.842 -53.649  0.00  0.00    +0.000 Cl
ATOM     22  C   UNL     1     -10.104  14.453 -53.530  0.00  0.00    +0.000 A 
ATOM     23  C   UNL     1      -9.313  13.498 -52.875  0.00  0.00    +0.000 A 
ATOM     24  C   UNL     1      -9.474  15.495 -54.225  0.00  0.00    +0.000 A 
ATOM     25  C   UNL     1      -7.915  13.594 -52.905  0.00  0.00    +0.000 A 
ATOM     26  C   UNL     1      -8.081  15.591 -54.257  0.00  0.00    +0.000 A 
ATOM     27  C   UNL     1      -7.299  14.646 -53.591  0.00  0.00    +0.000 A 
ENDBRANCH  19  22
ENDBRANCH  18  19
ENDBRANCH  16  18
ENDBRANCH   4  17
TORSDOF 5
ENDMDL
MODEL 4
REMARK VINA RESULT:      -5.0     22.075     23.975
REMARK  Name = 155269218
REMARK  5 active torsions:
REMARK  status: ('A' for Active; 'I' for Inactive)
REMARK    1  A    between atoms: O_5  and  N_8
REMARK    2  A    between atoms: O_5  and  C_21
REMARK    3  A    between atoms: C_9  and  C_14
REMARK    4  A    between atoms: C_10  and  C_12
REMARK    5  A    between atoms: C_20  and  C_21
REMARK                            x       y       z     vdW  Elec       q    Type
REMARK                         _______ _______ _______ _____ _____    ______ ____
ROOT
ATOM      1  S   UNL     1     -14.547  10.047 -58.369  0.00  0.00    +0.000 S 
ATOM      2  N   UNL     1     -12.293  11.222 -58.730  0.00  0.00    +0.000 N 
ATOM      3  N   UNL     1     -12.731  11.163 -56.544  0.00  0.00    +0.000 NA
ATOM      4  C   UNL     1     -11.224  11.865 -58.146  0.00  0.00    +0.000 A 
ATOM      5  C   UNL     1     -11.523  11.804 -56.779  0.00  0.00    +0.000 A 
ATOM      6  C   UNL     1     -13.153  10.870 -57.738  0.00  0.00    +0.000 A 
ATOM      7  C   UNL     1     -12.676  10.832 -59.997  0.00  0.00    +0.000 A 
ATOM      8  C   UNL     1     -13.865  10.207 -59.993  0.00  0.00    +0.000 A 
ENDROOT
BRANCH   5  10
ATOM      9  F   UNL     1      -8.334  13.847 -52.662  0.00  0.00    +0.000 F 
ATOM     10  C   UNL     1     -10.702  12.298 -55.678  0.00  0.00    +0.000 A 
ATOM     11  C   UNL     1      -9.340  12.561 -55.902  0.00  0.00    +0.000 A 
ATOM     12  C   UNL     1     -11.229  12.514 -54.397  0.00  0.00    +0.000 A 
ATOM     13  C   UNL     1      -8.536  13.079 -54.882  0.00  0.00    +0.000 A 
ATOM     14  C   UNL     1     -10.429  13.043 -53.380  0.00  0.00    +0.000 A 
ATOM     15  C   UNL     1      -9.094  13.329 -53.635  0.00  0.00    +0.000 A 
ENDBRANCH   5  10
BRANCH   4  17
ATOM     16  N   UNL     1      -9.875  13.560 -59.298  0.00  0.00    +0.000 NA
ATOM     17  C   UNL     1     -10.059  12.362 -58.823  0.00  0.00    +0.000 C 
BRANCH  16  18
ATOM     18  O   UNL     1     -10.912  14.426 -58.933  0.00  0.00    +0.000 OA
BRANCH  18  19
ATOM     19  C   UNL     1     -10.382  15.595 -58.309  0.00  0.00    +0.000 C 
BRANCH  19  22
ATOM     20 CL   UNL     1     -10.128  16.854 -53.253  0.00  0.00    +0.000 Cl
ATOM     21 CL   UNL     1     -13.274  16.060 -53.021  0.00  0.00    +0.000 Cl
ATOM     22  C   UNL     1     -11.077  15.756 -56.980  0.00  0.00    +0.000 A 
ATOM     23  C   UNL     1     -10.388  16.198 -55.842  0.00  0.00    +0.000 A 
ATOM     24  C   UNL     1     -12.438  15.437 -56.868  0.00  0.00    +0.000 A 
ATOM     25  C   UNL     1     -11.048  16.307 -54.611  0.00  0.00    +0.000 A 
ATOM     26  C   UNL     1     -13.097  15.547 -55.643  0.00  0.00    +0.000 A 
ATOM     27  C   UNL     1     -12.403  15.975 -54.510  0.00  0.00    +0.000 A 
ENDBRANCH  19  22
ENDBRANCH  18  19
ENDBRANCH  16  18
ENDBRANCH   4  17
TORSDOF 5
ENDMDL
MODEL 5
REMARK VINA RESULT:      -4.8     22.894     24.758
REMARK  Name = 155269218
REMARK  5 active torsions:
REMARK  status: ('A' for Active; 'I' for Inactive)
REMARK    1  A    between atoms: O_5  and  N_8
REMARK    2  A    between atoms: O_5  and  C_21
REMARK    3  A    between atoms: C_9  and  C_14
REMARK    4  A    between atoms: C_10  and  C_12
REMARK    5  A    between atoms: C_20  and  C_21
REMARK                            x       y       z     vdW  Elec       q    Type
REMARK                         _______ _______ _______ _____ _____    ______ ____
ROOT
ATOM      1  S   UNL     1     -23.971   8.119 -50.687  0.00  0.00    +0.000 S 
ATOM      2  N   UNL     1     -24.105   6.686 -52.813  0.00  0.00    +0.000 N 
ATOM      3  N   UNL     1     -22.190   7.831 -52.836  0.00  0.00    +0.000 NA
ATOM      4  C   UNL     1     -23.502   6.328 -53.999  0.00  0.00    +0.000 A 
ATOM      5  C   UNL     1     -22.304   7.053 -53.979  0.00  0.00    +0.000 A 
ATOM      6  C   UNL     1     -23.301   7.596 -52.202  0.00  0.00    +0.000 A 
ATOM      7  C   UNL     1     -25.242   6.349 -52.107  0.00  0.00    +0.000 A 
ATOM      8  C   UNL     1     -25.341   7.033 -50.956  0.00  0.00    +0.000 A 
ENDROOT
BRANCH   5  10
ATOM      9  F   UNL     1     -18.365   6.917 -57.950  0.00  0.00    +0.000 F 
ATOM     10  C   UNL     1     -21.243   7.020 -54.981  0.00  0.00    +0.000 A 
ATOM     11  C   UNL     1     -21.162   5.929 -55.861  0.00  0.00    +0.000 A 
ATOM     12  C   UNL     1     -20.292   8.046 -55.090  0.00  0.00    +0.000 A 
ATOM     13  C   UNL     1     -20.187   5.888 -56.861  0.00  0.00    +0.000 A 
ATOM     14  C   UNL     1     -19.324   8.013 -56.098  0.00  0.00    +0.000 A 
ATOM     15  C   UNL     1     -19.287   6.940 -56.979  0.00  0.00    +0.000 A 
ENDBRANCH   5  10
BRANCH   4  17
ATOM     16  N   UNL     1     -24.600   5.584 -56.063  0.00  0.00    +0.000 NA
ATOM     17  C   UNL     1     -23.987   5.356 -54.937  0.00  0.00    +0.000 C 
BRANCH  16  18
ATOM     18  O   UNL     1     -24.612   6.948 -56.378  0.00  0.00    +0.000 OA
BRANCH  18  19
ATOM     19  C   UNL     1     -24.285   7.138 -57.754  0.00  0.00    +0.000 C 
BRANCH  19  22
ATOM     20 CL   UNL     1     -22.418  11.646 -55.911  0.00  0.00    +0.000 Cl
ATOM     21 CL   UNL     1     -20.177  11.543 -58.268  0.00  0.00    +0.000 Cl
ATOM     22  C   UNL     1     -23.257   8.239 -57.830  0.00  0.00    +0.000 A 
ATOM     23  C   UNL     1     -23.273   9.319 -56.936  0.00  0.00    +0.000 A 
ATOM     24  C   UNL     1     -22.272   8.198 -58.827  0.00  0.00    +0.000 A 
ATOM     25  C   UNL     1     -22.328  10.347 -57.047  0.00  0.00    +0.000 A 
ATOM     26  C   UNL     1     -21.327   9.220 -58.938  0.00  0.00    +0.000 A 
ATOM     27  C   UNL     1     -21.357  10.300 -58.054  0.00  0.00    +0.000 A 
ENDBRANCH  19  22
ENDBRANCH  18  19
ENDBRANCH  16  18
ENDBRANCH   4  17
TORSDOF 5
ENDMDL
MODEL 6
REMARK VINA RESULT:      -4.7     13.689     15.535
REMARK  Name = 155269218
REMARK  5 active torsions:
REMARK  status: ('A' for Active; 'I' for Inactive)
REMARK    1  A    between atoms: O_5  and  N_8
REMARK    2  A    between atoms: O_5  and  C_21
REMARK    3  A    between atoms: C_9  and  C_14
REMARK    4  A    between atoms: C_10  and  C_12
REMARK    5  A    between atoms: C_20  and  C_21
REMARK                            x       y       z     vdW  Elec       q    Type
REMARK                         _______ _______ _______ _____ _____    ______ ____
ROOT
ATOM      1  S   UNL     1     -11.893 -10.904 -43.416  0.00  0.00    +0.000 S 
ATOM      2  N   UNL     1     -12.561  -8.700 -44.550  0.00  0.00    +0.000 N 
ATOM      3  N   UNL     1     -10.442  -8.546 -43.870  0.00  0.00    +0.000 NA
ATOM      4  C   UNL     1     -12.174  -7.427 -44.909  0.00  0.00    +0.000 A 
ATOM      5  C   UNL     1     -10.842  -7.366 -44.479  0.00  0.00    +0.000 A 
ATOM      6  C   UNL     1     -11.511  -9.285 -43.915  0.00  0.00    +0.000 A 
ATOM      7  C   UNL     1     -13.674  -9.504 -44.695  0.00  0.00    +0.000 A 
ATOM      8  C   UNL     1     -13.500 -10.710 -44.131  0.00  0.00    +0.000 A 
ENDROOT
BRANCH   5  10
ATOM      9  F   UNL     1      -7.424  -3.001 -45.224  0.00  0.00    +0.000 F 
ATOM     10  C   UNL     1      -9.918  -6.249 -44.644  0.00  0.00    +0.000 A 
ATOM     11  C   UNL     1      -9.489  -5.898 -45.935  0.00  0.00    +0.000 A 
ATOM     12  C   UNL     1      -9.438  -5.513 -43.551  0.00  0.00    +0.000 A 
ATOM     13  C   UNL     1      -8.640  -4.805 -46.133  0.00  0.00    +0.000 A 
ATOM     14  C   UNL     1      -8.600  -4.412 -43.749  0.00  0.00    +0.000 A 
ATOM     15  C   UNL     1      -8.218  -4.063 -45.037  0.00  0.00    +0.000 A 
ENDBRANCH   5  10
BRANCH   4  17
ATOM     16  N   UNL     1     -13.900  -5.704 -45.178  0.00  0.00    +0.000 NA
ATOM     17  C   UNL     1     -12.961  -6.477 -45.643  0.00  0.00    +0.000 C 
BRANCH  16  18
ATOM     18  O   UNL     1     -13.979  -5.770 -43.782  0.00  0.00    +0.000 OA
BRANCH  18  19
ATOM     19  C   UNL     1     -15.232  -6.327 -43.385  0.00  0.00    +0.000 C 
BRANCH  19  22
ATOM     20 CL   UNL     1     -17.156  -9.256 -39.521  0.00  0.00    +0.000 Cl
ATOM     21 CL   UNL     1     -14.157  -9.355 -38.264  0.00  0.00    +0.000 Cl
ATOM     22  C   UNL     1     -14.997  -7.120 -42.124  0.00  0.00    +0.000 A 
ATOM     23  C   UNL     1     -16.046  -7.776 -41.465  0.00  0.00    +0.000 A 
ATOM     24  C   UNL     1     -13.706  -7.189 -41.580  0.00  0.00    +0.000 A 
ATOM     25  C   UNL     1     -15.809  -8.479 -40.276  0.00  0.00    +0.000 A 
ATOM     26  C   UNL     1     -13.468  -7.891 -40.397  0.00  0.00    +0.000 A 
ATOM     27  C   UNL     1     -14.519  -8.531 -39.738  0.00  0.00    +0.000 A 
ENDBRANCH  19  22
ENDBRANCH  18  19
ENDBRANCH  16  18
ENDBRANCH   4  17
TORSDOF 5
ENDMDL
MODEL 7
REMARK VINA RESULT:      -4.7      2.802      4.306
REMARK  Name = 155269218
REMARK  5 active torsions:
REMARK  status: ('A' for Active; 'I' for Inactive)
REMARK    1  A    between atoms: O_5  and  N_8
REMARK    2  A    between atoms: O_5  and  C_21
REMARK    3  A    between atoms: C_9  and  C_14
REMARK    4  A    between atoms: C_10  and  C_12
REMARK    5  A    between atoms: C_20  and  C_21
REMARK                            x       y       z     vdW  Elec       q    Type
REMARK                         _______ _______ _______ _____ _____    ______ ____
ROOT
ATOM      1  S   UNL     1     -11.875   9.003 -30.691  0.00  0.00    +0.000 S 
ATOM      2  N   UNL     1     -11.626   8.274 -33.140  0.00  0.00    +0.000 N 
ATOM      3  N   UNL     1     -11.872   6.457 -31.869  0.00  0.00    +0.000 NA
ATOM      4  C   UNL     1     -11.555   7.220 -34.025  0.00  0.00    +0.000 A 
ATOM      5  C   UNL     1     -11.722   6.100 -33.201  0.00  0.00    +0.000 A 
ATOM      6  C   UNL     1     -11.775   7.753 -31.893  0.00  0.00    +0.000 A 
ATOM      7  C   UNL     1     -11.619   9.653 -33.197  0.00  0.00    +0.000 A 
ATOM      8  C   UNL     1     -11.724  10.207 -31.978  0.00  0.00    +0.000 A 
ENDROOT
BRANCH   5  10
ATOM      9  F   UNL     1     -11.814   0.703 -34.673  0.00  0.00    +0.000 F 
ATOM     10  C   UNL     1     -11.776   4.703 -33.621  0.00  0.00    +0.000 A 
ATOM     11  C   UNL     1     -10.586   4.043 -33.969  0.00  0.00    +0.000 A 
ATOM     12  C   UNL     1     -12.985   3.996 -33.695  0.00  0.00    +0.000 A 
ATOM     13  C   UNL     1     -10.597   2.694 -34.331  0.00  0.00    +0.000 A 
ATOM     14  C   UNL     1     -12.996   2.642 -34.044  0.00  0.00    +0.000 A 
ATOM     15  C   UNL     1     -11.801   2.003 -34.349  0.00  0.00    +0.000 A 
ENDBRANCH   5  10
BRANCH   4  17
ATOM     16  N   UNL     1     -10.353   7.443 -36.152  0.00  0.00    +0.000 NA
ATOM     17  C   UNL     1     -11.444   7.318 -35.453  0.00  0.00    +0.000 C 
BRANCH  16  18
ATOM     18  O   UNL     1      -9.210   7.309 -35.355  0.00  0.00    +0.000 OA
BRANCH  18  19
ATOM     19  C   UNL     1      -8.077   6.999 -36.165  0.00  0.00    +0.000 C 
BRANCH  19  22
ATOM     20 CL   UNL     1      -6.034   3.213 -33.216  0.00  0.00    +0.000 Cl
ATOM     21 CL   UNL     1      -6.778   1.122 -35.596  0.00  0.00    +0.000 Cl
ATOM     22  C   UNL     1      -7.766   5.536 -35.972  0.00  0.00    +0.000 A 
ATOM     23  C   UNL     1      -7.131   5.069 -34.813  0.00  0.00    +0.000 A 
ATOM     24  C   UNL     1      -8.099   4.619 -36.980  0.00  0.00    +0.000 A 
ATOM     25  C   UNL     1      -6.823   3.709 -34.671  0.00  0.00    +0.000 A 
ATOM     26  C   UNL     1      -7.795   3.264 -36.840  0.00  0.00    +0.000 A 
ATOM     27  C   UNL     1      -7.150   2.807 -35.689  0.00  0.00    +0.000 A 
ENDBRANCH  19  22
ENDBRANCH  18  19
ENDBRANCH  16  18
ENDBRANCH   4  17
TORSDOF 5
ENDMDL
MODEL 8
REMARK VINA RESULT:      -4.7     18.488     20.490
REMARK  Name = 155269218
REMARK  5 active torsions:
REMARK  status: ('A' for Active; 'I' for Inactive)
REMARK    1  A    between atoms: O_5  and  N_8
REMARK    2  A    between atoms: O_5  and  C_21
REMARK    3  A    between atoms: C_9  and  C_14
REMARK    4  A    between atoms: C_10  and  C_12
REMARK    5  A    between atoms: C_20  and  C_21
REMARK                            x       y       z     vdW  Elec       q    Type
REMARK                         _______ _______ _______ _____ _____    ______ ____
ROOT
ATOM      1  S   UNL     1      -1.382  -4.751 -53.949  0.00  0.00    +0.000 S 
ATOM      2  N   UNL     1      -2.822  -3.722 -52.089  0.00  0.00    +0.000 N 
ATOM      3  N   UNL     1      -2.816  -2.341 -53.842  0.00  0.00    +0.000 NA
ATOM      4  C   UNL     1      -3.592  -2.651 -51.689  0.00  0.00    +0.000 A 
ATOM      5  C   UNL     1      -3.576  -1.811 -52.810  0.00  0.00    +0.000 A 
ATOM      6  C   UNL     1      -2.371  -3.457 -53.344  0.00  0.00    +0.000 A 
ATOM      7  C   UNL     1      -2.442  -4.947 -51.582  0.00  0.00    +0.000 A 
ATOM      8  C   UNL     1      -1.654  -5.623 -52.434  0.00  0.00    +0.000 A 
ENDROOT
BRANCH   5  10
ATOM      9  F   UNL     1      -6.360   2.990 -53.517  0.00  0.00    +0.000 F 
ATOM     10  C   UNL     1      -4.274  -0.538 -52.961  0.00  0.00    +0.000 A 
ATOM     11  C   UNL     1      -4.310   0.081 -54.221  0.00  0.00    +0.000 A 
ATOM     12  C   UNL     1      -4.909   0.093 -51.881  0.00  0.00    +0.000 A 
ATOM     13  C   UNL     1      -5.008   1.276 -54.410  0.00  0.00    +0.000 A 
ATOM     14  C   UNL     1      -5.619   1.283 -52.072  0.00  0.00    +0.000 A 
ATOM     15  C   UNL     1      -5.670   1.856 -53.336  0.00  0.00    +0.000 A 
ENDBRANCH   5  10
BRANCH   4  17
ATOM     16  N   UNL     1      -5.405  -3.140 -50.111  0.00  0.00    +0.000 NA
ATOM     17  C   UNL     1      -4.303  -2.535 -50.447  0.00  0.00    +0.000 C 
BRANCH  16  18
ATOM     18  O   UNL     1      -5.782  -4.095 -51.063  0.00  0.00    +0.000 OA
BRANCH  18  19
ATOM     19  C   UNL     1      -7.132  -3.876 -51.473  0.00  0.00    +0.000 C 
BRANCH  19  22
ATOM     20 CL   UNL     1      -8.707   0.105 -54.453  0.00  0.00    +0.000 Cl
ATOM     21 CL   UNL     1      -6.984  -1.193 -56.888  0.00  0.00    +0.000 Cl
ATOM     22  C   UNL     1      -7.094  -3.159 -52.799  0.00  0.00    +0.000 A 
ATOM     23  C   UNL     1      -7.813  -1.976 -53.014  0.00  0.00    +0.000 A 
ATOM     24  C   UNL     1      -6.339  -3.695 -53.853  0.00  0.00    +0.000 A 
ATOM     25  C   UNL     1      -7.788  -1.347 -54.266  0.00  0.00    +0.000 A 
ATOM     26  C   UNL     1      -6.311  -3.069 -55.100  0.00  0.00    +0.000 A 
ATOM     27  C   UNL     1      -7.041  -1.898 -55.312  0.00  0.00    +0.000 A 
ENDBRANCH  19  22
ENDBRANCH  18  19
ENDBRANCH  16  18
ENDBRANCH   4  17
TORSDOF 5
ENDMDL
MODEL 9
REMARK VINA RESULT:      -4.7     23.429     25.293
REMARK  Name = 155269218
REMARK  5 active torsions:
REMARK  status: ('A' for Active; 'I' for Inactive)
REMARK    1  A    between atoms: O_5  and  N_8
REMARK    2  A    between atoms: O_5  and  C_21
REMARK    3  A    between atoms: C_9  and  C_14
REMARK    4  A    between atoms: C_10  and  C_12
REMARK    5  A    between atoms: C_20  and  C_21
REMARK                            x       y       z     vdW  Elec       q    Type
REMARK                         _______ _______ _______ _____ _____    ______ ____
ROOT
ATOM      1  S   UNL     1     -22.089  11.153 -58.150  0.00  0.00    +0.000 S 
ATOM      2  N   UNL     1     -20.776   9.296 -56.958  0.00  0.00    +0.000 N 
ATOM      3  N   UNL     1     -22.764   9.520 -55.970  0.00  0.00    +0.000 NA
ATOM      4  C   UNL     1     -20.761   8.373 -55.935  0.00  0.00    +0.000 A 
ATOM      5  C   UNL     1     -22.020   8.532 -55.343  0.00  0.00    +0.000 A 
ATOM      6  C   UNL     1     -21.963   9.956 -56.897  0.00  0.00    +0.000 A 
ATOM      7  C   UNL     1     -19.952   9.678 -57.997  0.00  0.00    +0.000 A 
ATOM      8  C   UNL     1     -20.487  10.671 -58.725  0.00  0.00    +0.000 A 
ENDROOT
BRANCH   5  10
ATOM      9  F   UNL     1     -24.179   5.758 -50.990  0.00  0.00    +0.000 F 
ATOM     10  C   UNL     1     -22.566   7.767 -54.226  0.00  0.00    +0.000 A 
ATOM     11  C   UNL     1     -22.167   8.083 -52.917  0.00  0.00    +0.000 A 
ATOM     12  C   UNL     1     -23.477   6.718 -54.419  0.00  0.00    +0.000 A 
ATOM     13  C   UNL     1     -22.706   7.401 -51.822  0.00  0.00    +0.000 A 
ATOM     14  C   UNL     1     -24.026   6.044 -53.324  0.00  0.00    +0.000 A 
ATOM     15  C   UNL     1     -23.642   6.398 -52.037  0.00  0.00    +0.000 A 
ENDBRANCH   5  10
BRANCH   4  17
ATOM     16  N   UNL     1     -19.736   6.145 -55.877  0.00  0.00    +0.000 NA
ATOM     17  C   UNL     1     -19.715   7.428 -55.661  0.00  0.00    +0.000 C 
BRANCH  16  18
ATOM     18  O   UNL     1     -20.879   5.759 -56.587  0.00  0.00    +0.000 OA
BRANCH  18  19
ATOM     19  C   UNL     1     -21.241   4.420 -56.247  0.00  0.00    +0.000 C 
BRANCH  19  22
ATOM     20 CL   UNL     1     -25.414   1.503 -57.384  0.00  0.00    +0.000 Cl
ATOM     21 CL   UNL     1     -25.147   2.534 -60.458  0.00  0.00    +0.000 Cl
ATOM     22  C   UNL     1     -22.255   3.953 -57.262  0.00  0.00    +0.000 A 
ATOM     23  C   UNL     1     -23.277   3.057 -56.918  0.00  0.00    +0.000 A 
ATOM     24  C   UNL     1     -22.165   4.404 -58.587  0.00  0.00    +0.000 A 
ATOM     25  C   UNL     1     -24.186   2.612 -57.886  0.00  0.00    +0.000 A 
ATOM     26  C   UNL     1     -23.072   3.962 -59.552  0.00  0.00    +0.000 A 
ATOM     27  C   UNL     1     -24.079   3.060 -59.207  0.00  0.00    +0.000 A 
ENDBRANCH  19  22
ENDBRANCH  18  19
ENDBRANCH  16  18
ENDBRANCH   4  17
TORSDOF 5
ENDMDL
MODEL 10
REMARK VINA RESULT:      -4.7     11.245     13.272
REMARK  Name = 155269218
REMARK  5 active torsions:
REMARK  status: ('A' for Active; 'I' for Inactive)
REMARK    1  A    between atoms: O_5  and  N_8
REMARK    2  A    between atoms: O_5  and  C_21
REMARK    3  A    between atoms: C_9  and  C_14
REMARK    4  A    between atoms: C_10  and  C_12
REMARK    5  A    between atoms: C_20  and  C_21
REMARK                            x       y       z     vdW  Elec       q    Type
REMARK                         _______ _______ _______ _____ _____    ______ ____
ROOT
ATOM      1  S   UNL     1       1.498   6.520 -46.928  0.00  0.00    +0.000 S 
ATOM      2  N   UNL     1      -0.242   5.288 -45.497  0.00  0.00    +0.000 N 
ATOM      3  N   UNL     1       0.813   6.781 -44.219  0.00  0.00    +0.000 NA
ATOM      4  C   UNL     1      -0.802   5.132 -44.248  0.00  0.00    +0.000 A 
ATOM      5  C   UNL     1      -0.128   6.086 -43.475  0.00  0.00    +0.000 A 
ATOM      6  C   UNL     1       0.721   6.243 -45.399  0.00  0.00    +0.000 A 
ATOM      7  C   UNL     1      -0.423   4.773 -46.765  0.00  0.00    +0.000 A 
ATOM      8  C   UNL     1       0.435   5.305 -47.651  0.00  0.00    +0.000 A 
ENDROOT
BRANCH   5  10
ATOM      9  F   UNL     1      -1.041   7.081 -38.046  0.00  0.00    +0.000 F 
ATOM     10  C   UNL     1      -0.356   6.391 -42.066  0.00  0.00    +0.000 A 
ATOM     11  C   UNL     1      -1.609   6.113 -41.496  0.00  0.00    +0.000 A 
ATOM     12  C   UNL     1       0.639   6.963 -41.260  0.00  0.00    +0.000 A 
ATOM     13  C   UNL     1      -1.845   6.351 -40.139  0.00  0.00    +0.000 A 
ATOM     14  C   UNL     1       0.408   7.190 -39.900  0.00  0.00    +0.000 A 
ATOM     15  C   UNL     1      -0.828   6.872 -39.351  0.00  0.00    +0.000 A 
ENDBRANCH   5  10
BRANCH   4  17
ATOM     16  N   UNL     1      -1.813   3.085 -43.350  0.00  0.00    +0.000 NA
ATOM     17  C   UNL     1      -1.890   4.258 -43.910  0.00  0.00    +0.000 C 
BRANCH  16  18
ATOM     18  O   UNL     1      -0.508   2.793 -42.938  0.00  0.00    +0.000 OA
BRANCH  18  19
ATOM     19  C   UNL     1      -0.508   2.344 -41.583  0.00  0.00    +0.000 C 
BRANCH  19  22
ATOM     20 CL   UNL     1       4.262   4.449 -41.736  0.00  0.00    +0.000 Cl
ATOM     21 CL   UNL     1       3.965   5.056 -38.553  0.00  0.00    +0.000 Cl
ATOM     22  C   UNL     1       0.616   3.051 -40.869  0.00  0.00    +0.000 A 
ATOM     23  C   UNL     1       1.795   3.413 -41.537  0.00  0.00    +0.000 A 
ATOM     24  C   UNL     1       0.495   3.338 -39.502  0.00  0.00    +0.000 A 
ATOM     25  C   UNL     1       2.839   4.040 -40.844  0.00  0.00    +0.000 A 
ATOM     26  C   UNL     1       1.534   3.965 -38.811  0.00  0.00    +0.000 A 
ATOM     27  C   UNL     1       2.710   4.310 -39.477  0.00  0.00    +0.000 A 
ENDBRANCH  19  22
ENDBRANCH  18  19
ENDBRANCH  16  18
ENDBRANCH   4  17
TORSDOF 5
ENDMDL
