MODEL 1
REMARK VINA RESULT:      -6.1      0.000      0.000
REMARK  Name = 155269222
REMARK  5 active torsions:
REMARK  status: ('A' for Active; 'I' for Inactive)
REMARK    1  A    between atoms: O_5  and  N_8
REMARK    2  A    between atoms: O_5  and  C_21
REMARK    3  A    between atoms: C_9  and  C_14
REMARK    4  A    between atoms: C_10  and  C_12
REMARK    5  A    between atoms: C_20  and  C_21
REMARK                            x       y       z     vdW  Elec       q    Type
REMARK                         _______ _______ _______ _____ _____    ______ ____
ROOT
ATOM      1  S   UNL     1      -5.187 -15.937  14.265  0.00  0.00    +0.000 S 
ATOM      2  N   UNL     1      -3.471 -14.061  13.832  0.00  0.00    +0.000 N 
ATOM      3  N   UNL     1      -5.498 -13.387  13.163  0.00  0.00    +0.000 NA
ATOM      4  C   UNL     1      -3.279 -12.774  13.373  0.00  0.00    +0.000 A 
ATOM      5  C   UNL     1      -4.558 -12.397  12.939  0.00  0.00    +0.000 A 
ATOM      6  C   UNL     1      -4.796 -14.352  13.676  0.00  0.00    +0.000 A 
ATOM      7  C   UNL     1      -2.739 -15.067  14.432  0.00  0.00    +0.000 A 
ATOM      8  C   UNL     1      -3.492 -16.145  14.713  0.00  0.00    +0.000 A 
ENDROOT
BRANCH   5  10
ATOM      9 CL   UNL     1      -3.834  -8.929   9.186  0.00  0.00    +0.000 Cl
ATOM     10  C   UNL     1      -4.949 -11.124  12.348  0.00  0.00    +0.000 A 
ATOM     11  C   UNL     1      -4.301 -10.687  11.184  0.00  0.00    +0.000 A 
ATOM     12  C   UNL     1      -5.919 -10.300  12.937  0.00  0.00    +0.000 A 
ATOM     13  C   UNL     1      -4.640  -9.459  10.611  0.00  0.00    +0.000 A 
ATOM     14  C   UNL     1      -6.261  -9.077  12.352  0.00  0.00    +0.000 A 
ATOM     15  C   UNL     1      -5.623  -8.659  11.186  0.00  0.00    +0.000 A 
ENDBRANCH   5  10
BRANCH   4  17
ATOM     16  N   UNL     1      -1.880 -10.852  14.093  0.00  0.00    +0.000 NA
ATOM     17  C   UNL     1      -2.094 -11.964  13.454  0.00  0.00    +0.000 C 
BRANCH  16  18
ATOM     18  O   UNL     1      -2.952 -10.448  14.894  0.00  0.00    +0.000 OA
BRANCH  18  19
ATOM     19  C   UNL     1      -2.691 -10.826  16.251  0.00  0.00    +0.000 C 
BRANCH  19  22
ATOM     20 CL   UNL     1      -7.629  -9.258  16.673  0.00  0.00    +0.000 Cl
ATOM     21 CL   UNL     1      -7.813 -10.939  19.451  0.00  0.00    +0.000 Cl
ATOM     22  C   UNL     1      -3.985 -10.868  17.023  0.00  0.00    +0.000 A 
ATOM     23  C   UNL     1      -5.103 -10.153  16.569  0.00  0.00    +0.000 A 
ATOM     24  C   UNL     1      -4.072 -11.583  18.224  0.00  0.00    +0.000 A 
ATOM     25  C   UNL     1      -6.297 -10.162  17.298  0.00  0.00    +0.000 A 
ATOM     26  C   UNL     1      -5.262 -11.595  18.954  0.00  0.00    +0.000 A 
ATOM     27  C   UNL     1      -6.376 -10.885  18.493  0.00  0.00    +0.000 A 
ENDBRANCH  19  22
ENDBRANCH  18  19
ENDBRANCH  16  18
ENDBRANCH   4  17
TORSDOF 5
ENDMDL
MODEL 2
REMARK VINA RESULT:      -5.8      2.048      2.916
REMARK  Name = 155269222
REMARK  5 active torsions:
REMARK  status: ('A' for Active; 'I' for Inactive)
REMARK    1  A    between atoms: O_5  and  N_8
REMARK    2  A    between atoms: O_5  and  C_21
REMARK    3  A    between atoms: C_9  and  C_14
REMARK    4  A    between atoms: C_10  and  C_12
REMARK    5  A    between atoms: C_20  and  C_21
REMARK                            x       y       z     vdW  Elec       q    Type
REMARK                         _______ _______ _______ _____ _____    ______ ____
ROOT
ATOM      1  S   UNL     1      -9.126 -12.178  14.531  0.00  0.00    +0.000 S 
ATOM      2  N   UNL     1      -6.613 -12.510  14.051  0.00  0.00    +0.000 N 
ATOM      3  N   UNL     1      -7.479 -11.096  12.547  0.00  0.00    +0.000 NA
ATOM      4  C   UNL     1      -5.548 -12.152  13.252  0.00  0.00    +0.000 A 
ATOM      5  C   UNL     1      -6.131 -11.292  12.310  0.00  0.00    +0.000 A 
ATOM      6  C   UNL     1      -7.713 -11.853  13.577  0.00  0.00    +0.000 A 
ATOM      7  C   UNL     1      -6.853 -13.268  15.181  0.00  0.00    +0.000 A 
ATOM      8  C   UNL     1      -8.141 -13.218  15.563  0.00  0.00    +0.000 A 
ENDROOT
BRANCH   5  10
ATOM      9 CL   UNL     1      -4.577 -11.462   7.391  0.00  0.00    +0.000 Cl
ATOM     10  C   UNL     1      -5.467 -10.613  11.205  0.00  0.00    +0.000 A 
ATOM     11  C   UNL     1      -5.360 -11.267   9.970  0.00  0.00    +0.000 A 
ATOM     12  C   UNL     1      -4.885  -9.345  11.356  0.00  0.00    +0.000 A 
ATOM     13  C   UNL     1      -4.707 -10.647   8.902  0.00  0.00    +0.000 A 
ATOM     14  C   UNL     1      -4.242  -8.726  10.280  0.00  0.00    +0.000 A 
ATOM     15  C   UNL     1      -4.157  -9.378   9.051  0.00  0.00    +0.000 A 
ENDBRANCH   5  10
BRANCH   4  17
ATOM     16  N   UNL     1      -3.197 -11.761  13.954  0.00  0.00    +0.000 NA
ATOM     17  C   UNL     1      -4.155 -12.464  13.426  0.00  0.00    +0.000 C 
BRANCH  16  18
ATOM     18  O   UNL     1      -3.629 -10.556  14.517  0.00  0.00    +0.000 OA
BRANCH  18  19
ATOM     19  C   UNL     1      -3.514 -10.638  15.943  0.00  0.00    +0.000 C 
BRANCH  19  22
ATOM     20 CL   UNL     1      -6.809 -11.959  19.740  0.00  0.00    +0.000 Cl
ATOM     21 CL   UNL     1      -9.022 -10.025  18.347  0.00  0.00    +0.000 Cl
ATOM     22  C   UNL     1      -4.874 -10.473  16.571  0.00  0.00    +0.000 A 
ATOM     23  C   UNL     1      -5.206 -11.180  17.736  0.00  0.00    +0.000 A 
ATOM     24  C   UNL     1      -5.837  -9.649  15.975  0.00  0.00    +0.000 A 
ATOM     25  C   UNL     1      -6.478 -11.057  18.305  0.00  0.00    +0.000 A 
ATOM     26  C   UNL     1      -7.106  -9.522  16.540  0.00  0.00    +0.000 A 
ATOM     27  C   UNL     1      -7.430 -10.225  17.706  0.00  0.00    +0.000 A 
ENDBRANCH  19  22
ENDBRANCH  18  19
ENDBRANCH  16  18
ENDBRANCH   4  17
TORSDOF 5
ENDMDL
MODEL 3
REMARK VINA RESULT:      -5.7     26.028     27.642
REMARK  Name = 155269222
REMARK  5 active torsions:
REMARK  status: ('A' for Active; 'I' for Inactive)
REMARK    1  A    between atoms: O_5  and  N_8
REMARK    2  A    between atoms: O_5  and  C_21
REMARK    3  A    between atoms: C_9  and  C_14
REMARK    4  A    between atoms: C_10  and  C_12
REMARK    5  A    between atoms: C_20  and  C_21
REMARK                            x       y       z     vdW  Elec       q    Type
REMARK                         _______ _______ _______ _____ _____    ______ ____
ROOT
ATOM      1  S   UNL     1      -9.441  -9.551  38.393  0.00  0.00    +0.000 S 
ATOM      2  N   UNL     1      -8.480  -8.119  40.312  0.00  0.00    +0.000 N 
ATOM      3  N   UNL     1      -9.724  -6.829  38.970  0.00  0.00    +0.000 NA
ATOM      4  C   UNL     1      -8.432  -6.866  40.886  0.00  0.00    +0.000 A 
ATOM      5  C   UNL     1      -9.195  -6.083  40.008  0.00  0.00    +0.000 A 
ATOM      6  C   UNL     1      -9.255  -8.020  39.191  0.00  0.00    +0.000 A 
ATOM      7  C   UNL     1      -8.031  -9.399  40.576  0.00  0.00    +0.000 A 
ATOM      8  C   UNL     1      -8.435 -10.281  39.646  0.00  0.00    +0.000 A 
ENDROOT
BRANCH   5  10
ATOM      9 CL   UNL     1     -12.569  -2.404  41.316  0.00  0.00    +0.000 Cl
ATOM     10  C   UNL     1      -9.482  -4.659  40.117  0.00  0.00    +0.000 A 
ATOM     11  C   UNL     1     -10.727  -4.252  40.616  0.00  0.00    +0.000 A 
ATOM     12  C   UNL     1      -8.568  -3.684  39.690  0.00  0.00    +0.000 A 
ATOM     13  C   UNL     1     -11.035  -2.893  40.708  0.00  0.00    +0.000 A 
ATOM     14  C   UNL     1      -8.879  -2.325  39.795  0.00  0.00    +0.000 A 
ATOM     15  C   UNL     1     -10.113  -1.930  40.308  0.00  0.00    +0.000 A 
ENDBRANCH   5  10
BRANCH   4  17
ATOM     16  N   UNL     1      -6.700  -5.975  42.427  0.00  0.00    +0.000 NA
ATOM     17  C   UNL     1      -7.863  -6.483  42.150  0.00  0.00    +0.000 C 
BRANCH  16  18
ATOM     18  O   UNL     1      -5.933  -5.675  41.297  0.00  0.00    +0.000 OA
BRANCH  18  19
ATOM     19  C   UNL     1      -4.718  -6.433  41.341  0.00  0.00    +0.000 C 
BRANCH  19  22
ATOM     20 CL   UNL     1      -2.326  -2.922  44.336  0.00  0.00    +0.000 Cl
ATOM     21 CL   UNL     1      -0.067  -2.637  42.013  0.00  0.00    +0.000 Cl
ATOM     22  C   UNL     1      -3.548  -5.503  41.536  0.00  0.00    +0.000 A 
ATOM     23  C   UNL     1      -3.447  -4.729  42.702  0.00  0.00    +0.000 A 
ATOM     24  C   UNL     1      -2.574  -5.367  40.539  0.00  0.00    +0.000 A 
ATOM     25  C   UNL     1      -2.381  -3.839  42.874  0.00  0.00    +0.000 A 
ATOM     26  C   UNL     1      -1.509  -4.482  40.708  0.00  0.00    +0.000 A 
ATOM     27  C   UNL     1      -1.409  -3.716  41.875  0.00  0.00    +0.000 A 
ENDBRANCH  19  22
ENDBRANCH  18  19
ENDBRANCH  16  18
ENDBRANCH   4  17
TORSDOF 5
ENDMDL
MODEL 4
REMARK VINA RESULT:      -5.7      2.078      2.987
REMARK  Name = 155269222
REMARK  5 active torsions:
REMARK  status: ('A' for Active; 'I' for Inactive)
REMARK    1  A    between atoms: O_5  and  N_8
REMARK    2  A    between atoms: O_5  and  C_21
REMARK    3  A    between atoms: C_9  and  C_14
REMARK    4  A    between atoms: C_10  and  C_12
REMARK    5  A    between atoms: C_20  and  C_21
REMARK                            x       y       z     vdW  Elec       q    Type
REMARK                         _______ _______ _______ _____ _____    ______ ____
ROOT
ATOM      1  S   UNL     1      -6.450 -15.147  14.517  0.00  0.00    +0.000 S 
ATOM      2  N   UNL     1      -4.744 -13.365  15.271  0.00  0.00    +0.000 N 
ATOM      3  N   UNL     1      -5.160 -13.121  13.085  0.00  0.00    +0.000 NA
ATOM      4  C   UNL     1      -3.981 -12.282  14.888  0.00  0.00    +0.000 A 
ATOM      5  C   UNL     1      -4.245 -12.177  13.514  0.00  0.00    +0.000 A 
ATOM      6  C   UNL     1      -5.406 -13.806  14.161  0.00  0.00    +0.000 A 
ATOM      7  C   UNL     1      -5.053 -14.058  16.426  0.00  0.00    +0.000 A 
ATOM      8  C   UNL     1      -5.932 -15.051  16.202  0.00  0.00    +0.000 A 
ENDROOT
BRANCH   5  10
ATOM      9 CL   UNL     1      -5.167  -8.470  10.044  0.00  0.00    +0.000 Cl
ATOM     10  C   UNL     1      -3.697 -11.200  12.583  0.00  0.00    +0.000 A 
ATOM     11  C   UNL     1      -4.577 -10.387  11.854  0.00  0.00    +0.000 A 
ATOM     12  C   UNL     1      -2.318 -11.084  12.356  0.00  0.00    +0.000 A 
ATOM     13  C   UNL     1      -4.078  -9.459  10.938  0.00  0.00    +0.000 A 
ATOM     14  C   UNL     1      -1.824 -10.145  11.444  0.00  0.00    +0.000 A 
ATOM     15  C   UNL     1      -2.707  -9.330  10.737  0.00  0.00    +0.000 A 
ENDBRANCH   5  10
BRANCH   4  17
ATOM     16  N   UNL     1      -3.604 -10.373  16.432  0.00  0.00    +0.000 NA
ATOM     17  C   UNL     1      -3.218 -11.387  15.716  0.00  0.00    +0.000 C 
BRANCH  16  18
ATOM     18  O   UNL     1      -4.991 -10.200  16.462  0.00  0.00    +0.000 OA
BRANCH  18  19
ATOM     19  C   UNL     1      -5.477 -10.539  17.766  0.00  0.00    +0.000 C 
BRANCH  19  22
ATOM     20 CL   UNL     1     -10.050 -11.357  20.099  0.00  0.00    +0.000 Cl
ATOM     21 CL   UNL     1     -11.365  -9.213  18.037  0.00  0.00    +0.000 Cl
ATOM     22  C   UNL     1      -6.942 -10.197  17.865  0.00  0.00    +0.000 A 
ATOM     23  C   UNL     1      -7.752 -10.828  18.820  0.00  0.00    +0.000 A 
ATOM     24  C   UNL     1      -7.520  -9.281  16.977  0.00  0.00    +0.000 A 
ATOM     25  C   UNL     1      -9.120 -10.540  18.896  0.00  0.00    +0.000 A 
ATOM     26  C   UNL     1      -8.882  -8.990  17.050  0.00  0.00    +0.000 A 
ATOM     27  C   UNL     1      -9.685  -9.618  18.009  0.00  0.00    +0.000 A 
ENDBRANCH  19  22
ENDBRANCH  18  19
ENDBRANCH  16  18
ENDBRANCH   4  17
TORSDOF 5
ENDMDL
MODEL 5
REMARK VINA RESULT:      -5.7     29.051     30.791
REMARK  Name = 155269222
REMARK  5 active torsions:
REMARK  status: ('A' for Active; 'I' for Inactive)
REMARK    1  A    between atoms: O_5  and  N_8
REMARK    2  A    between atoms: O_5  and  C_21
REMARK    3  A    between atoms: C_9  and  C_14
REMARK    4  A    between atoms: C_10  and  C_12
REMARK    5  A    between atoms: C_20  and  C_21
REMARK                            x       y       z     vdW  Elec       q    Type
REMARK                         _______ _______ _______ _____ _____    ______ ____
ROOT
ATOM      1  S   UNL     1       1.780  21.113  22.664  0.00  0.00    +0.000 S 
ATOM      2  N   UNL     1       2.043  18.738  23.636  0.00  0.00    +0.000 N 
ATOM      3  N   UNL     1       3.770  19.187  22.285  0.00  0.00    +0.000 NA
ATOM      4  C   UNL     1       2.835  17.611  23.694  0.00  0.00    +0.000 A 
ATOM      5  C   UNL     1       3.887  17.916  22.818  0.00  0.00    +0.000 A 
ATOM      6  C   UNL     1       2.654  19.619  22.789  0.00  0.00    +0.000 A 
ATOM      7  C   UNL     1       0.887  19.224  24.217  0.00  0.00    +0.000 A 
ATOM      8  C   UNL     1       0.591  20.466  23.797  0.00  0.00    +0.000 A 
ENDROOT
BRANCH   5  10
ATOM      9 CL   UNL     1       6.140  14.806  19.370  0.00  0.00    +0.000 Cl
ATOM     10  C   UNL     1       5.027  17.073  22.482  0.00  0.00    +0.000 A 
ATOM     11  C   UNL     1       5.052  16.429  21.236  0.00  0.00    +0.000 A 
ATOM     12  C   UNL     1       6.075  16.847  23.386  0.00  0.00    +0.000 A 
ATOM     13  C   UNL     1       6.122  15.597  20.899  0.00  0.00    +0.000 A 
ATOM     14  C   UNL     1       7.148  16.020  23.038  0.00  0.00    +0.000 A 
ATOM     15  C   UNL     1       7.172  15.398  21.791  0.00  0.00    +0.000 A 
ENDBRANCH   5  10
BRANCH   4  17
ATOM     16  N   UNL     1       2.377  15.237  24.265  0.00  0.00    +0.000 NA
ATOM     17  C   UNL     1       2.697  16.464  24.551  0.00  0.00    +0.000 C 
BRANCH  16  18
ATOM     18  O   UNL     1       2.241  14.996  22.894  0.00  0.00    +0.000 OA
BRANCH  18  19
ATOM     19  C   UNL     1       0.862  14.745  22.598  0.00  0.00    +0.000 C 
BRANCH  19  22
ATOM     20 CL   UNL     1      -2.796  15.914  19.095  0.00  0.00    +0.000 Cl
ATOM     21 CL   UNL     1      -0.421  16.909  17.106  0.00  0.00    +0.000 Cl
ATOM     22  C   UNL     1       0.524  15.309  21.242  0.00  0.00    +0.000 A 
ATOM     23  C   UNL     1      -0.811  15.373  20.816  0.00  0.00    +0.000 A 
ATOM     24  C   UNL     1       1.538  15.733  20.376  0.00  0.00    +0.000 A 
ATOM     25  C   UNL     1      -1.129  15.866  19.546  0.00  0.00    +0.000 A 
ATOM     26  C   UNL     1       1.225  16.227  19.109  0.00  0.00    +0.000 A 
ATOM     27  C   UNL     1      -0.108  16.294  18.690  0.00  0.00    +0.000 A 
ENDBRANCH  19  22
ENDBRANCH  18  19
ENDBRANCH  16  18
ENDBRANCH   4  17
TORSDOF 5
ENDMDL
MODEL 6
REMARK VINA RESULT:      -5.7     25.155     27.558
REMARK  Name = 155269222
REMARK  5 active torsions:
REMARK  status: ('A' for Active; 'I' for Inactive)
REMARK    1  A    between atoms: O_5  and  N_8
REMARK    2  A    between atoms: O_5  and  C_21
REMARK    3  A    between atoms: C_9  and  C_14
REMARK    4  A    between atoms: C_10  and  C_12
REMARK    5  A    between atoms: C_20  and  C_21
REMARK                            x       y       z     vdW  Elec       q    Type
REMARK                         _______ _______ _______ _____ _____    ______ ____
ROOT
ATOM      1  S   UNL     1      22.134  -1.577  26.768  0.00  0.00    +0.000 S 
ATOM      2  N   UNL     1      19.642  -1.647  26.108  0.00  0.00    +0.000 N 
ATOM      3  N   UNL     1      20.098  -3.359  27.476  0.00  0.00    +0.000 NA
ATOM      4  C   UNL     1      18.436  -2.298  26.269  0.00  0.00    +0.000 A 
ATOM      5  C   UNL     1      18.766  -3.375  27.106  0.00  0.00    +0.000 A 
ATOM      6  C   UNL     1      20.570  -2.327  26.844  0.00  0.00    +0.000 A 
ATOM      7  C   UNL     1      20.133  -0.516  25.484  0.00  0.00    +0.000 A 
ATOM      8  C   UNL     1      21.446  -0.339  25.715  0.00  0.00    +0.000 A 
ENDROOT
BRANCH   5  10
ATOM      9 CL   UNL     1      15.917  -7.549  26.059  0.00  0.00    +0.000 Cl
ATOM     10  C   UNL     1      17.871  -4.410  27.605  0.00  0.00    +0.000 A 
ATOM     11  C   UNL     1      17.387  -5.379  26.714  0.00  0.00    +0.000 A 
ATOM     12  C   UNL     1      17.438  -4.436  28.939  0.00  0.00    +0.000 A 
ATOM     13  C   UNL     1      16.509  -6.367  27.163  0.00  0.00    +0.000 A 
ATOM     14  C   UNL     1      16.566  -5.435  29.384  0.00  0.00    +0.000 A 
ATOM     15  C   UNL     1      16.105  -6.404  28.494  0.00  0.00    +0.000 A 
ENDBRANCH   5  10
BRANCH   4  17
ATOM     16  N   UNL     1      16.686  -1.709  24.608  0.00  0.00    +0.000 NA
ATOM     17  C   UNL     1      17.133  -1.893  25.815  0.00  0.00    +0.000 C 
BRANCH  16  18
ATOM     18  O   UNL     1      17.602  -2.053  23.609  0.00  0.00    +0.000 OA
BRANCH  18  19
ATOM     19  C   UNL     1      17.106  -3.188  22.890  0.00  0.00    +0.000 C 
BRANCH  19  22
ATOM     20 CL   UNL     1      21.723  -5.078  24.347  0.00  0.00    +0.000 Cl
ATOM     21 CL   UNL     1      20.486  -8.068  24.010  0.00  0.00    +0.000 Cl
ATOM     22  C   UNL     1      17.953  -4.395  23.201  0.00  0.00    +0.000 A 
ATOM     23  C   UNL     1      19.288  -4.237  23.600  0.00  0.00    +0.000 A 
ATOM     24  C   UNL     1      17.432  -5.686  23.052  0.00  0.00    +0.000 A 
ATOM     25  C   UNL     1      20.090  -5.355  23.859  0.00  0.00    +0.000 A 
ATOM     26  C   UNL     1      18.228  -6.803  23.310  0.00  0.00    +0.000 A 
ATOM     27  C   UNL     1      19.558  -6.641  23.714  0.00  0.00    +0.000 A 
ENDBRANCH  19  22
ENDBRANCH  18  19
ENDBRANCH  16  18
ENDBRANCH   4  17
TORSDOF 5
ENDMDL
MODEL 7
REMARK VINA RESULT:      -5.6     22.043     23.931
REMARK  Name = 155269222
REMARK  5 active torsions:
REMARK  status: ('A' for Active; 'I' for Inactive)
REMARK    1  A    between atoms: O_5  and  N_8
REMARK    2  A    between atoms: O_5  and  C_21
REMARK    3  A    between atoms: C_9  and  C_14
REMARK    4  A    between atoms: C_10  and  C_12
REMARK    5  A    between atoms: C_20  and  C_21
REMARK                            x       y       z     vdW  Elec       q    Type
REMARK                         _______ _______ _______ _____ _____    ______ ____
ROOT
ATOM      1  S   UNL     1     -14.857  12.121  18.175  0.00  0.00    +0.000 S 
ATOM      2  N   UNL     1     -13.223  10.879  16.612  0.00  0.00    +0.000 N 
ATOM      3  N   UNL     1     -12.331  12.841  17.217  0.00  0.00    +0.000 NA
ATOM      4  C   UNL     1     -11.988  10.906  15.998  0.00  0.00    +0.000 A 
ATOM      5  C   UNL     1     -11.473  12.155  16.375  0.00  0.00    +0.000 A 
ATOM      6  C   UNL     1     -13.355  12.047  17.307  0.00  0.00    +0.000 A 
ATOM      7  C   UNL     1     -14.289  10.012  16.759  0.00  0.00    +0.000 A 
ATOM      8  C   UNL     1     -15.254  10.521  17.544  0.00  0.00    +0.000 A 
ENDROOT
BRANCH   5  10
ATOM      9 CL   UNL     1      -8.661  14.627  12.823  0.00  0.00    +0.000 Cl
ATOM     10  C   UNL     1     -10.185  12.726  16.005  0.00  0.00    +0.000 A 
ATOM     11  C   UNL     1     -10.049  13.343  14.753  0.00  0.00    +0.000 A 
ATOM     12  C   UNL     1      -9.064  12.632  16.843  0.00  0.00    +0.000 A 
ATOM     13  C   UNL     1      -8.818  13.877  14.365  0.00  0.00    +0.000 A 
ATOM     14  C   UNL     1      -7.837  13.178  16.452  0.00  0.00    +0.000 A 
ATOM     15  C   UNL     1      -7.717  13.804  15.212  0.00  0.00    +0.000 A 
ENDBRANCH   5  10
BRANCH   4  17
ATOM     16  N   UNL     1     -10.402   9.026  15.654  0.00  0.00    +0.000 NA
ATOM     17  C   UNL     1     -11.327   9.856  15.272  0.00  0.00    +0.000 C 
BRANCH  16  18
ATOM     18  O   UNL     1     -10.081   9.127  17.011  0.00  0.00    +0.000 OA
BRANCH  18  19
ATOM     19  C   UNL     1     -10.461   7.915  17.673  0.00  0.00    +0.000 C 
BRANCH  19  22
ATOM     20 CL   UNL     1     -12.298  11.553  20.899  0.00  0.00    +0.000 Cl
ATOM     21 CL   UNL     1     -13.525   9.160  22.729  0.00  0.00    +0.000 Cl
ATOM     22  C   UNL     1     -11.248   8.242  18.916  0.00  0.00    +0.000 A 
ATOM     23  C   UNL     1     -11.423   9.577  19.311  0.00  0.00    +0.000 A 
ATOM     24  C   UNL     1     -11.774   7.220  19.715  0.00  0.00    +0.000 A 
ATOM     25  C   UNL     1     -12.124   9.887  20.482  0.00  0.00    +0.000 A 
ATOM     26  C   UNL     1     -12.475   7.524  20.882  0.00  0.00    +0.000 A 
ATOM     27  C   UNL     1     -12.652   8.857  21.269  0.00  0.00    +0.000 A 
ENDBRANCH  19  22
ENDBRANCH  18  19
ENDBRANCH  16  18
ENDBRANCH   4  17
TORSDOF 5
ENDMDL
MODEL 8
REMARK VINA RESULT:      -5.5     29.307     30.759
REMARK  Name = 155269222
REMARK  5 active torsions:
REMARK  status: ('A' for Active; 'I' for Inactive)
REMARK    1  A    between atoms: O_5  and  N_8
REMARK    2  A    between atoms: O_5  and  C_21
REMARK    3  A    between atoms: C_9  and  C_14
REMARK    4  A    between atoms: C_10  and  C_12
REMARK    5  A    between atoms: C_20  and  C_21
REMARK                            x       y       z     vdW  Elec       q    Type
REMARK                         _______ _______ _______ _____ _____    ______ ____
ROOT
ATOM      1  S   UNL     1       7.350  19.142  16.348  0.00  0.00    +0.000 S 
ATOM      2  N   UNL     1       7.082  17.127  17.936  0.00  0.00    +0.000 N 
ATOM      3  N   UNL     1       5.096  18.118  17.648  0.00  0.00    +0.000 NA
ATOM      4  C   UNL     1       6.201  16.370  18.680  0.00  0.00    +0.000 A 
ATOM      5  C   UNL     1       4.979  17.034  18.499  0.00  0.00    +0.000 A 
ATOM      6  C   UNL     1       6.363  18.135  17.361  0.00  0.00    +0.000 A 
ATOM      7  C   UNL     1       8.417  17.113  17.581  0.00  0.00    +0.000 A 
ATOM      8  C   UNL     1       8.734  18.125  16.756  0.00  0.00    +0.000 A 
ENDROOT
BRANCH   5  10
ATOM      9 CL   UNL     1       1.220  18.175  21.846  0.00  0.00    +0.000 Cl
ATOM     10  C   UNL     1       3.687  16.674  19.067  0.00  0.00    +0.000 A 
ATOM     11  C   UNL     1       3.124  17.496  20.054  0.00  0.00    +0.000 A 
ATOM     12  C   UNL     1       3.013  15.502  18.693  0.00  0.00    +0.000 A 
ATOM     13  C   UNL     1       1.898  17.161  20.631  0.00  0.00    +0.000 A 
ATOM     14  C   UNL     1       1.780  15.177  19.268  0.00  0.00    +0.000 A 
ATOM     15  C   UNL     1       1.222  16.011  20.236  0.00  0.00    +0.000 A 
ENDBRANCH   5  10
BRANCH   4  17
ATOM     16  N   UNL     1       6.887  14.893  20.556  0.00  0.00    +0.000 NA
ATOM     17  C   UNL     1       6.443  15.124  19.357  0.00  0.00    +0.000 C 
BRANCH  16  18
ATOM     18  O   UNL     1       7.064  16.049  21.323  0.00  0.00    +0.000 OA
BRANCH  18  19
ATOM     19  C   UNL     1       7.083  15.692  22.710  0.00  0.00    +0.000 C 
BRANCH  19  22
ATOM     20 CL   UNL     1       1.992  15.335  23.697  0.00  0.00    +0.000 Cl
ATOM     21 CL   UNL     1       2.235  18.103  25.389  0.00  0.00    +0.000 Cl
ATOM     22  C   UNL     1       5.870  16.266  23.397  0.00  0.00    +0.000 A 
ATOM     23  C   UNL     1       4.625  15.631  23.280  0.00  0.00    +0.000 A 
ATOM     24  C   UNL     1       5.962  17.461  24.121  0.00  0.00    +0.000 A 
ATOM     25  C   UNL     1       3.488  16.176  23.887  0.00  0.00    +0.000 A 
ATOM     26  C   UNL     1       4.832  18.007  24.730  0.00  0.00    +0.000 A 
ATOM     27  C   UNL     1       3.593  17.367  24.615  0.00  0.00    +0.000 A 
ENDBRANCH  19  22
ENDBRANCH  18  19
ENDBRANCH  16  18
ENDBRANCH   4  17
TORSDOF 5
ENDMDL
MODEL 9
REMARK VINA RESULT:      -5.5      3.286      4.670
REMARK  Name = 155269222
REMARK  5 active torsions:
REMARK  status: ('A' for Active; 'I' for Inactive)
REMARK    1  A    between atoms: O_5  and  N_8
REMARK    2  A    between atoms: O_5  and  C_21
REMARK    3  A    between atoms: C_9  and  C_14
REMARK    4  A    between atoms: C_10  and  C_12
REMARK    5  A    between atoms: C_20  and  C_21
REMARK                            x       y       z     vdW  Elec       q    Type
REMARK                         _______ _______ _______ _____ _____    ______ ____
ROOT
ATOM      1  S   UNL     1      -3.414 -10.764  11.250  0.00  0.00    +0.000 S 
ATOM      2  N   UNL     1      -3.375 -10.740  13.829  0.00  0.00    +0.000 N 
ATOM      3  N   UNL     1      -5.446 -10.288  13.110  0.00  0.00    +0.000 NA
ATOM      4  C   UNL     1      -4.120 -10.587  14.979  0.00  0.00    +0.000 A 
ATOM      5  C   UNL     1      -5.399 -10.279  14.492  0.00  0.00    +0.000 A 
ATOM      6  C   UNL     1      -4.219 -10.549  12.772  0.00  0.00    +0.000 A 
ATOM      7  C   UNL     1      -2.085 -11.075  13.466  0.00  0.00    +0.000 A 
ATOM      8  C   UNL     1      -1.926 -11.116  12.132  0.00  0.00    +0.000 A 
ENDROOT
BRANCH   5  10
ATOM      9 CL   UNL     1     -10.555 -10.129  14.650  0.00  0.00    +0.000 Cl
ATOM     10  C   UNL     1      -6.598 -10.006  15.272  0.00  0.00    +0.000 A 
ATOM     11  C   UNL     1      -7.854 -10.187  14.676  0.00  0.00    +0.000 A 
ATOM     12  C   UNL     1      -6.533  -9.519  16.587  0.00  0.00    +0.000 A 
ATOM     13  C   UNL     1      -9.018  -9.910  15.395  0.00  0.00    +0.000 A 
ATOM     14  C   UNL     1      -7.703  -9.254  17.304  0.00  0.00    +0.000 A 
ATOM     15  C   UNL     1      -8.947  -9.453  16.707  0.00  0.00    +0.000 A 
ENDBRANCH   5  10
BRANCH   4  17
ATOM     16  N   UNL     1      -4.022 -11.807  17.141  0.00  0.00    +0.000 NA
ATOM     17  C   UNL     1      -3.723 -10.827  16.340  0.00  0.00    +0.000 C 
BRANCH  16  18
ATOM     18  O   UNL     1      -4.771 -12.820  16.534  0.00  0.00    +0.000 OA
BRANCH  18  19
ATOM     19  C   UNL     1      -5.434 -13.583  17.549  0.00  0.00    +0.000 C 
BRANCH  19  22
ATOM     20 CL   UNL     1      -9.655 -13.717  14.518  0.00  0.00    +0.000 Cl
ATOM     21 CL   UNL     1     -11.397 -12.728  17.082  0.00  0.00    +0.000 Cl
ATOM     22  C   UNL     1      -6.926 -13.402  17.425  0.00  0.00    +0.000 A 
ATOM     23  C   UNL     1      -7.564 -13.622  16.195  0.00  0.00    +0.000 A 
ATOM     24  C   UNL     1      -7.683 -12.969  18.520  0.00  0.00    +0.000 A 
ATOM     25  C   UNL     1      -8.943 -13.424  16.064  0.00  0.00    +0.000 A 
ATOM     26  C   UNL     1      -9.059 -12.772  18.394  0.00  0.00    +0.000 A 
ATOM     27  C   UNL     1      -9.692 -12.999  17.166  0.00  0.00    +0.000 A 
ENDBRANCH  19  22
ENDBRANCH  18  19
ENDBRANCH  16  18
ENDBRANCH   4  17
TORSDOF 5
ENDMDL
MODEL 10
REMARK VINA RESULT:      -5.4     28.752     30.533
REMARK  Name = 155269222
REMARK  5 active torsions:
REMARK  status: ('A' for Active; 'I' for Inactive)
REMARK    1  A    between atoms: O_5  and  N_8
REMARK    2  A    between atoms: O_5  and  C_21
REMARK    3  A    between atoms: C_9  and  C_14
REMARK    4  A    between atoms: C_10  and  C_12
REMARK    5  A    between atoms: C_20  and  C_21
REMARK                            x       y       z     vdW  Elec       q    Type
REMARK                         _______ _______ _______ _____ _____    ______ ____
ROOT
ATOM      1  S   UNL     1      16.148  12.841  23.852  0.00  0.00    +0.000 S 
ATOM      2  N   UNL     1      13.659  12.362  24.329  0.00  0.00    +0.000 N 
ATOM      3  N   UNL     1      14.347  11.097  22.614  0.00  0.00    +0.000 NA
ATOM      4  C   UNL     1      12.553  11.616  23.978  0.00  0.00    +0.000 A 
ATOM      5  C   UNL     1      13.012  10.860  22.889  0.00  0.00    +0.000 A 
ATOM      6  C   UNL     1      14.672  12.005  23.484  0.00  0.00    +0.000 A 
ATOM      7  C   UNL     1      14.024  13.284  25.290  0.00  0.00    +0.000 A 
ATOM      8  C   UNL     1      15.310  13.660  25.171  0.00  0.00    +0.000 A 
ENDROOT
BRANCH   5  10
ATOM      9 CL   UNL     1      11.892   8.938  18.232  0.00  0.00    +0.000 Cl
ATOM     10  C   UNL     1      12.256   9.890  22.108  0.00  0.00    +0.000 A 
ATOM     11  C   UNL     1      12.419   9.862  20.715  0.00  0.00    +0.000 A 
ATOM     12  C   UNL     1      11.331   9.018  22.702  0.00  0.00    +0.000 A 
ATOM     13  C   UNL     1      11.688   8.959  19.942  0.00  0.00    +0.000 A 
ATOM     14  C   UNL     1      10.611   8.109  21.922  0.00  0.00    +0.000 A 
ATOM     15  C   UNL     1      10.793   8.078  20.540  0.00  0.00    +0.000 A 
ENDBRANCH   5  10
BRANCH   4  17
ATOM     16  N   UNL     1      10.254  12.313  24.608  0.00  0.00    +0.000 NA
ATOM     17  C   UNL     1      11.286  11.524  24.652  0.00  0.00    +0.000 C 
BRANCH  16  18
ATOM     18  O   UNL     1      10.382  13.357  23.686  0.00  0.00    +0.000 OA
BRANCH  18  19
ATOM     19  C   UNL     1      10.260  14.607  24.375  0.00  0.00    +0.000 C 
BRANCH  19  22
ATOM     20 CL   UNL     1       6.735  15.096  20.586  0.00  0.00    +0.000 Cl
ATOM     21 CL   UNL     1       6.378  18.207  21.466  0.00  0.00    +0.000 Cl
ATOM     22  C   UNL     1       9.266  15.485  23.659  0.00  0.00    +0.000 A 
ATOM     23  C   UNL     1       8.519  14.976  22.585  0.00  0.00    +0.000 A 
ATOM     24  C   UNL     1       9.110  16.827  24.024  0.00  0.00    +0.000 A 
ATOM     25  C   UNL     1       7.619  15.795  21.894  0.00  0.00    +0.000 A 
ATOM     26  C   UNL     1       8.213  17.647  23.338  0.00  0.00    +0.000 A 
ATOM     27  C   UNL     1       7.465  17.133  22.273  0.00  0.00    +0.000 A 
ENDBRANCH  19  22
ENDBRANCH  18  19
ENDBRANCH  16  18
ENDBRANCH   4  17
TORSDOF 5
ENDMDL
