MODEL 1
REMARK VINA RESULT:      -5.3      0.000      0.000
REMARK  Name = 155269216
REMARK  6 active torsions:
REMARK  status: ('A' for Active; 'I' for Inactive)
REMARK    1  A    between atoms: O_4  and  N_7
REMARK    2  A    between atoms: O_4  and  C_17
REMARK    3  A    between atoms: C_8  and  C_13
REMARK    4  A    between atoms: C_9  and  C_10
REMARK    5  A    between atoms: C_10  and  C_14
REMARK    6  A    between atoms: C_16  and  C_17
REMARK                            x       y       z     vdW  Elec       q    Type
REMARK                         _______ _______ _______ _____ _____    ______ ____
ROOT
ATOM      1  N   UNL     1      14.538  11.296  19.742  0.00  0.00    +0.000 NA
ATOM      2  C   UNL     1      14.631  10.022  19.988  0.00  0.00    +0.000 C 
ENDROOT
BRANCH   2   6
ATOM      3  S   UNL     1      10.636   7.373  21.575  0.00  0.00    +0.000 S 
ATOM      4  N   UNL     1      12.657   8.782  20.850  0.00  0.00    +0.000 N 
ATOM      5  N   UNL     1      12.243   7.255  19.279  0.00  0.00    +0.000 NA
ATOM      6  C   UNL     1      13.611   9.012  19.889  0.00  0.00    +0.000 A 
ATOM      7  C   UNL     1      13.358   8.012  18.939  0.00  0.00    +0.000 A 
ATOM      8  C   UNL     1      11.877   7.757  20.420  0.00  0.00    +0.000 A 
ATOM      9  C   UNL     1      12.317   9.301  22.083  0.00  0.00    +0.000 A 
ATOM     10  C   UNL     1      11.261   8.661  22.617  0.00  0.00    +0.000 A 
BRANCH   7  11
ATOM     11  C   UNL     1      14.147   7.646  17.721  0.00  0.00    +0.000 C 
ATOM     12  C   UNL     1      13.932   8.598  16.553  0.00  0.00    +0.000 C 
ENDBRANCH   7  11
ENDBRANCH   2   6
BRANCH   1  13
ATOM     13  O   UNL     1      13.224  11.683  19.442  0.00  0.00    +0.000 OA
BRANCH  13  14
ATOM     14  C   UNL     1      13.133  13.107  19.368  0.00  0.00    +0.000 C 
BRANCH  14  17
ATOM     15 CL   UNL     1      10.563  12.319  23.810  0.00  0.00    +0.000 Cl
ATOM     16 CL   UNL     1       8.664  14.847  23.036  0.00  0.00    +0.000 Cl
ATOM     17  C   UNL     1      12.080  13.586  20.333  0.00  0.00    +0.000 A 
ATOM     18  C   UNL     1      11.841  12.879  21.521  0.00  0.00    +0.000 A 
ATOM     19  C   UNL     1      11.272  14.687  20.021  0.00  0.00    +0.000 A 
ATOM     20  C   UNL     1      10.803  13.255  22.378  0.00  0.00    +0.000 A 
ATOM     21  C   UNL     1      10.236  15.067  20.876  0.00  0.00    +0.000 A 
ATOM     22  C   UNL     1       9.992  14.348  22.049  0.00  0.00    +0.000 A 
ENDBRANCH  14  17
ENDBRANCH  13  14
ENDBRANCH   1  13
TORSDOF 5
ENDMDL
MODEL 2
REMARK VINA RESULT:      -5.2      9.285     11.751
REMARK  Name = 155269216
REMARK  6 active torsions:
REMARK  status: ('A' for Active; 'I' for Inactive)
REMARK    1  A    between atoms: O_4  and  N_7
REMARK    2  A    between atoms: O_4  and  C_17
REMARK    3  A    between atoms: C_8  and  C_13
REMARK    4  A    between atoms: C_9  and  C_10
REMARK    5  A    between atoms: C_10  and  C_14
REMARK    6  A    between atoms: C_16  and  C_17
REMARK                            x       y       z     vdW  Elec       q    Type
REMARK                         _______ _______ _______ _____ _____    ______ ____
ROOT
ATOM      1  N   UNL     1       3.309  16.912  23.396  0.00  0.00    +0.000 NA
ATOM      2  C   UNL     1       4.251  17.222  22.554  0.00  0.00    +0.000 C 
ENDROOT
BRANCH   2   6
ATOM      3  S   UNL     1       4.162  15.248  17.906  0.00  0.00    +0.000 S 
ATOM      4  N   UNL     1       4.121  16.305  20.247  0.00  0.00    +0.000 N 
ATOM      5  N   UNL     1       5.969  15.074  20.045  0.00  0.00    +0.000 NA
ATOM      6  C   UNL     1       4.762  16.449  21.453  0.00  0.00    +0.000 A 
ATOM      7  C   UNL     1       5.893  15.630  21.316  0.00  0.00    +0.000 A 
ATOM      8  C   UNL     1       4.892  15.508  19.463  0.00  0.00    +0.000 A 
ATOM      9  C   UNL     1       2.947  16.740  19.667  0.00  0.00    +0.000 A 
ATOM     10  C   UNL     1       2.805  16.265  18.416  0.00  0.00    +0.000 A 
BRANCH   7  11
ATOM     11  C   UNL     1       6.916  15.255  22.342  0.00  0.00    +0.000 C 
ATOM     12  C   UNL     1       8.293  14.987  21.753  0.00  0.00    +0.000 C 
ENDBRANCH   7  11
ENDBRANCH   2   6
BRANCH   1  13
ATOM     13  O   UNL     1       2.845  15.601  23.211  0.00  0.00    +0.000 OA
BRANCH  13  14
ATOM     14  C   UNL     1       1.484  15.496  23.632  0.00  0.00    +0.000 C 
BRANCH  14  17
ATOM     15 CL   UNL     1      -2.064  18.235  21.012  0.00  0.00    +0.000 Cl
ATOM     16 CL   UNL     1      -2.376  15.700  18.995  0.00  0.00    +0.000 Cl
ATOM     17  C   UNL     1       0.584  15.593  22.428  0.00  0.00    +0.000 A 
ATOM     18  C   UNL     1      -0.205  16.736  22.232  0.00  0.00    +0.000 A 
ATOM     19  C   UNL     1       0.459  14.517  21.540  0.00  0.00    +0.000 A 
ATOM     20  C   UNL     1      -1.116  16.799  21.172  0.00  0.00    +0.000 A 
ATOM     21  C   UNL     1      -0.448  14.578  20.481  0.00  0.00    +0.000 A 
ATOM     22  C   UNL     1      -1.243  15.712  20.300  0.00  0.00    +0.000 A 
ENDBRANCH  14  17
ENDBRANCH  13  14
ENDBRANCH   1  13
TORSDOF 5
ENDMDL
MODEL 3
REMARK VINA RESULT:      -5.2     15.807     18.872
REMARK  Name = 155269216
REMARK  6 active torsions:
REMARK  status: ('A' for Active; 'I' for Inactive)
REMARK    1  A    between atoms: O_4  and  N_7
REMARK    2  A    between atoms: O_4  and  C_17
REMARK    3  A    between atoms: C_8  and  C_13
REMARK    4  A    between atoms: C_9  and  C_10
REMARK    5  A    between atoms: C_10  and  C_14
REMARK    6  A    between atoms: C_16  and  C_17
REMARK                            x       y       z     vdW  Elec       q    Type
REMARK                         _______ _______ _______ _____ _____    ______ ____
ROOT
ATOM      1  N   UNL     1      11.061   6.878   3.434  0.00  0.00    +0.000 NA
ATOM      2  C   UNL     1      10.855   7.711   4.412  0.00  0.00    +0.000 C 
ENDROOT
BRANCH   2   6
ATOM      3  S   UNL     1       9.080   6.129   8.867  0.00  0.00    +0.000 S 
ATOM      4  N   UNL     1      10.073   6.887   6.622  0.00  0.00    +0.000 N 
ATOM      5  N   UNL     1       8.040   7.775   6.848  0.00  0.00    +0.000 NA
ATOM      6  C   UNL     1       9.892   7.624   5.478  0.00  0.00    +0.000 A 
ATOM      7  C   UNL     1       8.593   8.132   5.624  0.00  0.00    +0.000 A 
ATOM      8  C   UNL     1       8.962   7.038   7.390  0.00  0.00    +0.000 A 
ATOM      9  C   UNL     1      11.047   6.067   7.156  0.00  0.00    +0.000 A 
ATOM     10  C   UNL     1      10.679   5.571   8.351  0.00  0.00    +0.000 A 
BRANCH   7  11
ATOM     11  C   UNL     1       7.765   8.900   4.642  0.00  0.00    +0.000 C 
ATOM     12  C   UNL     1       8.037  10.397   4.661  0.00  0.00    +0.000 C 
ENDBRANCH   7  11
ENDBRANCH   2   6
BRANCH   1  13
ATOM     13  O   UNL     1      10.124   5.834   3.422  0.00  0.00    +0.000 OA
BRANCH  13  14
ATOM     14  C   UNL     1      10.792   4.571   3.415  0.00  0.00    +0.000 C 
BRANCH  14  17
ATOM     15 CL   UNL     1      10.018   4.740  -1.716  0.00  0.00    +0.000 Cl
ATOM     16 CL   UNL     1      12.843   3.167  -2.086  0.00  0.00    +0.000 Cl
ATOM     17  C   UNL     1      11.335   4.307   2.035  0.00  0.00    +0.000 A 
ATOM     18  C   UNL     1      10.575   4.640   0.905  0.00  0.00    +0.000 A 
ATOM     19  C   UNL     1      12.561   3.650   1.863  0.00  0.00    +0.000 A 
ATOM     20  C   UNL     1      11.024   4.311  -0.378  0.00  0.00    +0.000 A 
ATOM     21  C   UNL     1      13.013   3.323   0.584  0.00  0.00    +0.000 A 
ATOM     22  C   UNL     1      12.243   3.643  -0.537  0.00  0.00    +0.000 A 
ENDBRANCH  14  17
ENDBRANCH  13  14
ENDBRANCH   1  13
TORSDOF 5
ENDMDL
MODEL 4
REMARK VINA RESULT:      -5.1      3.973      6.259
REMARK  Name = 155269216
REMARK  6 active torsions:
REMARK  status: ('A' for Active; 'I' for Inactive)
REMARK    1  A    between atoms: O_4  and  N_7
REMARK    2  A    between atoms: O_4  and  C_17
REMARK    3  A    between atoms: C_8  and  C_13
REMARK    4  A    between atoms: C_9  and  C_10
REMARK    5  A    between atoms: C_10  and  C_14
REMARK    6  A    between atoms: C_16  and  C_17
REMARK                            x       y       z     vdW  Elec       q    Type
REMARK                         _______ _______ _______ _____ _____    ______ ____
ROOT
ATOM      1  N   UNL     1      10.519  14.941  21.090  0.00  0.00    +0.000 NA
ATOM      2  C   UNL     1      11.375  14.175  21.700  0.00  0.00    +0.000 C 
ENDROOT
BRANCH   2   6
ATOM      3  S   UNL     1      11.116   9.257  22.816  0.00  0.00    +0.000 S 
ATOM      4  N   UNL     1      11.290  11.734  22.158  0.00  0.00    +0.000 N 
ATOM      5  N   UNL     1      10.530  11.596  24.249  0.00  0.00    +0.000 NA
ATOM      6  C   UNL     1      11.120  13.040  22.547  0.00  0.00    +0.000 A 
ATOM      7  C   UNL     1      10.599  12.923  23.844  0.00  0.00    +0.000 A 
ATOM      8  C   UNL     1      10.949  10.943  23.208  0.00  0.00    +0.000 A 
ATOM      9  C   UNL     1      11.693  11.060  21.023  0.00  0.00    +0.000 A 
ATOM     10  C   UNL     1      11.655   9.726  21.196  0.00  0.00    +0.000 A 
BRANCH   7  11
ATOM     11  C   UNL     1      10.075  13.994  24.749  0.00  0.00    +0.000 C 
ATOM     12  C   UNL     1      10.865  14.134  26.042  0.00  0.00    +0.000 C 
ENDBRANCH   7  11
ENDBRANCH   2   6
BRANCH   1  13
ATOM     13  O   UNL     1       9.194  14.624  21.422  0.00  0.00    +0.000 OA
BRANCH  13  14
ATOM     14  C   UNL     1       8.295  15.203  20.474  0.00  0.00    +0.000 C 
BRANCH  14  17
ATOM     15 CL   UNL     1       3.266  16.359  19.901  0.00  0.00    +0.000 Cl
ATOM     16 CL   UNL     1       3.008  16.366  23.146  0.00  0.00    +0.000 Cl
ATOM     17  C   UNL     1       6.953  15.406  21.126  0.00  0.00    +0.000 A 
ATOM     18  C   UNL     1       5.828  15.701  20.341  0.00  0.00    +0.000 A 
ATOM     19  C   UNL     1       6.825  15.389  22.521  0.00  0.00    +0.000 A 
ATOM     20  C   UNL     1       4.597  15.987  20.939  0.00  0.00    +0.000 A 
ATOM     21  C   UNL     1       5.597  15.672  23.121  0.00  0.00    +0.000 A 
ATOM     22  C   UNL     1       4.484  15.981  22.334  0.00  0.00    +0.000 A 
ENDBRANCH  14  17
ENDBRANCH  13  14
ENDBRANCH   1  13
TORSDOF 5
ENDMDL
MODEL 5
REMARK VINA RESULT:      -5.1     33.868     35.448
REMARK  Name = 155269216
REMARK  6 active torsions:
REMARK  status: ('A' for Active; 'I' for Inactive)
REMARK    1  A    between atoms: O_4  and  N_7
REMARK    2  A    between atoms: O_4  and  C_17
REMARK    3  A    between atoms: C_8  and  C_13
REMARK    4  A    between atoms: C_9  and  C_10
REMARK    5  A    between atoms: C_10  and  C_14
REMARK    6  A    between atoms: C_16  and  C_17
REMARK                            x       y       z     vdW  Elec       q    Type
REMARK                         _______ _______ _______ _____ _____    ______ ____
ROOT
ATOM      1  N   UNL     1       4.052 -15.797  -2.617  0.00  0.00    +0.000 NA
ATOM      2  C   UNL     1       2.967 -15.842  -3.334  0.00  0.00    +0.000 C 
ENDROOT
BRANCH   2   6
ATOM      3  S   UNL     1       1.386 -11.831  -5.962  0.00  0.00    +0.000 S 
ATOM      4  N   UNL     1       2.268 -13.882  -4.693  0.00  0.00    +0.000 N 
ATOM      5  N   UNL     1       0.357 -13.220  -3.753  0.00  0.00    +0.000 NA
ATOM      6  C   UNL     1       2.065 -14.772  -3.666  0.00  0.00    +0.000 A 
ATOM      7  C   UNL     1       0.886 -14.306  -3.066  0.00  0.00    +0.000 A 
ATOM      8  C   UNL     1       1.221 -13.016  -4.701  0.00  0.00    +0.000 A 
ATOM      9  C   UNL     1       3.224 -13.656  -5.661  0.00  0.00    +0.000 A 
ATOM     10  C   UNL     1       2.915 -12.593  -6.426  0.00  0.00    +0.000 A 
BRANCH   7  11
ATOM     11  C   UNL     1       0.221 -14.770  -1.808  0.00  0.00    +0.000 C 
ATOM     12  C   UNL     1      -0.641 -13.704  -1.149  0.00  0.00    +0.000 C 
ENDBRANCH   7  11
ENDBRANCH   2   6
BRANCH   1  13
ATOM     13  O   UNL     1       4.255 -14.533  -2.044  0.00  0.00    +0.000 OA
BRANCH  13  14
ATOM     14  C   UNL     1       4.949 -14.660  -0.802  0.00  0.00    +0.000 C 
BRANCH  14  17
ATOM     15 CL   UNL     1       3.070 -17.407   3.183  0.00  0.00    +0.000 Cl
ATOM     16 CL   UNL     1       0.692 -15.201   3.443  0.00  0.00    +0.000 Cl
ATOM     17  C   UNL     1       3.946 -14.758   0.317  0.00  0.00    +0.000 A 
ATOM     18  C   UNL     1       3.967 -15.859   1.185  0.00  0.00    +0.000 A 
ATOM     19  C   UNL     1       2.931 -13.802   0.453  0.00  0.00    +0.000 A 
ATOM     20  C   UNL     1       2.983 -16.012   2.167  0.00  0.00    +0.000 A 
ATOM     21  C   UNL     1       1.948 -13.951   1.433  0.00  0.00    +0.000 A 
ATOM     22  C   UNL     1       1.965 -15.059   2.284  0.00  0.00    +0.000 A 
ENDBRANCH  14  17
ENDBRANCH  13  14
ENDBRANCH   1  13
TORSDOF 5
ENDMDL
MODEL 6
REMARK VINA RESULT:      -5.1      9.760     12.080
REMARK  Name = 155269216
REMARK  6 active torsions:
REMARK  status: ('A' for Active; 'I' for Inactive)
REMARK    1  A    between atoms: O_4  and  N_7
REMARK    2  A    between atoms: O_4  and  C_17
REMARK    3  A    between atoms: C_8  and  C_13
REMARK    4  A    between atoms: C_9  and  C_10
REMARK    5  A    between atoms: C_10  and  C_14
REMARK    6  A    between atoms: C_16  and  C_17
REMARK                            x       y       z     vdW  Elec       q    Type
REMARK                         _______ _______ _______ _____ _____    ______ ____
ROOT
ATOM      1  N   UNL     1       0.795  18.322  23.741  0.00  0.00    +0.000 NA
ATOM      2  C   UNL     1       0.780  18.261  22.442  0.00  0.00    +0.000 C 
ENDROOT
BRANCH   2   6
ATOM      3  S   UNL     1       4.237  16.191  19.398  0.00  0.00    +0.000 S 
ATOM      4  N   UNL     1       2.545  17.321  20.966  0.00  0.00    +0.000 N 
ATOM      5  N   UNL     1       1.702  15.374  20.280  0.00  0.00    +0.000 NA
ATOM      6  C   UNL     1       1.320  17.241  21.584  0.00  0.00    +0.000 A 
ATOM      7  C   UNL     1       0.795  16.034  21.100  0.00  0.00    +0.000 A 
ATOM      8  C   UNL     1       2.714  16.187  20.238  0.00  0.00    +0.000 A 
ATOM      9  C   UNL     1       3.587  18.223  20.898  0.00  0.00    +0.000 A 
ATOM     10  C   UNL     1       4.575  17.782  20.098  0.00  0.00    +0.000 A 
BRANCH   7  11
ATOM     11  C   UNL     1      -0.571  15.454  21.296  0.00  0.00    +0.000 C 
ATOM     12  C   UNL     1      -1.430  15.490  20.041  0.00  0.00    +0.000 C 
ENDBRANCH   7  11
ENDBRANCH   2   6
BRANCH   1  13
ATOM     13  O   UNL     1       1.535  17.276  24.311  0.00  0.00    +0.000 OA
BRANCH  13  14
ATOM     14  C   UNL     1       2.686  17.793  24.980  0.00  0.00    +0.000 C 
BRANCH  14  17
ATOM     15 CL   UNL     1       7.752  18.169  23.909  0.00  0.00    +0.000 Cl
ATOM     16 CL   UNL     1       7.535  15.299  22.390  0.00  0.00    +0.000 Cl
ATOM     17  C   UNL     1       3.921  17.140  24.417  0.00  0.00    +0.000 A 
ATOM     18  C   UNL     1       5.149  17.816  24.448  0.00  0.00    +0.000 A 
ATOM     19  C   UNL     1       3.843  15.895  23.780  0.00  0.00    +0.000 A 
ATOM     20  C   UNL     1       6.282  17.263  23.842  0.00  0.00    +0.000 A 
ATOM     21  C   UNL     1       4.973  15.339  23.177  0.00  0.00    +0.000 A 
ATOM     22  C   UNL     1       6.190  16.025  23.197  0.00  0.00    +0.000 A 
ENDBRANCH  14  17
ENDBRANCH  13  14
ENDBRANCH   1  13
TORSDOF 5
ENDMDL
MODEL 7
REMARK VINA RESULT:      -4.9      9.275     11.790
REMARK  Name = 155269216
REMARK  6 active torsions:
REMARK  status: ('A' for Active; 'I' for Inactive)
REMARK    1  A    between atoms: O_4  and  N_7
REMARK    2  A    between atoms: O_4  and  C_17
REMARK    3  A    between atoms: C_8  and  C_13
REMARK    4  A    between atoms: C_9  and  C_10
REMARK    5  A    between atoms: C_10  and  C_14
REMARK    6  A    between atoms: C_16  and  C_17
REMARK                            x       y       z     vdW  Elec       q    Type
REMARK                         _______ _______ _______ _____ _____    ______ ____
ROOT
ATOM      1  N   UNL     1       2.884  17.107  23.633  0.00  0.00    +0.000 NA
ATOM      2  C   UNL     1       3.983  17.431  23.017  0.00  0.00    +0.000 C 
ENDROOT
BRANCH   2   6
ATOM      3  S   UNL     1       8.084  15.056  21.273  0.00  0.00    +0.000 S 
ATOM      4  N   UNL     1       6.048  16.280  22.249  0.00  0.00    +0.000 N 
ATOM      5  N   UNL     1       5.514  15.487  20.235  0.00  0.00    +0.000 NA
ATOM      6  C   UNL     1       4.740  16.661  22.067  0.00  0.00    +0.000 A 
ATOM      7  C   UNL     1       4.447  16.192  20.778  0.00  0.00    +0.000 A 
ATOM      8  C   UNL     1       6.430  15.578  21.151  0.00  0.00    +0.000 A 
ATOM      9  C   UNL     1       7.020  16.432  23.216  0.00  0.00    +0.000 A 
ATOM     10  C   UNL     1       8.175  15.844  22.857  0.00  0.00    +0.000 A 
BRANCH   7  11
ATOM     11  C   UNL     1       3.220  16.416  19.950  0.00  0.00    +0.000 C 
ATOM     12  C   UNL     1       2.963  15.310  18.938  0.00  0.00    +0.000 C 
ENDBRANCH   7  11
ENDBRANCH   2   6
BRANCH   1  13
ATOM     13  O   UNL     1       2.498  15.785  23.366  0.00  0.00    +0.000 OA
BRANCH  13  14
ATOM     14  C   UNL     1       1.114  15.604  23.671  0.00  0.00    +0.000 C 
BRANCH  14  17
ATOM     15 CL   UNL     1      -2.293  18.273  20.804  0.00  0.00    +0.000 Cl
ATOM     16 CL   UNL     1      -2.367  15.756  18.741  0.00  0.00    +0.000 Cl
ATOM     17  C   UNL     1       0.311  15.691  22.400  0.00  0.00    +0.000 A 
ATOM     18  C   UNL     1      -0.494  16.813  22.153  0.00  0.00    +0.000 A 
ATOM     19  C   UNL     1       0.289  14.623  21.494  0.00  0.00    +0.000 A 
ATOM     20  C   UNL     1      -1.319  16.863  21.024  0.00  0.00    +0.000 A 
ATOM     21  C   UNL     1      -0.531  14.672  20.365  0.00  0.00    +0.000 A 
ATOM     22  C   UNL     1      -1.343  15.785  20.133  0.00  0.00    +0.000 A 
ENDBRANCH  14  17
ENDBRANCH  13  14
ENDBRANCH   1  13
TORSDOF 5
ENDMDL
MODEL 8
REMARK VINA RESULT:      -4.9     26.618     28.958
REMARK  Name = 155269216
REMARK  6 active torsions:
REMARK  status: ('A' for Active; 'I' for Inactive)
REMARK    1  A    between atoms: O_4  and  N_7
REMARK    2  A    between atoms: O_4  and  C_17
REMARK    3  A    between atoms: C_8  and  C_13
REMARK    4  A    between atoms: C_9  and  C_10
REMARK    5  A    between atoms: C_10  and  C_14
REMARK    6  A    between atoms: C_16  and  C_17
REMARK                            x       y       z     vdW  Elec       q    Type
REMARK                         _______ _______ _______ _____ _____    ______ ____
ROOT
ATOM      1  N   UNL     1      -3.485 -14.848  13.556  0.00  0.00    +0.000 NA
ATOM      2  C   UNL     1      -2.667 -14.065  12.916  0.00  0.00    +0.000 C 
ENDROOT
BRANCH   2   6
ATOM      3  S   UNL     1      -3.585  -9.718  10.516  0.00  0.00    +0.000 S 
ATOM      4  N   UNL     1      -3.161 -11.980  11.657  0.00  0.00    +0.000 N 
ATOM      5  N   UNL     1      -2.542 -10.346  13.043  0.00  0.00    +0.000 NA
ATOM      6  C   UNL     1      -2.714 -12.634  12.780  0.00  0.00    +0.000 A 
ATOM      7  C   UNL     1      -2.289 -11.588  13.612  0.00  0.00    +0.000 A 
ATOM      8  C   UNL     1      -3.054 -10.645  11.888  0.00  0.00    +0.000 A 
ATOM      9  C   UNL     1      -3.658 -12.323  10.417  0.00  0.00    +0.000 A 
ATOM     10  C   UNL     1      -3.933 -11.236   9.673  0.00  0.00    +0.000 A 
BRANCH   7  11
ATOM     11  C   UNL     1      -1.573 -11.660  14.925  0.00  0.00    +0.000 C 
ATOM     12  C   UNL     1      -1.327 -10.297  15.555  0.00  0.00    +0.000 C 
ENDBRANCH   7  11
ENDBRANCH   2   6
BRANCH   1  13
ATOM     13  O   UNL     1      -4.587 -14.151  14.074  0.00  0.00    +0.000 OA
BRANCH  13  14
ATOM     14  C   UNL     1      -4.482 -14.047  15.495  0.00  0.00    +0.000 C 
BRANCH  14  17
ATOM     15 CL   UNL     1      -5.876 -10.991  19.453  0.00  0.00    +0.000 Cl
ATOM     16 CL   UNL     1      -7.507  -9.152  17.320  0.00  0.00    +0.000 Cl
ATOM     17  C   UNL     1      -5.157 -12.779  15.949  0.00  0.00    +0.000 A 
ATOM     18  C   UNL     1      -5.178 -12.444  17.311  0.00  0.00    +0.000 A 
ATOM     19  C   UNL     1      -5.843 -11.968  15.036  0.00  0.00    +0.000 A 
ATOM     20  C   UNL     1      -5.885 -11.323  17.758  0.00  0.00    +0.000 A 
ATOM     21  C   UNL     1      -6.547 -10.847  15.479  0.00  0.00    +0.000 A 
ATOM     22  C   UNL     1      -6.578 -10.527  16.839  0.00  0.00    +0.000 A 
ENDBRANCH  14  17
ENDBRANCH  13  14
ENDBRANCH   1  13
TORSDOF 5
ENDMDL
MODEL 9
REMARK VINA RESULT:      -4.8     27.388     29.170
REMARK  Name = 155269216
REMARK  6 active torsions:
REMARK  status: ('A' for Active; 'I' for Inactive)
REMARK    1  A    between atoms: O_4  and  N_7
REMARK    2  A    between atoms: O_4  and  C_17
REMARK    3  A    between atoms: C_8  and  C_13
REMARK    4  A    between atoms: C_9  and  C_10
REMARK    5  A    between atoms: C_10  and  C_14
REMARK    6  A    between atoms: C_16  and  C_17
REMARK                            x       y       z     vdW  Elec       q    Type
REMARK                         _______ _______ _______ _____ _____    ______ ____
ROOT
ATOM      1  N   UNL     1     -16.234   7.009  31.829  0.00  0.00    +0.000 NA
ATOM      2  C   UNL     1     -16.506   5.745  31.975  0.00  0.00    +0.000 C 
ENDROOT
BRANCH   2   6
ATOM      3  S   UNL     1     -13.892   1.645  30.615  0.00  0.00    +0.000 S 
ATOM      4  N   UNL     1     -15.252   3.741  31.208  0.00  0.00    +0.000 N 
ATOM      5  N   UNL     1     -14.152   3.058  33.024  0.00  0.00    +0.000 NA
ATOM      6  C   UNL     1     -15.598   4.649  32.180  0.00  0.00    +0.000 A 
ATOM      7  C   UNL     1     -14.932   4.170  33.318  0.00  0.00    +0.000 A 
ATOM      8  C   UNL     1     -14.386   2.853  31.763  0.00  0.00    +0.000 A 
ATOM      9  C   UNL     1     -15.554   3.515  29.881  0.00  0.00    +0.000 A 
ATOM     10  C   UNL     1     -14.918   2.430  29.404  0.00  0.00    +0.000 A 
BRANCH   7  11
ATOM     11  C   UNL     1     -15.022   4.647  34.734  0.00  0.00    +0.000 C 
ATOM     12  C   UNL     1     -13.905   5.604  35.122  0.00  0.00    +0.000 C 
ENDBRANCH   7  11
ENDBRANCH   2   6
BRANCH   1  13
ATOM     13  O   UNL     1     -14.854   7.250  31.777  0.00  0.00    +0.000 OA
BRANCH  13  14
ATOM     14  C   UNL     1     -14.597   8.656  31.786  0.00  0.00    +0.000 C 
BRANCH  14  17
ATOM     15 CL   UNL     1     -11.542   9.353  35.925  0.00  0.00    +0.000 Cl
ATOM     16 CL   UNL     1      -9.098  10.005  33.877  0.00  0.00    +0.000 Cl
ATOM     17  C   UNL     1     -13.210   8.903  32.318  0.00  0.00    +0.000 A 
ATOM     18  C   UNL     1     -12.988   8.960  33.702  0.00  0.00    +0.000 A 
ATOM     19  C   UNL     1     -12.146   9.163  31.445  0.00  0.00    +0.000 A 
ATOM     20  C   UNL     1     -11.726   9.285  34.208  0.00  0.00    +0.000 A 
ATOM     21  C   UNL     1     -10.884   9.484  31.948  0.00  0.00    +0.000 A 
ATOM     22  C   UNL     1     -10.673   9.556  33.327  0.00  0.00    +0.000 A 
ENDBRANCH  14  17
ENDBRANCH  13  14
ENDBRANCH   1  13
TORSDOF 5
ENDMDL
MODEL 10
REMARK VINA RESULT:      -4.8     33.824     35.567
REMARK  Name = 155269216
REMARK  6 active torsions:
REMARK  status: ('A' for Active; 'I' for Inactive)
REMARK    1  A    between atoms: O_4  and  N_7
REMARK    2  A    between atoms: O_4  and  C_17
REMARK    3  A    between atoms: C_8  and  C_13
REMARK    4  A    between atoms: C_9  and  C_10
REMARK    5  A    between atoms: C_10  and  C_14
REMARK    6  A    between atoms: C_16  and  C_17
REMARK                            x       y       z     vdW  Elec       q    Type
REMARK                         _______ _______ _______ _____ _____    ______ ____
ROOT
ATOM      1  N   UNL     1       0.474 -13.889   0.333  0.00  0.00    +0.000 NA
ATOM      2  C   UNL     1       0.249 -14.379  -0.850  0.00  0.00    +0.000 C 
ENDROOT
BRANCH   2   6
ATOM      3  S   UNL     1       3.534 -17.410  -3.201  0.00  0.00    +0.000 S 
ATOM      4  N   UNL     1       1.839 -15.947  -1.942  0.00  0.00    +0.000 N 
ATOM      5  N   UNL     1       2.658 -14.785  -3.660  0.00  0.00    +0.000 NA
ATOM      6  C   UNL     1       1.199 -14.734  -1.871  0.00  0.00    +0.000 A 
ATOM      7  C   UNL     1       1.766 -14.010  -2.931  0.00  0.00    +0.000 A 
ATOM      8  C   UNL     1       2.660 -15.918  -3.024  0.00  0.00    +0.000 A 
ATOM      9  C   UNL     1       1.860 -17.124  -1.222  0.00  0.00    +0.000 A 
ATOM     10  C   UNL     1       2.717 -18.016  -1.751  0.00  0.00    +0.000 A 
BRANCH   7  11
ATOM     11  C   UNL     1       1.583 -12.569  -3.292  0.00  0.00    +0.000 C 
ATOM     12  C   UNL     1       0.798 -12.362  -4.578  0.00  0.00    +0.000 C 
ENDBRANCH   7  11
ENDBRANCH   2   6
BRANCH   1  13
ATOM     13  O   UNL     1       1.832 -13.602   0.538  0.00  0.00    +0.000 OA
BRANCH  13  14
ATOM     14  C   UNL     1       2.317 -14.302   1.685  0.00  0.00    +0.000 C 
BRANCH  14  17
ATOM     15 CL   UNL     1       5.000 -18.652   2.599  0.00  0.00    +0.000 Cl
ATOM     16 CL   UNL     1       7.033 -17.772   0.214  0.00  0.00    +0.000 Cl
ATOM     17  C   UNL     1       3.436 -15.220   1.269  0.00  0.00    +0.000 A 
ATOM     18  C   UNL     1       3.674 -16.406   1.978  0.00  0.00    +0.000 A 
ATOM     19  C   UNL     1       4.304 -14.862   0.229  0.00  0.00    +0.000 A 
ATOM     20  C   UNL     1       4.768 -17.218   1.664  0.00  0.00    +0.000 A 
ATOM     21  C   UNL     1       5.396 -15.671  -0.089  0.00  0.00    +0.000 A 
ATOM     22  C   UNL     1       5.636 -16.844   0.632  0.00  0.00    +0.000 A 
ENDBRANCH  14  17
ENDBRANCH  13  14
ENDBRANCH   1  13
TORSDOF 5
ENDMDL
