MODEL 1
REMARK VINA RESULT:      -6.4      0.000      0.000
REMARK  Name = 155269218
REMARK  5 active torsions:
REMARK  status: ('A' for Active; 'I' for Inactive)
REMARK    1  A    between atoms: O_5  and  N_8
REMARK    2  A    between atoms: O_5  and  C_21
REMARK    3  A    between atoms: C_9  and  C_14
REMARK    4  A    between atoms: C_10  and  C_12
REMARK    5  A    between atoms: C_20  and  C_21
REMARK                            x       y       z     vdW  Elec       q    Type
REMARK                         _______ _______ _______ _____ _____    ______ ____
ROOT
ATOM      1  S   UNL     1     -10.109  -7.496  16.042  0.00  0.00    +0.000 S 
ATOM      2  N   UNL     1      -9.172  -9.849  15.623  0.00  0.00    +0.000 N 
ATOM      3  N   UNL     1      -7.945  -8.856  17.200  0.00  0.00    +0.000 NA
ATOM      4  C   UNL     1      -8.203 -10.776  15.943  0.00  0.00    +0.000 A 
ATOM      5  C   UNL     1      -7.459 -10.128  16.937  0.00  0.00    +0.000 A 
ATOM      6  C   UNL     1      -8.938  -8.737  16.369  0.00  0.00    +0.000 A 
ATOM      7  C   UNL     1     -10.282  -9.779  14.807  0.00  0.00    +0.000 A 
ATOM      8  C   UNL     1     -10.893  -8.586  14.890  0.00  0.00    +0.000 A 
ENDROOT
BRANCH   5  10
ATOM      9  F   UNL     1      -3.203 -12.363  19.799  0.00  0.00    +0.000 F 
ATOM     10  C   UNL     1      -6.323 -10.672  17.675  0.00  0.00    +0.000 A 
ATOM     11  C   UNL     1      -6.489 -11.037  19.021  0.00  0.00    +0.000 A 
ATOM     12  C   UNL     1      -5.062 -10.836  17.083  0.00  0.00    +0.000 A 
ATOM     13  C   UNL     1      -5.434 -11.603  19.743  0.00  0.00    +0.000 A 
ATOM     14  C   UNL     1      -4.010 -11.414  17.800  0.00  0.00    +0.000 A 
ATOM     15  C   UNL     1      -4.210 -11.800  19.119  0.00  0.00    +0.000 A 
ENDBRANCH   5  10
BRANCH   4  17
ATOM     16  N   UNL     1      -7.473 -12.492  14.350  0.00  0.00    +0.000 NA
ATOM     17  C   UNL     1      -8.102 -12.110  15.424  0.00  0.00    +0.000 C 
BRANCH  16  18
ATOM     18  O   UNL     1      -6.725 -11.449  13.791  0.00  0.00    +0.000 OA
BRANCH  18  19
ATOM     19  C   UNL     1      -6.337 -11.781  12.458  0.00  0.00    +0.000 C 
BRANCH  19  22
ATOM     20 CL   UNL     1      -1.759 -10.228  14.419  0.00  0.00    +0.000 Cl
ATOM     21 CL   UNL     1      -0.900  -9.357  11.404  0.00  0.00    +0.000 Cl
ATOM     22  C   UNL     1      -4.959 -11.210  12.230  0.00  0.00    +0.000 A 
ATOM     23  C   UNL     1      -4.065 -11.011  13.291  0.00  0.00    +0.000 A 
ATOM     24  C   UNL     1      -4.566 -10.848  10.933  0.00  0.00    +0.000 A 
ATOM     25  C   UNL     1      -2.803 -10.447  13.059  0.00  0.00    +0.000 A 
ATOM     26  C   UNL     1      -3.309 -10.289  10.700  0.00  0.00    +0.000 A 
ATOM     27  C   UNL     1      -2.427 -10.080  11.762  0.00  0.00    +0.000 A 
ENDBRANCH  19  22
ENDBRANCH  18  19
ENDBRANCH  16  18
ENDBRANCH   4  17
TORSDOF 5
ENDMDL
MODEL 2
REMARK VINA RESULT:      -6.4     20.490     22.996
REMARK  Name = 155269218
REMARK  5 active torsions:
REMARK  status: ('A' for Active; 'I' for Inactive)
REMARK    1  A    between atoms: O_5  and  N_8
REMARK    2  A    between atoms: O_5  and  C_21
REMARK    3  A    between atoms: C_9  and  C_14
REMARK    4  A    between atoms: C_10  and  C_12
REMARK    5  A    between atoms: C_20  and  C_21
REMARK                            x       y       z     vdW  Elec       q    Type
REMARK                         _______ _______ _______ _____ _____    ______ ____
ROOT
ATOM      1  S   UNL     1     -14.744   4.820  22.910  0.00  0.00    +0.000 S 
ATOM      2  N   UNL     1     -14.599   7.313  22.311  0.00  0.00    +0.000 N 
ATOM      3  N   UNL     1     -13.040   6.205  21.162  0.00  0.00    +0.000 NA
ATOM      4  C   UNL     1     -13.945   8.286  21.586  0.00  0.00    +0.000 A 
ATOM      5  C   UNL     1     -12.984   7.560  20.872  0.00  0.00    +0.000 A 
ATOM      6  C   UNL     1     -13.994   6.125  22.042  0.00  0.00    +0.000 A 
ATOM      7  C   UNL     1     -15.678   7.235  23.168  0.00  0.00    +0.000 A 
ATOM      8  C   UNL     1     -15.888   5.981  23.600  0.00  0.00    +0.000 A 
ENDROOT
BRANCH   5  10
ATOM      9  F   UNL     1      -9.469   9.637  17.047  0.00  0.00    +0.000 F 
ATOM     10  C   UNL     1     -12.030   8.087  19.902  0.00  0.00    +0.000 A 
ATOM     11  C   UNL     1     -12.068   7.620  18.578  0.00  0.00    +0.000 A 
ATOM     12  C   UNL     1     -11.067   9.046  20.251  0.00  0.00    +0.000 A 
ATOM     13  C   UNL     1     -11.199   8.138  17.613  0.00  0.00    +0.000 A 
ATOM     14  C   UNL     1     -10.207   9.574  19.284  0.00  0.00    +0.000 A 
ATOM     15  C   UNL     1     -10.288   9.121  17.973  0.00  0.00    +0.000 A 
ENDBRANCH   5  10
BRANCH   4  17
ATOM     16  N   UNL     1     -13.873  10.621  22.334  0.00  0.00    +0.000 NA
ATOM     17  C   UNL     1     -14.287   9.680  21.537  0.00  0.00    +0.000 C 
BRANCH  16  18
ATOM     18  O   UNL     1     -12.880  10.161  23.206  0.00  0.00    +0.000 OA
BRANCH  18  19
ATOM     19  C   UNL     1     -12.277  11.258  23.891  0.00  0.00    +0.000 C 
BRANCH  19  22
ATOM     20 CL   UNL     1     -14.611  10.351  28.467  0.00  0.00    +0.000 Cl
ATOM     21 CL   UNL     1     -11.657   9.864  29.741  0.00  0.00    +0.000 Cl
ATOM     22  C   UNL     1     -12.165  10.880  25.347  0.00  0.00    +0.000 A 
ATOM     23  C   UNL     1     -13.299  10.776  26.165  0.00  0.00    +0.000 A 
ATOM     24  C   UNL     1     -10.900  10.647  25.906  0.00  0.00    +0.000 A 
ATOM     25  C   UNL     1     -13.167  10.456  27.523  0.00  0.00    +0.000 A 
ATOM     26  C   UNL     1     -10.767  10.326  27.258  0.00  0.00    +0.000 A 
ATOM     27  C   UNL     1     -11.898  10.237  28.071  0.00  0.00    +0.000 A 
ENDBRANCH  19  22
ENDBRANCH  18  19
ENDBRANCH  16  18
ENDBRANCH   4  17
TORSDOF 5
ENDMDL
MODEL 3
REMARK VINA RESULT:      -5.9     29.392     30.452
REMARK  Name = 155269218
REMARK  5 active torsions:
REMARK  status: ('A' for Active; 'I' for Inactive)
REMARK    1  A    between atoms: O_5  and  N_8
REMARK    2  A    between atoms: O_5  and  C_21
REMARK    3  A    between atoms: C_9  and  C_14
REMARK    4  A    between atoms: C_10  and  C_12
REMARK    5  A    between atoms: C_20  and  C_21
REMARK                            x       y       z     vdW  Elec       q    Type
REMARK                         _______ _______ _______ _____ _____    ______ ____
ROOT
ATOM      1  S   UNL     1      -1.947  17.443  19.361  0.00  0.00    +0.000 S 
ATOM      2  N   UNL     1      -0.976  16.240  21.412  0.00  0.00    +0.000 N 
ATOM      3  N   UNL     1      -1.414  18.358  21.960  0.00  0.00    +0.000 NA
ATOM      4  C   UNL     1      -0.580  16.347  22.728  0.00  0.00    +0.000 A 
ATOM      5  C   UNL     1      -0.875  17.679  23.043  0.00  0.00    +0.000 A 
ATOM      6  C   UNL     1      -1.419  17.463  21.017  0.00  0.00    +0.000 A 
ATOM      7  C   UNL     1      -1.067  15.252  20.454  0.00  0.00    +0.000 A 
ATOM      8  C   UNL     1      -1.547  15.721  19.291  0.00  0.00    +0.000 A 
ENDROOT
BRANCH   5  10
ATOM      9  F   UNL     1      -0.129  20.337  27.909  0.00  0.00    +0.000 F 
ATOM     10  C   UNL     1      -0.698  18.334  24.335  0.00  0.00    +0.000 A 
ATOM     11  C   UNL     1       0.583  18.762  24.719  0.00  0.00    +0.000 A 
ATOM     12  C   UNL     1      -1.771  18.547  25.213  0.00  0.00    +0.000 A 
ATOM     13  C   UNL     1       0.779  19.433  25.929  0.00  0.00    +0.000 A 
ATOM     14  C   UNL     1      -1.579  19.229  26.418  0.00  0.00    +0.000 A 
ATOM     15  C   UNL     1      -0.308  19.674  26.759  0.00  0.00    +0.000 A 
ENDBRANCH   5  10
BRANCH   4  17
ATOM     16  N   UNL     1       1.153  14.975  23.792  0.00  0.00    +0.000 NA
ATOM     17  C   UNL     1      -0.090  15.280  23.554  0.00  0.00    +0.000 C 
BRANCH  16  18
ATOM     18  O   UNL     1       2.030  15.929  23.264  0.00  0.00    +0.000 OA
BRANCH  18  19
ATOM     19  C   UNL     1       3.294  15.331  22.976  0.00  0.00    +0.000 C 
BRANCH  19  22
ATOM     20 CL   UNL     1       4.604  19.458  25.885  0.00  0.00    +0.000 Cl
ATOM     21 CL   UNL     1       7.675  19.025  24.902  0.00  0.00    +0.000 Cl
ATOM     22  C   UNL     1       4.364  16.254  23.504  0.00  0.00    +0.000 A 
ATOM     23  C   UNL     1       4.057  17.311  24.372  0.00  0.00    +0.000 A 
ATOM     24  C   UNL     1       5.696  16.068  23.106  0.00  0.00    +0.000 A 
ATOM     25  C   UNL     1       5.064  18.175  24.822  0.00  0.00    +0.000 A 
ATOM     26  C   UNL     1       6.701  16.926  23.556  0.00  0.00    +0.000 A 
ATOM     27  C   UNL     1       6.387  17.985  24.408  0.00  0.00    +0.000 A 
ENDBRANCH  19  22
ENDBRANCH  18  19
ENDBRANCH  16  18
ENDBRANCH   4  17
TORSDOF 5
ENDMDL
MODEL 4
REMARK VINA RESULT:      -5.8      1.954      2.345
REMARK  Name = 155269218
REMARK  5 active torsions:
REMARK  status: ('A' for Active; 'I' for Inactive)
REMARK    1  A    between atoms: O_5  and  N_8
REMARK    2  A    between atoms: O_5  and  C_21
REMARK    3  A    between atoms: C_9  and  C_14
REMARK    4  A    between atoms: C_10  and  C_12
REMARK    5  A    between atoms: C_20  and  C_21
REMARK                            x       y       z     vdW  Elec       q    Type
REMARK                         _______ _______ _______ _____ _____    ______ ____
ROOT
ATOM      1  S   UNL     1     -10.652  -7.385  16.551  0.00  0.00    +0.000 S 
ATOM      2  N   UNL     1      -9.262  -9.320  15.593  0.00  0.00    +0.000 N 
ATOM      3  N   UNL     1      -8.417  -8.739  17.574  0.00  0.00    +0.000 NA
ATOM      4  C   UNL     1      -8.183 -10.158  15.768  0.00  0.00    +0.000 A 
ATOM      5  C   UNL     1      -7.682  -9.776  17.019  0.00  0.00    +0.000 A 
ATOM      6  C   UNL     1      -9.318  -8.492  16.670  0.00  0.00    +0.000 A 
ATOM      7  C   UNL     1     -10.270  -9.139  14.668  0.00  0.00    +0.000 A 
ATOM      8  C   UNL     1     -11.093  -8.134  15.010  0.00  0.00    +0.000 A 
ENDROOT
BRANCH   5  10
ATOM      9  F   UNL     1      -3.455 -12.208  19.762  0.00  0.00    +0.000 F 
ATOM     10  C   UNL     1      -6.554 -10.369  17.730  0.00  0.00    +0.000 A 
ATOM     11  C   UNL     1      -6.746 -10.865  19.031  0.00  0.00    +0.000 A 
ATOM     12  C   UNL     1      -5.277 -10.457  17.157  0.00  0.00    +0.000 A 
ATOM     13  C   UNL     1      -5.698 -11.480  19.722  0.00  0.00    +0.000 A 
ATOM     14  C   UNL     1      -4.232 -11.084  17.842  0.00  0.00    +0.000 A 
ATOM     15  C   UNL     1      -4.456 -11.598  19.113  0.00  0.00    +0.000 A 
ENDBRANCH   5  10
BRANCH   4  17
ATOM     16  N   UNL     1      -7.018 -11.133  13.842  0.00  0.00    +0.000 NA
ATOM     17  C   UNL     1      -7.784 -11.222  14.890  0.00  0.00    +0.000 C 
BRANCH  16  18
ATOM     18  O   UNL     1      -6.452  -9.858  13.722  0.00  0.00    +0.000 OA
BRANCH  18  19
ATOM     19  C   UNL     1      -5.111  -9.957  13.242  0.00  0.00    +0.000 C 
BRANCH  19  22
ATOM     20 CL   UNL     1      -4.119 -12.453   8.770  0.00  0.00    +0.000 Cl
ATOM     21 CL   UNL     1      -5.287  -9.853   7.200  0.00  0.00    +0.000 Cl
ATOM     22  C   UNL     1      -5.169  -9.982  11.735  0.00  0.00    +0.000 A 
ATOM     23  C   UNL     1      -4.695 -11.079  11.002  0.00  0.00    +0.000 A 
ATOM     24  C   UNL     1      -5.688  -8.878  11.044  0.00  0.00    +0.000 A 
ATOM     25  C   UNL     1      -4.728 -11.065   9.601  0.00  0.00    +0.000 A 
ATOM     26  C   UNL     1      -5.725  -8.863   9.649  0.00  0.00    +0.000 A 
ATOM     27  C   UNL     1      -5.238  -9.952   8.924  0.00  0.00    +0.000 A 
ENDBRANCH  19  22
ENDBRANCH  18  19
ENDBRANCH  16  18
ENDBRANCH   4  17
TORSDOF 5
ENDMDL
MODEL 5
REMARK VINA RESULT:      -5.8     28.646     30.005
REMARK  Name = 155269218
REMARK  5 active torsions:
REMARK  status: ('A' for Active; 'I' for Inactive)
REMARK    1  A    between atoms: O_5  and  N_8
REMARK    2  A    between atoms: O_5  and  C_21
REMARK    3  A    between atoms: C_9  and  C_14
REMARK    4  A    between atoms: C_10  and  C_12
REMARK    5  A    between atoms: C_20  and  C_21
REMARK                            x       y       z     vdW  Elec       q    Type
REMARK                         _______ _______ _______ _____ _____    ______ ____
ROOT
ATOM      1  S   UNL     1      15.808  13.058  21.945  0.00  0.00    +0.000 S 
ATOM      2  N   UNL     1      13.792  12.272  23.327  0.00  0.00    +0.000 N 
ATOM      3  N   UNL     1      13.275  14.202  22.334  0.00  0.00    +0.000 NA
ATOM      4  C   UNL     1      12.508  12.545  23.748  0.00  0.00    +0.000 A 
ATOM      5  C   UNL     1      12.211  13.752  23.102  0.00  0.00    +0.000 A 
ATOM      6  C   UNL     1      14.191  13.301  22.533  0.00  0.00    +0.000 A 
ATOM      7  C   UNL     1      14.715  11.257  23.471  0.00  0.00    +0.000 A 
ATOM      8  C   UNL     1      15.857  11.519  22.815  0.00  0.00    +0.000 A 
ENDROOT
BRANCH   5  10
ATOM      9  F   UNL     1       7.292  16.409  23.318  0.00  0.00    +0.000 F 
ATOM     10  C   UNL     1      10.951  14.487  23.154  0.00  0.00    +0.000 A 
ATOM     11  C   UNL     1       9.955  14.212  22.202  0.00  0.00    +0.000 A 
ATOM     12  C   UNL     1      10.703  15.469  24.125  0.00  0.00    +0.000 A 
ATOM     13  C   UNL     1       8.720  14.865  22.252  0.00  0.00    +0.000 A 
ATOM     14  C   UNL     1       9.464  16.113  24.183  0.00  0.00    +0.000 A 
ATOM     15  C   UNL     1       8.482  15.798  23.252  0.00  0.00    +0.000 A 
ENDBRANCH   5  10
BRANCH   4  17
ATOM     16  N   UNL     1      10.830  10.804  24.163  0.00  0.00    +0.000 NA
ATOM     17  C   UNL     1      11.686  11.699  24.566  0.00  0.00    +0.000 C 
BRANCH  16  18
ATOM     18  O   UNL     1      10.895  10.614  22.778  0.00  0.00    +0.000 OA
BRANCH  18  19
ATOM     19  C   UNL     1      10.629   9.249  22.455  0.00  0.00    +0.000 C 
BRANCH  19  22
ATOM     20 CL   UNL     1      11.595   8.304  17.417  0.00  0.00    +0.000 Cl
ATOM     21 CL   UNL     1      14.616   7.455  18.279  0.00  0.00    +0.000 Cl
ATOM     22  C   UNL     1      11.605   8.838  21.380  0.00  0.00    +0.000 A 
ATOM     23  C   UNL     1      11.226   8.776  20.032  0.00  0.00    +0.000 A 
ATOM     24  C   UNL     1      12.916   8.489  21.734  0.00  0.00    +0.000 A 
ATOM     25  C   UNL     1      12.141   8.360  19.056  0.00  0.00    +0.000 A 
ATOM     26  C   UNL     1      13.830   8.076  20.762  0.00  0.00    +0.000 A 
ATOM     27  C   UNL     1      13.443   8.003  19.423  0.00  0.00    +0.000 A 
ENDBRANCH  19  22
ENDBRANCH  18  19
ENDBRANCH  16  18
ENDBRANCH   4  17
TORSDOF 5
ENDMDL
MODEL 6
REMARK VINA RESULT:      -5.7     29.075     30.460
REMARK  Name = 155269218
REMARK  5 active torsions:
REMARK  status: ('A' for Active; 'I' for Inactive)
REMARK    1  A    between atoms: O_5  and  N_8
REMARK    2  A    between atoms: O_5  and  C_21
REMARK    3  A    between atoms: C_9  and  C_14
REMARK    4  A    between atoms: C_10  and  C_12
REMARK    5  A    between atoms: C_20  and  C_21
REMARK                            x       y       z     vdW  Elec       q    Type
REMARK                         _______ _______ _______ _____ _____    ______ ____
ROOT
ATOM      1  S   UNL     1      15.938  12.701  25.512  0.00  0.00    +0.000 S 
ATOM      2  N   UNL     1      13.391  12.464  25.291  0.00  0.00    +0.000 N 
ATOM      3  N   UNL     1      14.364  11.385  23.597  0.00  0.00    +0.000 NA
ATOM      4  C   UNL     1      12.342  11.965  24.549  0.00  0.00    +0.000 A 
ATOM      5  C   UNL     1      12.983  11.289  23.503  0.00  0.00    +0.000 A 
ATOM      6  C   UNL     1      14.542  12.118  24.657  0.00  0.00    +0.000 A 
ATOM      7  C   UNL     1      13.563  13.158  26.471  0.00  0.00    +0.000 A 
ATOM      8  C   UNL     1      14.859  13.389  26.735  0.00  0.00    +0.000 A 
ENDROOT
BRANCH   5  10
ATOM      9  F   UNL     1      10.718   8.303  19.350  0.00  0.00    +0.000 F 
ATOM     10  C   UNL     1      12.349  10.527  22.432  0.00  0.00    +0.000 A 
ATOM     11  C   UNL     1      12.761  10.733  21.105  0.00  0.00    +0.000 A 
ATOM     12  C   UNL     1      11.332   9.596  22.685  0.00  0.00    +0.000 A 
ATOM     13  C   UNL     1      12.207   9.988  20.061  0.00  0.00    +0.000 A 
ATOM     14  C   UNL     1      10.786   8.840  21.644  0.00  0.00    +0.000 A 
ATOM     15  C   UNL     1      11.235   9.036  20.344  0.00  0.00    +0.000 A 
ENDBRANCH   5  10
BRANCH   4  17
ATOM     16  N   UNL     1      10.125  13.016  24.563  0.00  0.00    +0.000 NA
ATOM     17  C   UNL     1      10.948  12.059  24.881  0.00  0.00    +0.000 C 
BRANCH  16  18
ATOM     18  O   UNL     1      10.712  13.931  23.681  0.00  0.00    +0.000 OA
BRANCH  18  19
ATOM     19  C   UNL     1      10.078  15.205  23.798  0.00  0.00    +0.000 C 
BRANCH  19  22
ATOM     20 CL   UNL     1       4.986  15.713  22.788  0.00  0.00    +0.000 Cl
ATOM     21 CL   UNL     1       5.683  15.223  19.647  0.00  0.00    +0.000 Cl
ATOM     22  C   UNL     1       8.958  15.249  22.789  0.00  0.00    +0.000 A 
ATOM     23  C   UNL     1       7.628  15.455  23.179  0.00  0.00    +0.000 A 
ATOM     24  C   UNL     1       9.245  15.060  21.429  0.00  0.00    +0.000 A 
ATOM     25  C   UNL     1       6.601  15.459  22.226  0.00  0.00    +0.000 A 
ATOM     26  C   UNL     1       8.223  15.066  20.478  0.00  0.00    +0.000 A 
ATOM     27  C   UNL     1       6.898  15.257  20.874  0.00  0.00    +0.000 A 
ENDBRANCH  19  22
ENDBRANCH  18  19
ENDBRANCH  16  18
ENDBRANCH   4  17
TORSDOF 5
ENDMDL
MODEL 7
REMARK VINA RESULT:      -5.7     25.066     27.567
REMARK  Name = 155269218
REMARK  5 active torsions:
REMARK  status: ('A' for Active; 'I' for Inactive)
REMARK    1  A    between atoms: O_5  and  N_8
REMARK    2  A    between atoms: O_5  and  C_21
REMARK    3  A    between atoms: C_9  and  C_14
REMARK    4  A    between atoms: C_10  and  C_12
REMARK    5  A    between atoms: C_20  and  C_21
REMARK                            x       y       z     vdW  Elec       q    Type
REMARK                         _______ _______ _______ _____ _____    ______ ____
ROOT
ATOM      1  S   UNL     1       9.548   8.128   0.155  0.00  0.00    +0.000 S 
ATOM      2  N   UNL     1      10.186   5.907   1.275  0.00  0.00    +0.000 N 
ATOM      3  N   UNL     1       9.889   7.452   2.857  0.00  0.00    +0.000 NA
ATOM      4  C   UNL     1      10.451   5.249   2.456  0.00  0.00    +0.000 A 
ATOM      5  C   UNL     1      10.248   6.239   3.426  0.00  0.00    +0.000 A 
ATOM      6  C   UNL     1       9.900   7.201   1.581  0.00  0.00    +0.000 A 
ATOM      7  C   UNL     1      10.105   5.597  -0.067  0.00  0.00    +0.000 A 
ATOM      8  C   UNL     1       9.794   6.668  -0.814  0.00  0.00    +0.000 A 
ENDROOT
BRANCH   5  10
ATOM      9  F   UNL     1      10.650   5.820   8.990  0.00  0.00    +0.000 F 
ATOM     10  C   UNL     1      10.348   6.082   4.873  0.00  0.00    +0.000 A 
ATOM     11  C   UNL     1      11.489   6.561   5.539  0.00  0.00    +0.000 A 
ATOM     12  C   UNL     1       9.340   5.460   5.625  0.00  0.00    +0.000 A 
ATOM     13  C   UNL     1      11.596   6.467   6.929  0.00  0.00    +0.000 A 
ATOM     14  C   UNL     1       9.441   5.378   7.017  0.00  0.00    +0.000 A 
ATOM     15  C   UNL     1      10.562   5.891   7.656  0.00  0.00    +0.000 A 
ENDBRANCH   5  10
BRANCH   4  17
ATOM     16  N   UNL     1      11.858   3.248   2.272  0.00  0.00    +0.000 NA
ATOM     17  C   UNL     1      10.753   3.853   2.599  0.00  0.00    +0.000 C 
BRANCH  16  18
ATOM     18  O   UNL     1      12.850   4.157   1.886  0.00  0.00    +0.000 OA
BRANCH  18  19
ATOM     19  C   UNL     1      14.086   3.476   1.672  0.00  0.00    +0.000 C 
BRANCH  19  22
ATOM     20 CL   UNL     1      13.152   4.654  -3.323  0.00  0.00    +0.000 Cl
ATOM     21 CL   UNL     1      16.358   5.054  -3.704  0.00  0.00    +0.000 Cl
ATOM     22  C   UNL     1      14.611   3.901   0.323  0.00  0.00    +0.000 A 
ATOM     23  C   UNL     1      13.756   4.087  -0.771  0.00  0.00    +0.000 A 
ATOM     24  C   UNL     1      15.989   4.097   0.149  0.00  0.00    +0.000 A 
ATOM     25  C   UNL     1      14.271   4.450  -2.022  0.00  0.00    +0.000 A 
ATOM     26  C   UNL     1      16.505   4.462  -1.096  0.00  0.00    +0.000 A 
ATOM     27  C   UNL     1      15.649   4.632  -2.186  0.00  0.00    +0.000 A 
ENDBRANCH  19  22
ENDBRANCH  18  19
ENDBRANCH  16  18
ENDBRANCH   4  17
TORSDOF 5
ENDMDL
MODEL 8
REMARK VINA RESULT:      -5.6      3.838      6.061
REMARK  Name = 155269218
REMARK  5 active torsions:
REMARK  status: ('A' for Active; 'I' for Inactive)
REMARK    1  A    between atoms: O_5  and  N_8
REMARK    2  A    between atoms: O_5  and  C_21
REMARK    3  A    between atoms: C_9  and  C_14
REMARK    4  A    between atoms: C_10  and  C_12
REMARK    5  A    between atoms: C_20  and  C_21
REMARK                            x       y       z     vdW  Elec       q    Type
REMARK                         _______ _______ _______ _____ _____    ______ ____
ROOT
ATOM      1  S   UNL     1      -6.468 -10.512  11.401  0.00  0.00    +0.000 S 
ATOM      2  N   UNL     1      -4.239 -11.130  12.515  0.00  0.00    +0.000 N 
ATOM      3  N   UNL     1      -5.814 -12.541  13.225  0.00  0.00    +0.000 NA
ATOM      4  C   UNL     1      -3.586 -11.962  13.399  0.00  0.00    +0.000 A 
ATOM      5  C   UNL     1      -4.596 -12.837  13.817  0.00  0.00    +0.000 A 
ATOM      6  C   UNL     1      -5.546 -11.502  12.490  0.00  0.00    +0.000 A 
ATOM      7  C   UNL     1      -3.914 -10.092  11.666  0.00  0.00    +0.000 A 
ATOM      8  C   UNL     1      -4.987  -9.627  11.006  0.00  0.00    +0.000 A 
ENDROOT
BRANCH   5  10
ATOM      9  F   UNL     1      -3.868 -17.140  17.319  0.00  0.00    +0.000 F 
ATOM     10  C   UNL     1      -4.453 -13.966  14.733  0.00  0.00    +0.000 A 
ATOM     11  C   UNL     1      -3.696 -15.081  14.337  0.00  0.00    +0.000 A 
ATOM     12  C   UNL     1      -5.056 -13.975  15.999  0.00  0.00    +0.000 A 
ATOM     13  C   UNL     1      -3.503 -16.157  15.206  0.00  0.00    +0.000 A 
ATOM     14  C   UNL     1      -4.852 -15.046  16.875  0.00  0.00    +0.000 A 
ATOM     15  C   UNL     1      -4.070 -16.121  16.473  0.00  0.00    +0.000 A 
ENDBRANCH   5  10
BRANCH   4  17
ATOM     16  N   UNL     1      -1.554 -11.155  14.511  0.00  0.00    +0.000 NA
ATOM     17  C   UNL     1      -2.181 -11.950  13.694  0.00  0.00    +0.000 C 
BRANCH  16  18
ATOM     18  O   UNL     1      -2.444 -10.361  15.244  0.00  0.00    +0.000 OA
BRANCH  18  19
ATOM     19  C   UNL     1      -2.619 -10.898  16.555  0.00  0.00    +0.000 C 
BRANCH  19  22
ATOM     20 CL   UNL     1      -6.438 -11.471  20.062  0.00  0.00    +0.000 Cl
ATOM     21 CL   UNL     1      -8.416  -9.941  17.980  0.00  0.00    +0.000 Cl
ATOM     22  C   UNL     1      -4.051 -10.649  16.960  0.00  0.00    +0.000 A 
ATOM     23  C   UNL     1      -4.552 -11.097  18.190  0.00  0.00    +0.000 A 
ATOM     24  C   UNL     1      -4.910  -9.973  16.082  0.00  0.00    +0.000 A 
ATOM     25  C   UNL     1      -5.895 -10.883  18.530  0.00  0.00    +0.000 A 
ATOM     26  C   UNL     1      -6.247  -9.756  16.420  0.00  0.00    +0.000 A 
ATOM     27  C   UNL     1      -6.745 -10.217  17.640  0.00  0.00    +0.000 A 
ENDBRANCH  19  22
ENDBRANCH  18  19
ENDBRANCH  16  18
ENDBRANCH   4  17
TORSDOF 5
ENDMDL
MODEL 9
REMARK VINA RESULT:      -5.6      3.787      5.463
REMARK  Name = 155269218
REMARK  5 active torsions:
REMARK  status: ('A' for Active; 'I' for Inactive)
REMARK    1  A    between atoms: O_5  and  N_8
REMARK    2  A    between atoms: O_5  and  C_21
REMARK    3  A    between atoms: C_9  and  C_14
REMARK    4  A    between atoms: C_10  and  C_12
REMARK    5  A    between atoms: C_20  and  C_21
REMARK                            x       y       z     vdW  Elec       q    Type
REMARK                         _______ _______ _______ _____ _____    ______ ____
ROOT
ATOM      1  S   UNL     1      -7.693 -11.038  15.833  0.00  0.00    +0.000 S 
ATOM      2  N   UNL     1      -5.137 -10.983  15.601  0.00  0.00    +0.000 N 
ATOM      3  N   UNL     1      -5.908 -12.839  14.632  0.00  0.00    +0.000 NA
ATOM      4  C   UNL     1      -4.009 -11.631  15.146  0.00  0.00    +0.000 A 
ATOM      5  C   UNL     1      -4.526 -12.781  14.537  0.00  0.00    +0.000 A 
ATOM      6  C   UNL     1      -6.208 -11.764  15.299  0.00  0.00    +0.000 A 
ATOM      7  C   UNL     1      -5.444  -9.790  16.223  0.00  0.00    +0.000 A 
ATOM      8  C   UNL     1      -6.763  -9.661  16.441  0.00  0.00    +0.000 A 
ENDROOT
BRANCH   5  10
ATOM      9  F   UNL     1      -1.562 -16.626  11.755  0.00  0.00    +0.000 F 
ATOM     10  C   UNL     1      -3.771 -13.818  13.840  0.00  0.00    +0.000 A 
ATOM     11  C   UNL     1      -3.950 -13.986  12.457  0.00  0.00    +0.000 A 
ATOM     12  C   UNL     1      -2.873 -14.661  14.510  0.00  0.00    +0.000 A 
ATOM     13  C   UNL     1      -3.210 -14.938  11.751  0.00  0.00    +0.000 A 
ATOM     14  C   UNL     1      -2.122 -15.605  13.803  0.00  0.00    +0.000 A 
ATOM     15  C   UNL     1      -2.291 -15.727  12.430  0.00  0.00    +0.000 A 
ENDBRANCH   5  10
BRANCH   4  17
ATOM     16  N   UNL     1      -1.987 -10.555  14.267  0.00  0.00    +0.000 NA
ATOM     17  C   UNL     1      -2.662 -11.138  15.215  0.00  0.00    +0.000 C 
BRANCH  16  18
ATOM     18  O   UNL     1      -2.787 -10.292  13.149  0.00  0.00    +0.000 OA
BRANCH  18  19
ATOM     19  C   UNL     1      -2.024 -10.440  11.951  0.00  0.00    +0.000 C 
BRANCH  19  22
ATOM     20 CL   UNL     1      -5.254 -12.721   8.549  0.00  0.00    +0.000 Cl
ATOM     21 CL   UNL     1      -5.706  -9.794   7.200  0.00  0.00    +0.000 Cl
ATOM     22  C   UNL     1      -2.976 -10.314  10.788  0.00  0.00    +0.000 A 
ATOM     23  C   UNL     1      -3.632 -11.432  10.254  0.00  0.00    +0.000 A 
ATOM     24  C   UNL     1      -3.197  -9.056  10.208  0.00  0.00    +0.000 A 
ATOM     25  C   UNL     1      -4.486 -11.294   9.152  0.00  0.00    +0.000 A 
ATOM     26  C   UNL     1      -4.049  -8.917   9.111  0.00  0.00    +0.000 A 
ATOM     27  C   UNL     1      -4.689 -10.036   8.576  0.00  0.00    +0.000 A 
ENDBRANCH  19  22
ENDBRANCH  18  19
ENDBRANCH  16  18
ENDBRANCH   4  17
TORSDOF 5
ENDMDL
MODEL 10
REMARK VINA RESULT:      -5.6     22.997     25.388
REMARK  Name = 155269218
REMARK  5 active torsions:
REMARK  status: ('A' for Active; 'I' for Inactive)
REMARK    1  A    between atoms: O_5  and  N_8
REMARK    2  A    between atoms: O_5  and  C_21
REMARK    3  A    between atoms: C_9  and  C_14
REMARK    4  A    between atoms: C_10  and  C_12
REMARK    5  A    between atoms: C_20  and  C_21
REMARK                            x       y       z     vdW  Elec       q    Type
REMARK                         _______ _______ _______ _____ _____    ______ ____
ROOT
ATOM      1  S   UNL     1     -19.084   6.812  31.593  0.00  0.00    +0.000 S 
ATOM      2  N   UNL     1     -17.178   5.872  33.033  0.00  0.00    +0.000 N 
ATOM      3  N   UNL     1     -17.277   4.716  31.127  0.00  0.00    +0.000 NA
ATOM      4  C   UNL     1     -16.181   4.926  33.149  0.00  0.00    +0.000 A 
ATOM      5  C   UNL     1     -16.263   4.227  31.938  0.00  0.00    +0.000 A 
ATOM      6  C   UNL     1     -17.801   5.667  31.842  0.00  0.00    +0.000 A 
ATOM      7  C   UNL     1     -17.656   6.940  33.764  0.00  0.00    +0.000 A 
ATOM      8  C   UNL     1     -18.688   7.545  33.153  0.00  0.00    +0.000 A 
ENDROOT
BRANCH   5  10
ATOM      9  F   UNL     1     -13.119  -0.075  30.233  0.00  0.00    +0.000 F 
ATOM     10  C   UNL     1     -15.404   3.132  31.498  0.00  0.00    +0.000 A 
ATOM     11  C   UNL     1     -15.417   1.921  32.208  0.00  0.00    +0.000 A 
ATOM     12  C   UNL     1     -14.557   3.253  30.387  0.00  0.00    +0.000 A 
ATOM     13  C   UNL     1     -14.640   0.838  31.787  0.00  0.00    +0.000 A 
ATOM     14  C   UNL     1     -13.790   2.166  29.956  0.00  0.00    +0.000 A 
ATOM     15  C   UNL     1     -13.847   0.967  30.655  0.00  0.00    +0.000 A 
ENDBRANCH   5  10
BRANCH   4  17
ATOM     16  N   UNL     1     -14.061   5.343  34.311  0.00  0.00    +0.000 NA
ATOM     17  C   UNL     1     -15.246   4.809  34.231  0.00  0.00    +0.000 C 
BRANCH  16  18
ATOM     18  O   UNL     1     -13.820   6.226  33.251  0.00  0.00    +0.000 OA
BRANCH  18  19
ATOM     19  C   UNL     1     -13.646   7.553  33.746  0.00  0.00    +0.000 C 
BRANCH  19  22
ATOM     20 CL   UNL     1     -14.738  10.711  29.741  0.00  0.00    +0.000 Cl
ATOM     21 CL   UNL     1     -11.548  10.817  29.110  0.00  0.00    +0.000 Cl
ATOM     22  C   UNL     1     -13.158   8.405  32.601  0.00  0.00    +0.000 A 
ATOM     23  C   UNL     1     -14.050   9.113  31.784  0.00  0.00    +0.000 A 
ATOM     24  C   UNL     1     -11.784   8.477  32.329  0.00  0.00    +0.000 A 
ATOM     25  C   UNL     1     -13.575   9.871  30.705  0.00  0.00    +0.000 A 
ATOM     26  C   UNL     1     -11.309   9.233  31.256  0.00  0.00    +0.000 A 
ATOM     27  C   UNL     1     -12.203   9.925  30.437  0.00  0.00    +0.000 A 
ENDBRANCH  19  22
ENDBRANCH  18  19
ENDBRANCH  16  18
ENDBRANCH   4  17
TORSDOF 5
ENDMDL
