REMARK  Name = 155269222
REMARK  5 active torsions:
REMARK  status: ('A' for Active; 'I' for Inactive)
REMARK    1  A    between atoms: O_5  and  N_8
REMARK    2  A    between atoms: O_5  and  C_21
REMARK    3  A    between atoms: C_9  and  C_14
REMARK    4  A    between atoms: C_10  and  C_12
REMARK    5  A    between atoms: C_20  and  C_21
REMARK                            x       y       z     vdW  Elec       q    Type
REMARK                         _______ _______ _______ _____ _____    ______ ____
ROOT
ATOM      1  S   UNL     1       3.541   5.872   1.485  0.00  0.00    +0.000 S 
ATOM      2  N   UNL     1       3.773   4.217  -0.480  0.00  0.00    +0.000 N 
ATOM      3  N   UNL     1       2.374   3.369   1.048  0.00  0.00    +0.000 NA
ATOM      4  C   UNL     1       3.366   3.010  -1.009  0.00  0.00    +0.000 A 
ATOM      5  C   UNL     1       2.517   2.498  -0.017  0.00  0.00    +0.000 A 
ATOM      6  C   UNL     1       3.152   4.359   0.728  0.00  0.00    +0.000 A 
ATOM      7  C   UNL     1       4.553   5.298  -0.844  0.00  0.00    +0.000 A 
ATOM      8  C   UNL     1       4.556   6.261   0.094  0.00  0.00    +0.000 A 
ENDROOT
BRANCH   5  10
ATOM      9 CL   UNL     1      -1.749  -0.118   1.245  0.00  0.00    +0.000 Cl
ATOM     10  C   UNL     1       1.800   1.230  -0.038  0.00  0.00    +0.000 A 
ATOM     11  C   UNL     1       0.519   1.163   0.528  0.00  0.00    +0.000 A 
ATOM     12  C   UNL     1       2.374   0.062  -0.562  0.00  0.00    +0.000 A 
ATOM     13  C   UNL     1      -0.179  -0.046   0.542  0.00  0.00    +0.000 A 
ATOM     14  C   UNL     1       1.665  -1.143  -0.554  0.00  0.00    +0.000 A 
ATOM     15  C   UNL     1       0.385  -1.195  -0.004  0.00  0.00    +0.000 A 
ENDBRANCH   5  10
BRANCH   4  17
ATOM     16  N   UNL     1       4.703   2.527  -3.046  0.00  0.00    +0.000 NA
ATOM     17  C   UNL     1       3.628   2.473  -2.317  0.00  0.00    +0.000 C 
BRANCH  16  18
ATOM     18  O   UNL     1       5.791   3.124  -2.401  0.00  0.00    +0.000 OA
BRANCH  18  19
ATOM     19  C   UNL     1       6.887   3.214  -3.319  0.00  0.00    +0.000 C 
BRANCH  19  22
ATOM     20 CL   UNL     1       8.315  -1.667  -4.394  0.00  0.00    +0.000 Cl
ATOM     21 CL   UNL     1      10.698  -1.339  -2.204  0.00  0.00    +0.000 Cl
ATOM     22  C   UNL     1       7.848   2.079  -3.073  0.00  0.00    +0.000 A 
ATOM     23  C   UNL     1       7.697   0.864  -3.758  0.00  0.00    +0.000 A 
ATOM     24  C   UNL     1       8.872   2.207  -2.127  0.00  0.00    +0.000 A 
ATOM     25  C   UNL     1       8.565  -0.205  -3.510  0.00  0.00    +0.000 A 
ATOM     26  C   UNL     1       9.741   1.144  -1.878  0.00  0.00    +0.000 A 
ATOM     27  C   UNL     1       9.590  -0.064  -2.568  0.00  0.00    +0.000 A 
ENDBRANCH  19  22
ENDBRANCH  18  19
ENDBRANCH  16  18
ENDBRANCH   4  17
TORSDOF 5
