MODEL 1
REMARK VINA RESULT:      -6.0      0.000      0.000
REMARK  Name = 155269222
REMARK  5 active torsions:
REMARK  status: ('A' for Active; 'I' for Inactive)
REMARK    1  A    between atoms: O_5  and  N_8
REMARK    2  A    between atoms: O_5  and  C_21
REMARK    3  A    between atoms: C_9  and  C_14
REMARK    4  A    between atoms: C_10  and  C_12
REMARK    5  A    between atoms: C_20  and  C_21
REMARK                            x       y       z     vdW  Elec       q    Type
REMARK                         _______ _______ _______ _____ _____    ______ ____
ROOT
ATOM      1  S   UNL     1     -11.768   2.804 -32.552  0.00  0.00    +0.000 S 
ATOM      2  N   UNL     1      -9.873   2.012 -34.113  0.00  0.00    +0.000 N 
ATOM      3  N   UNL     1      -9.067   2.292 -32.043  0.00  0.00    +0.000 NA
ATOM      4  C   UNL     1      -8.544   1.654 -34.203  0.00  0.00    +0.000 A 
ATOM      5  C   UNL     1      -8.068   1.868 -32.901  0.00  0.00    +0.000 A 
ATOM      6  C   UNL     1     -10.107   2.376 -32.817  0.00  0.00    +0.000 A 
ATOM      7  C   UNL     1     -10.995   2.045 -34.919  0.00  0.00    +0.000 A 
ATOM      8  C   UNL     1     -12.087   2.461 -34.254  0.00  0.00    +0.000 A 
ENDROOT
BRANCH   5  10
ATOM      9 CL   UNL     1      -4.619  -1.396 -30.880  0.00  0.00    +0.000 Cl
ATOM     10  C   UNL     1      -6.712   1.658 -32.412  0.00  0.00    +0.000 A 
ATOM     11  C   UNL     1      -6.344   0.387 -31.948  0.00  0.00    +0.000 A 
ATOM     12  C   UNL     1      -5.779   2.704 -32.344  0.00  0.00    +0.000 A 
ATOM     13  C   UNL     1      -5.058   0.167 -31.452  0.00  0.00    +0.000 A 
ATOM     14  C   UNL     1      -4.489   2.473 -31.856  0.00  0.00    +0.000 A 
ATOM     15  C   UNL     1      -4.128   1.201 -31.413  0.00  0.00    +0.000 A 
ENDBRANCH   5  10
BRANCH   4  17
ATOM     16  N   UNL     1      -7.308   1.628 -36.357  0.00  0.00    +0.000 NA
ATOM     17  C   UNL     1      -7.850   1.067 -35.317  0.00  0.00    +0.000 C 
BRANCH  16  18
ATOM     18  O   UNL     1      -7.335   3.026 -36.321  0.00  0.00    +0.000 OA
BRANCH  18  19
ATOM     19  C   UNL     1      -8.051   3.509 -37.464  0.00  0.00    +0.000 C 
BRANCH  19  22
ATOM     20 CL   UNL     1      -9.185   7.764 -34.701  0.00  0.00    +0.000 Cl
ATOM     21 CL   UNL     1     -12.280   7.420 -35.641  0.00  0.00    +0.000 Cl
ATOM     22  C   UNL     1      -9.090   4.510 -37.025  0.00  0.00    +0.000 A 
ATOM     23  C   UNL     1      -8.735   5.571 -36.178  0.00  0.00    +0.000 A 
ATOM     24  C   UNL     1     -10.426   4.366 -37.417  0.00  0.00    +0.000 A 
ATOM     25  C   UNL     1      -9.700   6.484 -35.740  0.00  0.00    +0.000 A 
ATOM     26  C   UNL     1     -11.391   5.276 -36.983  0.00  0.00    +0.000 A 
ATOM     27  C   UNL     1     -11.031   6.336 -36.144  0.00  0.00    +0.000 A 
ENDBRANCH  19  22
ENDBRANCH  18  19
ENDBRANCH  16  18
ENDBRANCH   4  17
TORSDOF 5
ENDMDL
MODEL 2
REMARK VINA RESULT:      -5.7     25.299     27.388
REMARK  Name = 155269222
REMARK  5 active torsions:
REMARK  status: ('A' for Active; 'I' for Inactive)
REMARK    1  A    between atoms: O_5  and  N_8
REMARK    2  A    between atoms: O_5  and  C_21
REMARK    3  A    between atoms: C_9  and  C_14
REMARK    4  A    between atoms: C_10  and  C_12
REMARK    5  A    between atoms: C_20  and  C_21
REMARK                            x       y       z     vdW  Elec       q    Type
REMARK                         _______ _______ _______ _____ _____    ______ ____
ROOT
ATOM      1  S   UNL     1     -21.868  13.854 -55.990  0.00  0.00    +0.000 S 
ATOM      2  N   UNL     1     -20.374  11.931 -56.841  0.00  0.00    +0.000 N 
ATOM      3  N   UNL     1     -22.526  11.342 -57.027  0.00  0.00    +0.000 NA
ATOM      4  C   UNL     1     -20.345  10.670 -57.400  0.00  0.00    +0.000 A 
ATOM      5  C   UNL     1     -21.703  10.325 -57.476  0.00  0.00    +0.000 A 
ATOM      6  C   UNL     1     -21.686  12.258 -56.648  0.00  0.00    +0.000 A 
ATOM      7  C   UNL     1     -19.486  12.930 -56.492  0.00  0.00    +0.000 A 
ATOM      8  C   UNL     1     -20.110  14.017 -56.005  0.00  0.00    +0.000 A 
ENDROOT
BRANCH   5  10
ATOM      9 CL   UNL     1     -25.679   7.035 -57.497  0.00  0.00    +0.000 Cl
ATOM     10  C   UNL     1     -22.270   9.084 -57.986  0.00  0.00    +0.000 A 
ATOM     11  C   UNL     1     -23.551   8.698 -57.567  0.00  0.00    +0.000 A 
ATOM     12  C   UNL     1     -21.552   8.238 -58.845  0.00  0.00    +0.000 A 
ATOM     13  C   UNL     1     -24.107   7.501 -58.023  0.00  0.00    +0.000 A 
ATOM     14  C   UNL     1     -22.119   7.046 -59.306  0.00  0.00    +0.000 A 
ATOM     15  C   UNL     1     -23.400   6.680 -58.896  0.00  0.00    +0.000 A 
ENDBRANCH   5  10
BRANCH   4  17
ATOM     16  N   UNL     1     -18.522   8.984 -57.384  0.00  0.00    +0.000 NA
ATOM     17  C   UNL     1     -19.215   9.946 -57.916  0.00  0.00    +0.000 C 
BRANCH  16  18
ATOM     18  O   UNL     1     -19.028   8.536 -56.160  0.00  0.00    +0.000 OA
BRANCH  18  19
ATOM     19  C   UNL     1     -18.951   7.106 -56.117  0.00  0.00    +0.000 C 
BRANCH  19  22
ATOM     20 CL   UNL     1     -22.400   3.287 -56.851  0.00  0.00    +0.000 Cl
ATOM     21 CL   UNL     1     -24.460   4.924 -54.937  0.00  0.00    +0.000 Cl
ATOM     22  C   UNL     1     -20.311   6.534 -55.808  0.00  0.00    +0.000 A 
ATOM     23  C   UNL     1     -20.710   5.314 -56.374  0.00  0.00    +0.000 A 
ATOM     24  C   UNL     1     -21.208   7.235 -54.993  0.00  0.00    +0.000 A 
ATOM     25  C   UNL     1     -21.984   4.795 -56.119  0.00  0.00    +0.000 A 
ATOM     26  C   UNL     1     -22.478   6.719 -54.734  0.00  0.00    +0.000 A 
ATOM     27  C   UNL     1     -22.870   5.499 -55.296  0.00  0.00    +0.000 A 
ENDBRANCH  19  22
ENDBRANCH  18  19
ENDBRANCH  16  18
ENDBRANCH   4  17
TORSDOF 5
ENDMDL
MODEL 3
REMARK VINA RESULT:      -5.6     18.668     20.551
REMARK  Name = 155269222
REMARK  5 active torsions:
REMARK  status: ('A' for Active; 'I' for Inactive)
REMARK    1  A    between atoms: O_5  and  N_8
REMARK    2  A    between atoms: O_5  and  C_21
REMARK    3  A    between atoms: C_9  and  C_14
REMARK    4  A    between atoms: C_10  and  C_12
REMARK    5  A    between atoms: C_20  and  C_21
REMARK                            x       y       z     vdW  Elec       q    Type
REMARK                         _______ _______ _______ _____ _____    ______ ____
ROOT
ATOM      1  S   UNL     1      -0.522  -1.739 -52.985  0.00  0.00    +0.000 S 
ATOM      2  N   UNL     1      -2.188   0.093 -52.263  0.00  0.00    +0.000 N 
ATOM      3  N   UNL     1      -3.311  -1.772 -52.784  0.00  0.00    +0.000 NA
ATOM      4  C   UNL     1      -3.511   0.405 -52.032  0.00  0.00    +0.000 A 
ATOM      5  C   UNL     1      -4.183  -0.771 -52.394  0.00  0.00    +0.000 A 
ATOM      6  C   UNL     1      -2.147  -1.199 -52.703  0.00  0.00    +0.000 A 
ATOM      7  C   UNL     1      -0.945   0.680 -52.122  0.00  0.00    +0.000 A 
ATOM      8  C   UNL     1       0.052  -0.148 -52.479  0.00  0.00    +0.000 A 
ENDROOT
BRANCH   5  10
ATOM      9 CL   UNL     1      -8.777  -0.074 -54.640  0.00  0.00    +0.000 Cl
ATOM     10  C   UNL     1      -5.619  -1.014 -52.359  0.00  0.00    +0.000 A 
ATOM     11  C   UNL     1      -6.420  -0.507 -53.392  0.00  0.00    +0.000 A 
ATOM     12  C   UNL     1      -6.231  -1.695 -51.296  0.00  0.00    +0.000 A 
ATOM     13  C   UNL     1      -7.802  -0.705 -53.369  0.00  0.00    +0.000 A 
ATOM     14  C   UNL     1      -7.614  -1.898 -51.284  0.00  0.00    +0.000 A 
ATOM     15  C   UNL     1      -8.399  -1.405 -52.325  0.00  0.00    +0.000 A 
ENDBRANCH   5  10
BRANCH   4  17
ATOM     16  N   UNL     1      -4.453   2.703 -51.977  0.00  0.00    +0.000 NA
ATOM     17  C   UNL     1      -4.059   1.591 -51.431  0.00  0.00    +0.000 C 
BRANCH  16  18
ATOM     18  O   UNL     1      -4.417   2.688 -53.375  0.00  0.00    +0.000 OA
BRANCH  18  19
ATOM     19  C   UNL     1      -5.399   3.602 -53.878  0.00  0.00    +0.000 C 
BRANCH  19  22
ATOM     20 CL   UNL     1      -3.447   4.896 -58.519  0.00  0.00    +0.000 Cl
ATOM     21 CL   UNL     1      -2.601   7.767 -57.244  0.00  0.00    +0.000 Cl
ATOM     22  C   UNL     1      -4.728   4.642 -54.738  0.00  0.00    +0.000 A 
ATOM     23  C   UNL     1      -4.430   4.364 -56.081  0.00  0.00    +0.000 A 
ATOM     24  C   UNL     1      -4.352   5.877 -54.197  0.00  0.00    +0.000 A 
ATOM     25  C   UNL     1      -3.777   5.312 -56.876  0.00  0.00    +0.000 A 
ATOM     26  C   UNL     1      -3.703   6.827 -54.987  0.00  0.00    +0.000 A 
ATOM     27  C   UNL     1      -3.413   6.547 -56.328  0.00  0.00    +0.000 A 
ENDBRANCH  19  22
ENDBRANCH  18  19
ENDBRANCH  16  18
ENDBRANCH   4  17
TORSDOF 5
ENDMDL
MODEL 4
REMARK VINA RESULT:      -5.4     18.092     20.411
REMARK  Name = 155269222
REMARK  5 active torsions:
REMARK  status: ('A' for Active; 'I' for Inactive)
REMARK    1  A    between atoms: O_5  and  N_8
REMARK    2  A    between atoms: O_5  and  C_21
REMARK    3  A    between atoms: C_9  and  C_14
REMARK    4  A    between atoms: C_10  and  C_12
REMARK    5  A    between atoms: C_20  and  C_21
REMARK                            x       y       z     vdW  Elec       q    Type
REMARK                         _______ _______ _______ _____ _____    ______ ____
ROOT
ATOM      1  S   UNL     1       0.107  -0.741 -51.913  0.00  0.00    +0.000 S 
ATOM      2  N   UNL     1      -1.721   1.021 -51.461  0.00  0.00    +0.000 N 
ATOM      3  N   UNL     1      -2.639  -0.772 -52.437  0.00  0.00    +0.000 NA
ATOM      4  C   UNL     1      -3.065   1.319 -51.547  0.00  0.00    +0.000 A 
ATOM      5  C   UNL     1      -3.601   0.190 -52.185  0.00  0.00    +0.000 A 
ATOM      6  C   UNL     1      -1.546  -0.220 -52.004  0.00  0.00    +0.000 A 
ATOM      7  C   UNL     1      -0.567   1.581 -50.948  0.00  0.00    +0.000 A 
ATOM      8  C   UNL     1       0.503   0.785 -51.120  0.00  0.00    +0.000 A 
ENDROOT
BRANCH   5  10
ATOM      9 CL   UNL     1      -8.109  -2.001 -50.957  0.00  0.00    +0.000 Cl
ATOM     10  C   UNL     1      -4.993  -0.043 -52.544  0.00  0.00    +0.000 A 
ATOM     11  C   UNL     1      -5.799  -0.803 -51.684  0.00  0.00    +0.000 A 
ATOM     12  C   UNL     1      -5.538   0.428 -53.748  0.00  0.00    +0.000 A 
ATOM     13  C   UNL     1      -7.130  -1.061 -52.017  0.00  0.00    +0.000 A 
ATOM     14  C   UNL     1      -6.875   0.175 -54.069  0.00  0.00    +0.000 A 
ATOM     15  C   UNL     1      -7.672  -0.568 -53.200  0.00  0.00    +0.000 A 
ENDBRANCH   5  10
BRANCH   4  17
ATOM     16  N   UNL     1      -4.272   3.490 -51.572  0.00  0.00    +0.000 NA
ATOM     17  C   UNL     1      -3.770   2.441 -50.990  0.00  0.00    +0.000 C 
BRANCH  16  18
ATOM     18  O   UNL     1      -4.182   3.456 -52.967  0.00  0.00    +0.000 OA
BRANCH  18  19
ATOM     19  C   UNL     1      -4.922   4.556 -53.510  0.00  0.00    +0.000 C 
BRANCH  19  22
ATOM     20 CL   UNL     1      -2.573   7.734 -56.887  0.00  0.00    +0.000 Cl
ATOM     21 CL   UNL     1      -3.273   5.588 -59.230  0.00  0.00    +0.000 Cl
ATOM     22  C   UNL     1      -4.478   4.814 -54.928  0.00  0.00    +0.000 A 
ATOM     23  C   UNL     1      -3.795   5.996 -55.251  0.00  0.00    +0.000 A 
ATOM     24  C   UNL     1      -4.781   3.901 -55.945  0.00  0.00    +0.000 A 
ATOM     25  C   UNL     1      -3.410   6.257 -56.570  0.00  0.00    +0.000 A 
ATOM     26  C   UNL     1      -4.397   4.157 -57.262  0.00  0.00    +0.000 A 
ATOM     27  C   UNL     1      -3.711   5.335 -57.578  0.00  0.00    +0.000 A 
ENDBRANCH  19  22
ENDBRANCH  18  19
ENDBRANCH  16  18
ENDBRANCH   4  17
TORSDOF 5
ENDMDL
MODEL 5
REMARK VINA RESULT:      -5.3      2.987      7.432
REMARK  Name = 155269222
REMARK  5 active torsions:
REMARK  status: ('A' for Active; 'I' for Inactive)
REMARK    1  A    between atoms: O_5  and  N_8
REMARK    2  A    between atoms: O_5  and  C_21
REMARK    3  A    between atoms: C_9  and  C_14
REMARK    4  A    between atoms: C_10  and  C_12
REMARK    5  A    between atoms: C_20  and  C_21
REMARK                            x       y       z     vdW  Elec       q    Type
REMARK                         _______ _______ _______ _____ _____    ______ ____
ROOT
ATOM      1  S   UNL     1      -8.341   0.982 -31.362  0.00  0.00    +0.000 S 
ATOM      2  N   UNL     1      -7.690   1.011 -33.858  0.00  0.00    +0.000 N 
ATOM      3  N   UNL     1      -7.978   3.111 -33.138  0.00  0.00    +0.000 NA
ATOM      4  C   UNL     1      -7.413   1.799 -34.955  0.00  0.00    +0.000 A 
ATOM      5  C   UNL     1      -7.630   3.099 -34.476  0.00  0.00    +0.000 A 
ATOM      6  C   UNL     1      -8.015   1.849 -32.830  0.00  0.00    +0.000 A 
ATOM      7  C   UNL     1      -7.673  -0.327 -33.511  0.00  0.00    +0.000 A 
ATOM      8  C   UNL     1      -8.011  -0.522 -32.225  0.00  0.00    +0.000 A 
ENDROOT
BRANCH   5  10
ATOM      9 CL   UNL     1      -4.576   6.214 -37.235  0.00  0.00    +0.000 Cl
ATOM     10  C   UNL     1      -7.491   4.346 -35.216  0.00  0.00    +0.000 A 
ATOM     11  C   UNL     1      -6.260   4.649 -35.815  0.00  0.00    +0.000 A 
ATOM     12  C   UNL     1      -8.538   5.276 -35.305  0.00  0.00    +0.000 A 
ATOM     13  C   UNL     1      -6.094   5.849 -36.509  0.00  0.00    +0.000 A 
ATOM     14  C   UNL     1      -8.368   6.471 -36.011  0.00  0.00    +0.000 A 
ATOM     15  C   UNL     1      -7.145   6.755 -36.617  0.00  0.00    +0.000 A 
ENDBRANCH   5  10
BRANCH   4  17
ATOM     16  N   UNL     1      -5.671   1.113 -36.588  0.00  0.00    +0.000 NA
ATOM     17  C   UNL     1      -6.888   1.399 -36.233  0.00  0.00    +0.000 C 
BRANCH  16  18
ATOM     18  O   UNL     1      -4.761   1.108 -35.526  0.00  0.00    +0.000 OA
BRANCH  18  19
ATOM     19  C   UNL     1      -4.237  -0.215 -35.364  0.00  0.00    +0.000 C 
BRANCH  19  22
ATOM     20 CL   UNL     1      -0.842  -2.666 -32.284  0.00  0.00    +0.000 Cl
ATOM     21 CL   UNL     1      -1.877  -0.794 -29.833  0.00  0.00    +0.000 Cl
ATOM     22  C   UNL     1      -3.618  -0.351 -33.997  0.00  0.00    +0.000 A 
ATOM     23  C   UNL     1      -2.621  -1.310 -33.765  0.00  0.00    +0.000 A 
ATOM     24  C   UNL     1      -4.062   0.444 -32.933  0.00  0.00    +0.000 A 
ATOM     25  C   UNL     1      -2.066  -1.465 -32.490  0.00  0.00    +0.000 A 
ATOM     26  C   UNL     1      -3.510   0.294 -31.661  0.00  0.00    +0.000 A 
ATOM     27  C   UNL     1      -2.511  -0.660 -31.435  0.00  0.00    +0.000 A 
ENDBRANCH  19  22
ENDBRANCH  18  19
ENDBRANCH  16  18
ENDBRANCH   4  17
TORSDOF 5
ENDMDL
MODEL 6
REMARK VINA RESULT:      -5.3     18.708     21.075
REMARK  Name = 155269222
REMARK  5 active torsions:
REMARK  status: ('A' for Active; 'I' for Inactive)
REMARK    1  A    between atoms: O_5  and  N_8
REMARK    2  A    between atoms: O_5  and  C_21
REMARK    3  A    between atoms: C_9  and  C_14
REMARK    4  A    between atoms: C_10  and  C_12
REMARK    5  A    between atoms: C_20  and  C_21
REMARK                            x       y       z     vdW  Elec       q    Type
REMARK                         _______ _______ _______ _____ _____    ______ ____
ROOT
ATOM      1  S   UNL     1      -7.070  -4.592 -50.148  0.00  0.00    +0.000 S 
ATOM      2  N   UNL     1      -7.610  -2.808 -51.931  0.00  0.00    +0.000 N 
ATOM      3  N   UNL     1      -6.377  -4.433 -52.852  0.00  0.00    +0.000 NA
ATOM      4  C   UNL     1      -7.477  -2.440 -53.254  0.00  0.00    +0.000 A 
ATOM      5  C   UNL     1      -6.679  -3.462 -53.789  0.00  0.00    +0.000 A 
ATOM      6  C   UNL     1      -6.938  -3.986 -51.770  0.00  0.00    +0.000 A 
ATOM      7  C   UNL     1      -8.255  -2.365 -50.792  0.00  0.00    +0.000 A 
ATOM      8  C   UNL     1      -8.059  -3.186 -49.746  0.00  0.00    +0.000 A 
ENDROOT
BRANCH   5  10
ATOM      9 CL   UNL     1      -3.099  -2.243 -57.301  0.00  0.00    +0.000 Cl
ATOM     10  C   UNL     1      -6.211  -3.587 -55.163  0.00  0.00    +0.000 A 
ATOM     11  C   UNL     1      -5.019  -2.950 -55.536  0.00  0.00    +0.000 A 
ATOM     12  C   UNL     1      -6.943  -4.283 -56.136  0.00  0.00    +0.000 A 
ATOM     13  C   UNL     1      -4.561  -3.034 -56.853  0.00  0.00    +0.000 A 
ATOM     14  C   UNL     1      -6.473  -4.372 -57.450  0.00  0.00    +0.000 A 
ATOM     15  C   UNL     1      -5.278  -3.750 -57.807  0.00  0.00    +0.000 A 
ENDBRANCH   5  10
BRANCH   4  17
ATOM     16  N   UNL     1      -7.766  -0.109 -54.064  0.00  0.00    +0.000 NA
ATOM     17  C   UNL     1      -8.116  -1.356 -53.950  0.00  0.00    +0.000 C 
BRANCH  16  18
ATOM     18  O   UNL     1      -6.522   0.180 -53.492  0.00  0.00    +0.000 OA
BRANCH  18  19
ATOM     19  C   UNL     1      -5.568   0.404 -54.537  0.00  0.00    +0.000 C 
BRANCH  19  22
ATOM     20 CL   UNL     1      -3.289   4.284 -57.139  0.00  0.00    +0.000 Cl
ATOM     21 CL   UNL     1      -4.140   6.272 -54.709  0.00  0.00    +0.000 Cl
ATOM     22  C   UNL     1      -5.230   1.872 -54.608  0.00  0.00    +0.000 A 
ATOM     23  C   UNL     1      -4.515   2.380 -55.702  0.00  0.00    +0.000 A 
ATOM     24  C   UNL     1      -5.585   2.734 -53.563  0.00  0.00    +0.000 A 
ATOM     25  C   UNL     1      -4.169   3.734 -55.758  0.00  0.00    +0.000 A 
ATOM     26  C   UNL     1      -5.243   4.086 -53.617  0.00  0.00    +0.000 A 
ATOM     27  C   UNL     1      -4.535   4.589 -54.713  0.00  0.00    +0.000 A 
ENDBRANCH  19  22
ENDBRANCH  18  19
ENDBRANCH  16  18
ENDBRANCH   4  17
TORSDOF 5
ENDMDL
MODEL 7
REMARK VINA RESULT:      -5.2     24.123     27.418
REMARK  Name = 155269222
REMARK  5 active torsions:
REMARK  status: ('A' for Active; 'I' for Inactive)
REMARK    1  A    between atoms: O_5  and  N_8
REMARK    2  A    between atoms: O_5  and  C_21
REMARK    3  A    between atoms: C_9  and  C_14
REMARK    4  A    between atoms: C_10  and  C_12
REMARK    5  A    between atoms: C_20  and  C_21
REMARK                            x       y       z     vdW  Elec       q    Type
REMARK                         _______ _______ _______ _____ _____    ______ ____
ROOT
ATOM      1  S   UNL     1     -17.458  14.108 -59.931  0.00  0.00    +0.000 S 
ATOM      2  N   UNL     1     -16.099  11.919 -59.802  0.00  0.00    +0.000 N 
ATOM      3  N   UNL     1     -15.009  13.399 -61.079  0.00  0.00    +0.000 NA
ATOM      4  C   UNL     1     -14.941  11.271 -60.178  0.00  0.00    +0.000 A 
ATOM      5  C   UNL     1     -14.301  12.214 -60.995  0.00  0.00    +0.000 A 
ATOM      6  C   UNL     1     -16.071  13.161 -60.369  0.00  0.00    +0.000 A 
ATOM      7  C   UNL     1     -17.201  11.691 -58.999  0.00  0.00    +0.000 A 
ATOM      8  C   UNL     1     -18.035  12.745 -58.969  0.00  0.00    +0.000 A 
ENDROOT
BRANCH   5  10
ATOM      9 CL   UNL     1     -11.816  11.303 -65.426  0.00  0.00    +0.000 Cl
ATOM     10  C   UNL     1     -13.025  12.064 -61.682  0.00  0.00    +0.000 A 
ATOM     11  C   UNL     1     -13.019  11.802 -63.059  0.00  0.00    +0.000 A 
ATOM     12  C   UNL     1     -11.802  12.123 -60.996  0.00  0.00    +0.000 A 
ATOM     13  C   UNL     1     -11.810  11.630 -63.736  0.00  0.00    +0.000 A 
ATOM     14  C   UNL     1     -10.595  11.960 -61.682  0.00  0.00    +0.000 A 
ATOM     15  C   UNL     1     -10.600  11.717 -63.055  0.00  0.00    +0.000 A 
ENDBRANCH   5  10
BRANCH   4  17
ATOM     16  N   UNL     1     -13.624   9.718 -58.757  0.00  0.00    +0.000 NA
ATOM     17  C   UNL     1     -14.441  10.001 -59.728  0.00  0.00    +0.000 C 
BRANCH  16  18
ATOM     18  O   UNL     1     -13.261  10.826 -57.985  0.00  0.00    +0.000 OA
BRANCH  18  19
ATOM     19  C   UNL     1     -11.832  10.886 -57.895  0.00  0.00    +0.000 C 
BRANCH  19  22
ATOM     20 CL   UNL     1      -8.564  14.037 -55.365  0.00  0.00    +0.000 Cl
ATOM     21 CL   UNL     1     -10.211  13.381 -52.638  0.00  0.00    +0.000 Cl
ATOM     22  C   UNL     1     -11.434  11.539 -56.597  0.00  0.00    +0.000 A 
ATOM     23  C   UNL     1     -10.329  12.402 -56.550  0.00  0.00    +0.000 A 
ATOM     24  C   UNL     1     -12.131  11.257 -55.416  0.00  0.00    +0.000 A 
ATOM     25  C   UNL     1      -9.933  12.986 -55.341  0.00  0.00    +0.000 A 
ATOM     26  C   UNL     1     -11.741  11.839 -54.209  0.00  0.00    +0.000 A 
ATOM     27  C   UNL     1     -10.641  12.703 -54.168  0.00  0.00    +0.000 A 
ENDBRANCH  19  22
ENDBRANCH  18  19
ENDBRANCH  16  18
ENDBRANCH   4  17
TORSDOF 5
ENDMDL
MODEL 8
REMARK VINA RESULT:      -5.2     16.515     18.590
REMARK  Name = 155269222
REMARK  5 active torsions:
REMARK  status: ('A' for Active; 'I' for Inactive)
REMARK    1  A    between atoms: O_5  and  N_8
REMARK    2  A    between atoms: O_5  and  C_21
REMARK    3  A    between atoms: C_9  and  C_14
REMARK    4  A    between atoms: C_10  and  C_12
REMARK    5  A    between atoms: C_20  and  C_21
REMARK                            x       y       z     vdW  Elec       q    Type
REMARK                         _______ _______ _______ _____ _____    ______ ____
ROOT
ATOM      1  S   UNL     1      -5.600  -5.211 -54.209  0.00  0.00    +0.000 S 
ATOM      2  N   UNL     1      -6.899  -3.547 -52.726  0.00  0.00    +0.000 N 
ATOM      3  N   UNL     1      -6.181  -5.258 -51.474  0.00  0.00    +0.000 NA
ATOM      4  C   UNL     1      -7.325  -3.249 -51.448  0.00  0.00    +0.000 A 
ATOM      5  C   UNL     1      -6.884  -4.351 -50.701  0.00  0.00    +0.000 A 
ATOM      6  C   UNL     1      -6.238  -4.740 -52.664  0.00  0.00    +0.000 A 
ATOM      7  C   UNL     1      -6.906  -2.970 -53.982  0.00  0.00    +0.000 A 
ATOM      8  C   UNL     1      -6.274  -3.730 -54.893  0.00  0.00    +0.000 A 
ENDROOT
BRANCH   5  10
ATOM      9 CL   UNL     1      -4.698  -4.780 -46.046  0.00  0.00    +0.000 Cl
ATOM     10  C   UNL     1      -7.064  -4.578 -49.273  0.00  0.00    +0.000 A 
ATOM     11  C   UNL     1      -5.941  -4.560 -48.434  0.00  0.00    +0.000 A 
ATOM     12  C   UNL     1      -8.322  -4.865 -48.721  0.00  0.00    +0.000 A 
ATOM     13  C   UNL     1      -6.084  -4.798 -47.066  0.00  0.00    +0.000 A 
ATOM     14  C   UNL     1      -8.459  -5.092 -47.348  0.00  0.00    +0.000 A 
ATOM     15  C   UNL     1      -7.338  -5.055 -46.520  0.00  0.00    +0.000 A 
ENDBRANCH   5  10
BRANCH   4  17
ATOM     16  N   UNL     1      -7.407  -0.905 -50.631  0.00  0.00    +0.000 NA
ATOM     17  C   UNL     1      -7.941  -2.041 -50.969  0.00  0.00    +0.000 C 
BRANCH  16  18
ATOM     18  O   UNL     1      -6.030  -0.838 -50.865  0.00  0.00    +0.000 OA
BRANCH  18  19
ATOM     19  C   UNL     1      -5.623   0.535 -50.874  0.00  0.00    +0.000 C 
BRANCH  19  22
ATOM     20 CL   UNL     1      -5.389   4.391 -54.352  0.00  0.00    +0.000 Cl
ATOM     21 CL   UNL     1      -4.536   2.183 -56.584  0.00  0.00    +0.000 Cl
ATOM     22  C   UNL     1      -5.326   0.966 -52.288  0.00  0.00    +0.000 A 
ATOM     23  C   UNL     1      -5.454   2.313 -52.658  0.00  0.00    +0.000 A 
ATOM     24  C   UNL     1      -4.966   0.023 -53.258  0.00  0.00    +0.000 A 
ATOM     25  C   UNL     1      -5.213   2.715 -53.976  0.00  0.00    +0.000 A 
ATOM     26  C   UNL     1      -4.723   0.420 -54.573  0.00  0.00    +0.000 A 
ATOM     27  C   UNL     1      -4.846   1.766 -54.936  0.00  0.00    +0.000 A 
ENDBRANCH  19  22
ENDBRANCH  18  19
ENDBRANCH  16  18
ENDBRANCH   4  17
TORSDOF 5
ENDMDL
MODEL 9
REMARK VINA RESULT:      -5.1     24.735     27.176
REMARK  Name = 155269222
REMARK  5 active torsions:
REMARK  status: ('A' for Active; 'I' for Inactive)
REMARK    1  A    between atoms: O_5  and  N_8
REMARK    2  A    between atoms: O_5  and  C_21
REMARK    3  A    between atoms: C_9  and  C_14
REMARK    4  A    between atoms: C_10  and  C_12
REMARK    5  A    between atoms: C_20  and  C_21
REMARK                            x       y       z     vdW  Elec       q    Type
REMARK                         _______ _______ _______ _____ _____    ______ ____
ROOT
ATOM      1  S   UNL     1     -24.215   6.347 -58.874  0.00  0.00    +0.000 S 
ATOM      2  N   UNL     1     -21.670   6.654 -58.586  0.00  0.00    +0.000 N 
ATOM      3  N   UNL     1     -22.647   8.660 -58.767  0.00  0.00    +0.000 NA
ATOM      4  C   UNL     1     -20.636   7.559 -58.468  0.00  0.00    +0.000 A 
ATOM      5  C   UNL     1     -21.280   8.797 -58.613  0.00  0.00    +0.000 A 
ATOM      6  C   UNL     1     -22.819   7.372 -58.761  0.00  0.00    +0.000 A 
ATOM      7  C   UNL     1     -21.864   5.287 -58.520  0.00  0.00    +0.000 A 
ATOM      8  C   UNL     1     -23.156   4.949 -58.672  0.00  0.00    +0.000 A 
ENDROOT
BRANCH   5  10
ATOM      9 CL   UNL     1     -19.923  12.905 -55.799  0.00  0.00    +0.000 Cl
ATOM     10  C   UNL     1     -20.667  10.119 -58.581  0.00  0.00    +0.000 A 
ATOM     11  C   UNL     1     -20.580  10.799 -57.358  0.00  0.00    +0.000 A 
ATOM     12  C   UNL     1     -20.208  10.752 -59.746  0.00  0.00    +0.000 A 
ATOM     13  C   UNL     1     -20.019  12.077 -57.305  0.00  0.00    +0.000 A 
ATOM     14  C   UNL     1     -19.638  12.027 -59.683  0.00  0.00    +0.000 A 
ATOM     15  C   UNL     1     -19.541  12.688 -58.460  0.00  0.00    +0.000 A 
ENDBRANCH   5  10
BRANCH   4  17
ATOM     16  N   UNL     1     -18.735   6.861 -57.029  0.00  0.00    +0.000 NA
ATOM     17  C   UNL     1     -19.261   7.308 -58.131  0.00  0.00    +0.000 C 
BRANCH  16  18
ATOM     18  O   UNL     1     -19.679   6.485 -56.068  0.00  0.00    +0.000 OA
BRANCH  18  19
ATOM     19  C   UNL     1     -20.109   7.650 -55.354  0.00  0.00    +0.000 C 
BRANCH  19  22
ATOM     20 CL   UNL     1     -24.490   4.862 -55.125  0.00  0.00    +0.000 Cl
ATOM     21 CL   UNL     1     -25.332   6.598 -52.505  0.00  0.00    +0.000 Cl
ATOM     22  C   UNL     1     -21.402   7.356 -54.637  0.00  0.00    +0.000 A 
ATOM     23  C   UNL     1     -22.266   6.360 -55.116  0.00  0.00    +0.000 A 
ATOM     24  C   UNL     1     -21.777   8.103 -53.513  0.00  0.00    +0.000 A 
ATOM     25  C   UNL     1     -23.483   6.105 -54.475  0.00  0.00    +0.000 A 
ATOM     26  C   UNL     1     -22.989   7.850 -52.870  0.00  0.00    +0.000 A 
ATOM     27  C   UNL     1     -23.845   6.851 -53.348  0.00  0.00    +0.000 A 
ENDBRANCH  19  22
ENDBRANCH  18  19
ENDBRANCH  16  18
ENDBRANCH   4  17
TORSDOF 5
ENDMDL
MODEL 10
REMARK VINA RESULT:      -5.1     18.250     20.053
REMARK  Name = 155269222
REMARK  5 active torsions:
REMARK  status: ('A' for Active; 'I' for Inactive)
REMARK    1  A    between atoms: O_5  and  N_8
REMARK    2  A    between atoms: O_5  and  C_21
REMARK    3  A    between atoms: C_9  and  C_14
REMARK    4  A    between atoms: C_10  and  C_12
REMARK    5  A    between atoms: C_20  and  C_21
REMARK                            x       y       z     vdW  Elec       q    Type
REMARK                         _______ _______ _______ _____ _____    ______ ____
ROOT
ATOM      1  S   UNL     1     -19.827  15.423 -49.629  0.00  0.00    +0.000 S 
ATOM      2  N   UNL     1     -19.056  15.316 -47.169  0.00  0.00    +0.000 N 
ATOM      3  N   UNL     1     -17.271  15.550 -48.501  0.00  0.00    +0.000 NA
ATOM      4  C   UNL     1     -17.980  15.370 -46.308  0.00  0.00    +0.000 A 
ATOM      5  C   UNL     1     -16.884  15.489 -47.174  0.00  0.00    +0.000 A 
ATOM      6  C   UNL     1     -18.563  15.426 -48.438  0.00  0.00    +0.000 A 
ATOM      7  C   UNL     1     -20.434  15.244 -47.103  0.00  0.00    +0.000 A 
ATOM      8  C   UNL     1     -21.003  15.270 -48.321  0.00  0.00    +0.000 A 
ENDROOT
BRANCH   5  10
ATOM      9 CL   UNL     1     -12.075  16.682 -48.620  0.00  0.00    +0.000 Cl
ATOM     10  C   UNL     1     -15.476  15.581 -46.809  0.00  0.00    +0.000 A 
ATOM     11  C   UNL     1     -14.555  16.043 -47.760  0.00  0.00    +0.000 A 
ATOM     12  C   UNL     1     -15.008  15.174 -45.551  0.00  0.00    +0.000 A 
ATOM     13  C   UNL     1     -13.198  16.119 -47.442  0.00  0.00    +0.000 A 
ATOM     14  C   UNL     1     -13.649  15.261 -45.236  0.00  0.00    +0.000 A 
ATOM     15  C   UNL     1     -12.744  15.738 -46.183  0.00  0.00    +0.000 A 
ENDBRANCH   5  10
BRANCH   4  17
ATOM     16  N   UNL     1     -17.860  16.461 -44.079  0.00  0.00    +0.000 NA
ATOM     17  C   UNL     1     -17.987  15.438 -44.871  0.00  0.00    +0.000 C 
BRANCH  16  18
ATOM     18  O   UNL     1     -17.802  17.687 -44.748  0.00  0.00    +0.000 OA
BRANCH  18  19
ATOM     19  C   UNL     1     -17.323  18.691 -43.845  0.00  0.00    +0.000 C 
BRANCH  19  22
ATOM     20 CL   UNL     1     -12.793  19.499 -46.263  0.00  0.00    +0.000 Cl
ATOM     21 CL   UNL     1     -11.295  18.371 -43.604  0.00  0.00    +0.000 Cl
ATOM     22  C   UNL     1     -15.817  18.644 -43.789  0.00  0.00    +0.000 A 
ATOM     23  C   UNL     1     -15.056  19.051 -44.895  0.00  0.00    +0.000 A 
ATOM     24  C   UNL     1     -15.163  18.153 -42.653  0.00  0.00    +0.000 A 
ATOM     25  C   UNL     1     -13.659  18.979 -44.862  0.00  0.00    +0.000 A 
ATOM     26  C   UNL     1     -13.770  18.082 -42.615  0.00  0.00    +0.000 A 
ATOM     27  C   UNL     1     -13.015  18.494 -43.719  0.00  0.00    +0.000 A 
ENDBRANCH  19  22
ENDBRANCH  18  19
ENDBRANCH  16  18
ENDBRANCH   4  17
TORSDOF 5
ENDMDL
