REMARK  Name = 155269226
REMARK  6 active torsions:
REMARK  status: ('A' for Active; 'I' for Inactive)
REMARK    1  A    between atoms: O_4  and  N_7
REMARK    2  A    between atoms: O_4  and  C_23
REMARK    3  A    between atoms: C_8  and  C_10
REMARK    4  A    between atoms: C_9  and  C_18
REMARK    5  A    between atoms: C_12  and  C_19
REMARK    6  A    between atoms: C_23  and  C_24
REMARK                            x       y       z     vdW  Elec       q    Type
REMARK                         _______ _______ _______ _____ _____    ______ ____
ROOT
ATOM      1  S   UNL     1      -8.701  -2.435  -4.353  0.00  0.00    +0.000 S 
ATOM      2  N   UNL     1      -6.610  -0.985  -3.995  0.00  0.00    +0.000 N 
ATOM      3  N   UNL     1      -8.278  -0.150  -2.768  0.00  0.00    +0.000 NA
ATOM      4  C   UNL     1      -7.121   0.605  -2.587  0.00  0.00    +0.000 A 
ATOM      5  C   UNL     1      -6.060   0.099  -3.358  0.00  0.00    +0.000 A 
ATOM      6  C   UNL     1      -7.918  -1.068  -3.619  0.00  0.00    +0.000 A 
ATOM      7  C   UNL     1      -6.188  -1.987  -4.841  0.00  0.00    +0.000 A 
ATOM      8  C   UNL     1      -7.174  -2.837  -5.155  0.00  0.00    +0.000 A 
ENDROOT
BRANCH   4   9
ATOM      9  C   UNL     1      -7.104   1.745  -1.664  0.00  0.00    +0.000 A 
ATOM     10  C   UNL     1      -7.054   3.876   0.260  0.00  0.00    +0.000 A 
ATOM     11  C   UNL     1      -8.235   2.062  -0.895  0.00  0.00    +0.000 A 
ATOM     12  C   UNL     1      -5.977   2.543  -1.490  0.00  0.00    +0.000 A 
ATOM     13  C   UNL     1      -8.218   3.119   0.040  0.00  0.00    +0.000 A 
ATOM     14  C   UNL     1      -5.938   3.548  -0.525  0.00  0.00    +0.000 A 
BRANCH  10  15
ATOM     15  C   UNL     1      -6.950   4.973   1.253  0.00  0.00    +0.000 A 
ATOM     16  C   UNL     1      -7.696   4.990   2.441  0.00  0.00    +0.000 A 
ATOM     17  C   UNL     1      -6.036   6.033   1.060  0.00  0.00    +0.000 A 
ATOM     18  C   UNL     1      -7.516   6.001   3.397  0.00  0.00    +0.000 A 
ATOM     19  C   UNL     1      -5.838   7.027   2.018  0.00  0.00    +0.000 A 
ATOM     20  C   UNL     1      -6.579   7.010   3.190  0.00  0.00    +0.000 A 
ENDBRANCH  10  15
ENDBRANCH   4   9
BRANCH   5  22
ATOM     21  N   UNL     1      -3.957   0.563  -4.541  0.00  0.00    +0.000 NA
ATOM     22  C   UNL     1      -4.672   0.460  -3.458  0.00  0.00    +0.000 C 
BRANCH  21  23
ATOM     23  O   UNL     1      -4.733   0.411  -5.697  0.00  0.00    +0.000 OA
BRANCH  23  24
ATOM     24  C   UNL     1      -3.880   0.190  -6.821  0.00  0.00    +0.000 C 
BRANCH  24  27
ATOM     25 CL   UNL     1      -5.439  -1.778 -11.391  0.00  0.00    +0.000 Cl
ATOM     26 CL   UNL     1      -7.170   0.942 -11.830  0.00  0.00    +0.000 Cl
ATOM     27  C   UNL     1      -4.719   0.323  -8.067  0.00  0.00    +0.000 A 
ATOM     28  C   UNL     1      -4.727  -0.674  -9.052  0.00  0.00    +0.000 A 
ATOM     29  C   UNL     1      -5.490   1.480  -8.258  0.00  0.00    +0.000 A 
ATOM     30  C   UNL     1      -5.482  -0.508 -10.220  0.00  0.00    +0.000 A 
ATOM     31  C   UNL     1      -6.244   1.647  -9.418  0.00  0.00    +0.000 A 
ATOM     32  C   UNL     1      -6.238   0.658 -10.406  0.00  0.00    +0.000 A 
ENDBRANCH  24  27
ENDBRANCH  23  24
ENDBRANCH  21  23
ENDBRANCH   5  22
TORSDOF 6
