REMARK  Name = 155269217
REMARK  5 active torsions:
REMARK  status: ('A' for Active; 'I' for Inactive)
REMARK    1  A    between atoms: O_5  and  N_8
REMARK    2  A    between atoms: O_5  and  C_21
REMARK    3  A    between atoms: C_9  and  C_14
REMARK    4  A    between atoms: C_10  and  C_12
REMARK    5  A    between atoms: C_20  and  C_21
REMARK                            x       y       z     vdW  Elec       q    Type
REMARK                         _______ _______ _______ _____ _____    ______ ____
ROOT
ATOM      1  S   UNL     1       8.067  -0.864  -1.307  0.00  0.00    +0.000 S 
ATOM      2  N   UNL     1       6.723   0.246   0.602  0.00  0.00    +0.000 N 
ATOM      3  N   UNL     1       5.319  -0.585  -0.934  0.00  0.00    +0.000 NA
ATOM      4  C   UNL     1       5.458   0.523   1.091  0.00  0.00    +0.000 A 
ATOM      5  C   UNL     1       4.615   0.013   0.089  0.00  0.00    +0.000 A 
ATOM      6  C   UNL     1       6.556  -0.406  -0.587  0.00  0.00    +0.000 A 
ATOM      7  C   UNL     1       8.050   0.386   0.975  0.00  0.00    +0.000 A 
ATOM      8  C   UNL     1       8.892  -0.139   0.071  0.00  0.00    +0.000 A 
ENDROOT
BRANCH   5  10
ATOM      9 BR   UNL     1      -1.531   0.023  -0.075  0.00  0.00    +0.000 Br
ATOM     10  C   UNL     1       3.158   0.038   0.066  0.00  0.00    +0.000 A 
ATOM     11  C   UNL     1       2.467  -1.032  -0.523  0.00  0.00    +0.000 A 
ATOM     12  C   UNL     1       2.426   1.117   0.579  0.00  0.00    +0.000 A 
ATOM     13  C   UNL     1       1.068  -1.038  -0.564  0.00  0.00    +0.000 A 
ATOM     14  C   UNL     1       1.028   1.106   0.548  0.00  0.00    +0.000 A 
ATOM     15  C   UNL     1       0.358   0.029  -0.020  0.00  0.00    +0.000 A 
ENDBRANCH   5  10
BRANCH   4  17
ATOM     16  N   UNL     1       5.635   1.977   3.107  0.00  0.00    +0.000 NA
ATOM     17  C   UNL     1       5.059   1.083   2.360  0.00  0.00    +0.000 C 
BRANCH  16  18
ATOM     18  O   UNL     1       6.769   2.518   2.514  0.00  0.00    +0.000 OA
BRANCH  18  19
ATOM     19  C   UNL     1       7.377   3.457   3.404  0.00  0.00    +0.000 C 
BRANCH  19  22
ATOM     20 CL   UNL     1      11.394   6.733   3.189  0.00  0.00    +0.000 Cl
ATOM     21 CL   UNL     1      10.523   7.459   0.139  0.00  0.00    +0.000 Cl
ATOM     22  C   UNL     1       8.171   4.448   2.588  0.00  0.00    +0.000 A 
ATOM     23  C   UNL     1       9.288   5.076   3.152  0.00  0.00    +0.000 A 
ATOM     24  C   UNL     1       7.787   4.795   1.283  0.00  0.00    +0.000 A 
ATOM     25  C   UNL     1      10.027   6.010   2.417  0.00  0.00    +0.000 A 
ATOM     26  C   UNL     1       8.528   5.717   0.544  0.00  0.00    +0.000 A 
ATOM     27  C   UNL     1       9.651   6.325   1.107  0.00  0.00    +0.000 A 
ENDBRANCH  19  22
ENDBRANCH  18  19
ENDBRANCH  16  18
ENDBRANCH   4  17
TORSDOF 5
