REMARK  Name = 155269218
REMARK  5 active torsions:
REMARK  status: ('A' for Active; 'I' for Inactive)
REMARK    1  A    between atoms: O_5  and  N_8
REMARK    2  A    between atoms: O_5  and  C_21
REMARK    3  A    between atoms: C_9  and  C_14
REMARK    4  A    between atoms: C_10  and  C_12
REMARK    5  A    between atoms: C_20  and  C_21
REMARK                            x       y       z     vdW  Elec       q    Type
REMARK                         _______ _______ _______ _____ _____    ______ ____
ROOT
ATOM      1  S   UNL     1      -8.690  -2.411  -4.303  0.00  0.00    +0.000 S 
ATOM      2  N   UNL     1      -6.611  -0.942  -3.968  0.00  0.00    +0.000 N 
ATOM      3  N   UNL     1      -8.269  -0.141  -2.708  0.00  0.00    +0.000 NA
ATOM      4  C   UNL     1      -6.072   0.165  -3.349  0.00  0.00    +0.000 A 
ATOM      5  C   UNL     1      -7.130   0.637  -2.562  0.00  0.00    +0.000 A 
ATOM      6  C   UNL     1      -7.909  -1.040  -3.576  0.00  0.00    +0.000 A 
ATOM      7  C   UNL     1      -6.182  -1.945  -4.813  0.00  0.00    +0.000 A 
ATOM      8  C   UNL     1      -7.167  -2.807  -5.112  0.00  0.00    +0.000 A 
ENDROOT
BRANCH   5  10
ATOM      9  F   UNL     1      -6.974   4.894   1.065  0.00  0.00    +0.000 F 
ATOM     10  C   UNL     1      -7.104   1.777  -1.651  0.00  0.00    +0.000 A 
ATOM     11  C   UNL     1      -7.885   1.742  -0.484  0.00  0.00    +0.000 A 
ATOM     12  C   UNL     1      -6.325   2.915  -1.907  0.00  0.00    +0.000 A 
ATOM     13  C   UNL     1      -7.848   2.797   0.432  0.00  0.00    +0.000 A 
ATOM     14  C   UNL     1      -6.277   3.965  -0.985  0.00  0.00    +0.000 A 
ATOM     15  C   UNL     1      -7.031   3.891   0.179  0.00  0.00    +0.000 A 
ENDBRANCH   5  10
BRANCH   4  17
ATOM     16  N   UNL     1      -3.979   0.681  -4.520  0.00  0.00    +0.000 NA
ATOM     17  C   UNL     1      -4.711   0.612  -3.446  0.00  0.00    +0.000 C 
BRANCH  16  18
ATOM     18  O   UNL     1      -4.726   0.412  -5.673  0.00  0.00    +0.000 OA
BRANCH  18  19
ATOM     19  C   UNL     1      -3.857   0.209  -6.787  0.00  0.00    +0.000 C 
BRANCH  19  22
ATOM     20 CL   UNL     1      -5.401  -1.788 -11.352  0.00  0.00    +0.000 Cl
ATOM     21 CL   UNL     1      -7.131   0.928 -11.818  0.00  0.00    +0.000 Cl
ATOM     22  C   UNL     1      -4.687   0.337  -8.040  0.00  0.00    +0.000 A 
ATOM     23  C   UNL     1      -4.695  -0.666  -9.019  0.00  0.00    +0.000 A 
ATOM     24  C   UNL     1      -5.454   1.493  -8.246  0.00  0.00    +0.000 A 
ATOM     25  C   UNL     1      -5.448  -0.509 -10.190  0.00  0.00    +0.000 A 
ATOM     26  C   UNL     1      -6.207   1.650  -9.411  0.00  0.00    +0.000 A 
ATOM     27  C   UNL     1      -6.200   0.654 -10.389  0.00  0.00    +0.000 A 
ENDBRANCH  19  22
ENDBRANCH  18  19
ENDBRANCH  16  18
ENDBRANCH   4  17
TORSDOF 5
