REMARK  Name = 155269229
REMARK  5 active torsions:
REMARK  status: ('A' for Active; 'I' for Inactive)
REMARK    1  A    between atoms: O_4  and  N_7
REMARK    2  A    between atoms: O_4  and  C_24
REMARK    3  A    between atoms: C_8  and  C_9
REMARK    4  A    between atoms: C_10  and  C_20
REMARK    5  A    between atoms: C_24  and  C_25
REMARK                            x       y       z     vdW  Elec       q    Type
REMARK                         _______ _______ _______ _____ _____    ______ ____
ROOT
ATOM      1  S   UNL     1      -8.666  -2.454  -4.360  0.00  0.00    +0.000 S 
ATOM      2  N   UNL     1      -6.591  -0.989  -3.948  0.00  0.00    +0.000 N 
ATOM      3  N   UNL     1      -8.302  -0.168  -2.781  0.00  0.00    +0.000 NA
ATOM      4  C   UNL     1      -7.168   0.605  -2.571  0.00  0.00    +0.000 A 
ATOM      5  C   UNL     1      -6.081   0.120  -3.317  0.00  0.00    +0.000 A 
ATOM      6  C   UNL     1      -7.903  -1.090  -3.606  0.00  0.00    +0.000 A 
ATOM      7  C   UNL     1      -6.143  -1.990  -4.791  0.00  0.00    +0.000 A 
ATOM      8  C   UNL     1      -7.123  -2.842  -5.131  0.00  0.00    +0.000 A 
ENDROOT
BRANCH   4   9
ATOM      9  C   UNL     1      -7.210   1.807  -1.727  0.00  0.00    +0.000 A 
ATOM     10  C   UNL     1      -8.006   1.878  -0.535  0.00  0.00    +0.000 A 
ATOM     11  C   UNL     1      -8.057   3.108   0.176  0.00  0.00    +0.000 A 
ATOM     12  C   UNL     1      -6.508   2.951  -2.154  0.00  0.00    +0.000 A 
ATOM     13  C   UNL     1      -8.771   0.809   0.005  0.00  0.00    +0.000 A 
ATOM     14  C   UNL     1      -7.320   4.212  -0.272  0.00  0.00    +0.000 A 
ATOM     15  C   UNL     1      -6.549   4.135  -1.426  0.00  0.00    +0.000 A 
ATOM     16  C   UNL     1      -8.855   3.240   1.326  0.00  0.00    +0.000 A 
ATOM     17  C   UNL     1      -9.567   0.957   1.147  0.00  0.00    +0.000 A 
ATOM     18  C   UNL     1      -9.613   2.175   1.805  0.00  0.00    +0.000 A 
ENDBRANCH   4   9
BRANCH   5  20
ATOM     19  N   UNL     1      -3.986   0.660  -4.482  0.00  0.00    +0.000 NA
ATOM     20  C   UNL     1      -4.723   0.594  -3.410  0.00  0.00    +0.000 C 
BRANCH  19  21
ATOM     21  O   UNL     1      -4.728   0.379  -5.637  0.00  0.00    +0.000 OA
BRANCH  21  22
ATOM     22  C   UNL     1      -3.861   0.179  -6.754  0.00  0.00    +0.000 C 
BRANCH  22  25
ATOM     23 CL   UNL     1      -5.398  -1.837 -11.318  0.00  0.00    +0.000 Cl
ATOM     24 CL   UNL     1      -7.161   0.859 -11.775  0.00  0.00    +0.000 Cl
ATOM     25  C   UNL     1      -4.696   0.294  -8.005  0.00  0.00    +0.000 A 
ATOM     26  C   UNL     1      -4.694  -0.707  -8.986  0.00  0.00    +0.000 A 
ATOM     27  C   UNL     1      -5.478   1.441  -8.210  0.00  0.00    +0.000 A 
ATOM     28  C   UNL     1      -5.454  -0.560 -10.153  0.00  0.00    +0.000 A 
ATOM     29  C   UNL     1      -6.238   1.589  -9.370  0.00  0.00    +0.000 A 
ATOM     30  C   UNL     1      -6.223   0.595 -10.350  0.00  0.00    +0.000 A 
ENDBRANCH  22  25
ENDBRANCH  21  22
ENDBRANCH  19  21
ENDBRANCH   5  20
TORSDOF 5
