MODEL 1
REMARK VINA RESULT:      -5.8      0.000      0.000
REMARK  Name = 155269217
REMARK  5 active torsions:
REMARK  status: ('A' for Active; 'I' for Inactive)
REMARK    1  A    between atoms: O_5  and  N_8
REMARK    2  A    between atoms: O_5  and  C_21
REMARK    3  A    between atoms: C_9  and  C_14
REMARK    4  A    between atoms: C_10  and  C_12
REMARK    5  A    between atoms: C_20  and  C_21
REMARK                            x       y       z     vdW  Elec       q    Type
REMARK                         _______ _______ _______ _____ _____    ______ ____
ROOT
ATOM      1  S   UNL     1      10.608  15.909  22.001  0.00  0.00    +0.000 S 
ATOM      2  N   UNL     1      10.664  13.547  23.050  0.00  0.00    +0.000 N 
ATOM      3  N   UNL     1      12.406  13.806  21.664  0.00  0.00    +0.000 NA
ATOM      4  C   UNL     1      11.360  12.354  23.129  0.00  0.00    +0.000 A 
ATOM      5  C   UNL     1      12.421  12.549  22.229  0.00  0.00    +0.000 A 
ATOM      6  C   UNL     1      11.341  14.346  22.172  0.00  0.00    +0.000 A 
ATOM      7  C   UNL     1       9.557  14.160  23.615  0.00  0.00    +0.000 A 
ATOM      8  C   UNL     1       9.379  15.411  23.161  0.00  0.00    +0.000 A 
ENDROOT
BRANCH   5  10
ATOM      9 BR   UNL     1      16.853   8.568  20.706  0.00  0.00    +0.000 Br
ATOM     10  C   UNL     1      13.479  11.603  21.894  0.00  0.00    +0.000 A 
ATOM     11  C   UNL     1      13.777  11.363  20.544  0.00  0.00    +0.000 A 
ATOM     12  C   UNL     1      14.180  10.895  22.879  0.00  0.00    +0.000 A 
ATOM     13  C   UNL     1      14.785  10.459  20.189  0.00  0.00    +0.000 A 
ATOM     14  C   UNL     1      15.194  10.000  22.525  0.00  0.00    +0.000 A 
ATOM     15  C   UNL     1      15.492   9.790  21.184  0.00  0.00    +0.000 A 
ENDBRANCH   5  10
BRANCH   4  17
ATOM     16  N   UNL     1      10.756  10.010  23.722  0.00  0.00    +0.000 NA
ATOM     17  C   UNL     1      11.153  11.217  23.994  0.00  0.00    +0.000 C 
BRANCH  16  18
ATOM     18  O   UNL     1      10.598   9.794  22.358  0.00  0.00    +0.000 OA
BRANCH  18  19
ATOM     19  C   UNL     1      10.590   8.390  22.090  0.00  0.00    +0.000 C 
BRANCH  19  22
ATOM     20 CL   UNL     1      11.665   9.128  17.069  0.00  0.00    +0.000 Cl
ATOM     21 CL   UNL     1      14.295   7.250  17.448  0.00  0.00    +0.000 Cl
ATOM     22  C   UNL     1      11.519   8.117  20.932  0.00  0.00    +0.000 A 
ATOM     23  C   UNL     1      11.241   8.664  19.674  0.00  0.00    +0.000 A 
ATOM     24  C   UNL     1      12.639   7.282  21.074  0.00  0.00    +0.000 A 
ATOM     25  C   UNL     1      12.081   8.408  18.584  0.00  0.00    +0.000 A 
ATOM     26  C   UNL     1      13.484   7.034  19.993  0.00  0.00    +0.000 A 
ATOM     27  C   UNL     1      13.210   7.598  18.746  0.00  0.00    +0.000 A 
ENDBRANCH  19  22
ENDBRANCH  18  19
ENDBRANCH  16  18
ENDBRANCH   4  17
TORSDOF 5
ENDMDL
MODEL 2
REMARK VINA RESULT:      -5.4     27.612     29.849
REMARK  Name = 155269217
REMARK  5 active torsions:
REMARK  status: ('A' for Active; 'I' for Inactive)
REMARK    1  A    between atoms: O_5  and  N_8
REMARK    2  A    between atoms: O_5  and  C_21
REMARK    3  A    between atoms: C_9  and  C_14
REMARK    4  A    between atoms: C_10  and  C_12
REMARK    5  A    between atoms: C_20  and  C_21
REMARK                            x       y       z     vdW  Elec       q    Type
REMARK                         _______ _______ _______ _____ _____    ______ ____
ROOT
ATOM      1  S   UNL     1      -3.951 -17.148  13.657  0.00  0.00    +0.000 S 
ATOM      2  N   UNL     1      -2.477 -15.028  13.793  0.00  0.00    +0.000 N 
ATOM      3  N   UNL     1      -4.297 -14.612  12.554  0.00  0.00    +0.000 NA
ATOM      4  C   UNL     1      -2.360 -13.698  13.427  0.00  0.00    +0.000 A 
ATOM      5  C   UNL     1      -3.500 -13.490  12.632  0.00  0.00    +0.000 A 
ATOM      6  C   UNL     1      -3.639 -15.491  13.244  0.00  0.00    +0.000 A 
ATOM      7  C   UNL     1      -1.815 -15.970  14.564  0.00  0.00    +0.000 A 
ATOM      8  C   UNL     1      -2.455 -17.149  14.589  0.00  0.00    +0.000 A 
ENDROOT
BRANCH   5  10
ATOM      9 BR   UNL     1      -5.218  -8.263   9.889  0.00  0.00    +0.000 Br
ATOM     10  C   UNL     1      -3.893 -12.258  11.960  0.00  0.00    +0.000 A 
ATOM     11  C   UNL     1      -4.617 -11.292  12.675  0.00  0.00    +0.000 A 
ATOM     12  C   UNL     1      -3.603 -12.025  10.609  0.00  0.00    +0.000 A 
ATOM     13  C   UNL     1      -5.012 -10.099  12.058  0.00  0.00    +0.000 A 
ATOM     14  C   UNL     1      -3.988 -10.828   9.995  0.00  0.00    +0.000 A 
ATOM     15  C   UNL     1      -4.686  -9.872  10.723  0.00  0.00    +0.000 A 
ENDBRANCH   5  10
BRANCH   4  17
ATOM     16  N   UNL     1      -1.462 -11.783  14.744  0.00  0.00    +0.000 NA
ATOM     17  C   UNL     1      -1.392 -12.708  13.834  0.00  0.00    +0.000 C 
BRANCH  16  18
ATOM     18  O   UNL     1      -2.640 -11.844  15.478  0.00  0.00    +0.000 OA
BRANCH  18  19
ATOM     19  C   UNL     1      -2.889 -10.580  16.097  0.00  0.00    +0.000 C 
BRANCH  19  22
ATOM     20 CL   UNL     1      -7.843  -9.149  16.665  0.00  0.00    +0.000 Cl
ATOM     21 CL   UNL     1      -7.964 -10.962  19.365  0.00  0.00    +0.000 Cl
ATOM     22  C   UNL     1      -4.161 -10.682  16.904  0.00  0.00    +0.000 A 
ATOM     23  C   UNL     1      -5.300  -9.978  16.498  0.00  0.00    +0.000 A 
ATOM     24  C   UNL     1      -4.217 -11.434  18.088  0.00  0.00    +0.000 A 
ATOM     25  C   UNL     1      -6.483 -10.046  17.242  0.00  0.00    +0.000 A 
ATOM     26  C   UNL     1      -5.398 -11.513  18.826  0.00  0.00    +0.000 A 
ATOM     27  C   UNL     1      -6.535 -10.823  18.404  0.00  0.00    +0.000 A 
ENDBRANCH  19  22
ENDBRANCH  18  19
ENDBRANCH  16  18
ENDBRANCH   4  17
TORSDOF 5
ENDMDL
MODEL 3
REMARK VINA RESULT:      -5.2     24.345     25.964
REMARK  Name = 155269217
REMARK  5 active torsions:
REMARK  status: ('A' for Active; 'I' for Inactive)
REMARK    1  A    between atoms: O_5  and  N_8
REMARK    2  A    between atoms: O_5  and  C_21
REMARK    3  A    between atoms: C_9  and  C_14
REMARK    4  A    between atoms: C_10  and  C_12
REMARK    5  A    between atoms: C_20  and  C_21
REMARK                            x       y       z     vdW  Elec       q    Type
REMARK                         _______ _______ _______ _____ _____    ______ ____
ROOT
ATOM      1  S   UNL     1     -10.737  13.804  18.027  0.00  0.00    +0.000 S 
ATOM      2  N   UNL     1     -10.316  11.340  17.369  0.00  0.00    +0.000 N 
ATOM      3  N   UNL     1     -11.642  11.429  19.173  0.00  0.00    +0.000 NA
ATOM      4  C   UNL     1     -10.601  10.018  17.666  0.00  0.00    +0.000 A 
ATOM      5  C   UNL     1     -11.406  10.120  18.813  0.00  0.00    +0.000 A 
ATOM      6  C   UNL     1     -10.964  12.105  18.297  0.00  0.00    +0.000 A 
ATOM      7  C   UNL     1      -9.636  12.082  16.417  0.00  0.00    +0.000 A 
ATOM      8  C   UNL     1      -9.749  13.403  16.625  0.00  0.00    +0.000 A 
ENDROOT
BRANCH   5  10
ATOM      9 BR   UNL     1     -13.784   5.460  22.042  0.00  0.00    +0.000 Br
ATOM     10  C   UNL     1     -11.995   9.027  19.577  0.00  0.00    +0.000 A 
ATOM     11  C   UNL     1     -11.151   8.062  20.147  0.00  0.00    +0.000 A 
ATOM     12  C   UNL     1     -13.381   8.888  19.726  0.00  0.00    +0.000 A 
ATOM     13  C   UNL     1     -11.683   6.998  20.884  0.00  0.00    +0.000 A 
ATOM     14  C   UNL     1     -13.913   7.832  20.472  0.00  0.00    +0.000 A 
ATOM     15  C   UNL     1     -13.062   6.896  21.048  0.00  0.00    +0.000 A 
ENDBRANCH   5  10
BRANCH   4  17
ATOM     16  N   UNL     1     -10.847   8.271  15.905  0.00  0.00    +0.000 NA
ATOM     17  C   UNL     1     -10.274   8.815  16.938  0.00  0.00    +0.000 C 
BRANCH  16  18
ATOM     18  O   UNL     1     -11.883   9.047  15.400  0.00  0.00    +0.000 OA
BRANCH  18  19
ATOM     19  C   UNL     1     -12.577   8.320  14.382  0.00  0.00    +0.000 C 
BRANCH  19  22
ATOM     20 CL   UNL     1     -17.062   5.854  13.538  0.00  0.00    +0.000 Cl
ATOM     21 CL   UNL     1     -17.984   6.689  16.546  0.00  0.00    +0.000 Cl
ATOM     22  C   UNL     1     -13.922   7.902  14.923  0.00  0.00    +0.000 A 
ATOM     23  C   UNL     1     -14.794   7.158  14.119  0.00  0.00    +0.000 A 
ATOM     24  C   UNL     1     -14.346   8.283  16.206  0.00  0.00    +0.000 A 
ATOM     25  C   UNL     1     -16.053   6.775  14.596  0.00  0.00    +0.000 A 
ATOM     26  C   UNL     1     -15.595   7.894  16.689  0.00  0.00    +0.000 A 
ATOM     27  C   UNL     1     -16.450   7.137  15.888  0.00  0.00    +0.000 A 
ENDBRANCH  19  22
ENDBRANCH  18  19
ENDBRANCH  16  18
ENDBRANCH   4  17
TORSDOF 5
ENDMDL
MODEL 4
REMARK VINA RESULT:      -5.2      9.063     11.623
REMARK  Name = 155269217
REMARK  5 active torsions:
REMARK  status: ('A' for Active; 'I' for Inactive)
REMARK    1  A    between atoms: O_5  and  N_8
REMARK    2  A    between atoms: O_5  and  C_21
REMARK    3  A    between atoms: C_9  and  C_14
REMARK    4  A    between atoms: C_10  and  C_12
REMARK    5  A    between atoms: C_20  and  C_21
REMARK                            x       y       z     vdW  Elec       q    Type
REMARK                         _______ _______ _______ _____ _____    ______ ____
ROOT
ATOM      1  S   UNL     1       1.834  20.261  20.826  0.00  0.00    +0.000 S 
ATOM      2  N   UNL     1       2.123  18.490  22.686  0.00  0.00    +0.000 N 
ATOM      3  N   UNL     1       4.061  18.772  21.596  0.00  0.00    +0.000 NA
ATOM      4  C   UNL     1       3.013  17.639  23.319  0.00  0.00    +0.000 A 
ATOM      5  C   UNL     1       4.200  17.826  22.589  0.00  0.00    +0.000 A 
ATOM      6  C   UNL     1       2.814  19.118  21.689  0.00  0.00    +0.000 A 
ATOM      7  C   UNL     1       0.807  18.908  22.797  0.00  0.00    +0.000 A 
ATOM      8  C   UNL     1       0.488  19.836  21.881  0.00  0.00    +0.000 A 
ENDROOT
BRANCH   5  10
ATOM      9 BR   UNL     1       9.565  14.954  23.463  0.00  0.00    +0.000 Br
ATOM     10  C   UNL     1       5.482  17.169  22.808  0.00  0.00    +0.000 A 
ATOM     11  C   UNL     1       5.685  15.881  22.287  0.00  0.00    +0.000 A 
ATOM     12  C   UNL     1       6.505  17.766  23.556  0.00  0.00    +0.000 A 
ATOM     13  C   UNL     1       6.903  15.221  22.481  0.00  0.00    +0.000 A 
ATOM     14  C   UNL     1       7.726  17.111  23.740  0.00  0.00    +0.000 A 
ATOM     15  C   UNL     1       7.919  15.845  23.200  0.00  0.00    +0.000 A 
ENDBRANCH   5  10
BRANCH   4  17
ATOM     16  N   UNL     1       2.520  15.585  24.640  0.00  0.00    +0.000 NA
ATOM     17  C   UNL     1       2.841  16.837  24.506  0.00  0.00    +0.000 C 
BRANCH  16  18
ATOM     18  O   UNL     1       2.418  14.926  23.421  0.00  0.00    +0.000 OA
BRANCH  18  19
ATOM     19  C   UNL     1       1.041  14.717  23.099  0.00  0.00    +0.000 C 
BRANCH  19  22
ATOM     20 CL   UNL     1      -2.410  15.937  19.423  0.00  0.00    +0.000 Cl
ATOM     21 CL   UNL     1       0.078  16.620  17.440  0.00  0.00    +0.000 Cl
ATOM     22  C   UNL     1       0.797  15.203  21.691  0.00  0.00    +0.000 A 
ATOM     23  C   UNL     1      -0.514  15.348  21.223  0.00  0.00    +0.000 A 
ATOM     24  C   UNL     1       1.861  15.469  20.815  0.00  0.00    +0.000 A 
ATOM     25  C   UNL     1      -0.760  15.781  19.915  0.00  0.00    +0.000 A 
ATOM     26  C   UNL     1       1.619  15.912  19.514  0.00  0.00    +0.000 A 
ATOM     27  C   UNL     1       0.309  16.071  19.062  0.00  0.00    +0.000 A 
ENDBRANCH  19  22
ENDBRANCH  18  19
ENDBRANCH  16  18
ENDBRANCH   4  17
TORSDOF 5
ENDMDL
MODEL 5
REMARK VINA RESULT:      -5.1     24.194     25.906
REMARK  Name = 155269217
REMARK  5 active torsions:
REMARK  status: ('A' for Active; 'I' for Inactive)
REMARK    1  A    between atoms: O_5  and  N_8
REMARK    2  A    between atoms: O_5  and  C_21
REMARK    3  A    between atoms: C_9  and  C_14
REMARK    4  A    between atoms: C_10  and  C_12
REMARK    5  A    between atoms: C_20  and  C_21
REMARK                            x       y       z     vdW  Elec       q    Type
REMARK                         _______ _______ _______ _____ _____    ______ ____
ROOT
ATOM      1  S   UNL     1     -11.115  13.616  17.765  0.00  0.00    +0.000 S 
ATOM      2  N   UNL     1     -10.521  11.163  17.207  0.00  0.00    +0.000 N 
ATOM      3  N   UNL     1     -11.870  11.232  18.995  0.00  0.00    +0.000 NA
ATOM      4  C   UNL     1     -10.720   9.838  17.552  0.00  0.00    +0.000 A 
ATOM      5  C   UNL     1     -11.542   9.928  18.687  0.00  0.00    +0.000 A 
ATOM      6  C   UNL     1     -11.229  11.917  18.099  0.00  0.00    +0.000 A 
ATOM      7  C   UNL     1      -9.882  11.913  16.232  0.00  0.00    +0.000 A 
ATOM      8  C   UNL     1     -10.086  13.231  16.388  0.00  0.00    +0.000 A 
ENDROOT
BRANCH   5  10
ATOM      9 BR   UNL     1     -13.851   5.330  22.052  0.00  0.00    +0.000 Br
ATOM     10  C   UNL     1     -12.064   8.828  19.488  0.00  0.00    +0.000 A 
ATOM     11  C   UNL     1     -13.453   8.681  19.621  0.00  0.00    +0.000 A 
ATOM     12  C   UNL     1     -11.220   7.935  20.161  0.00  0.00    +0.000 A 
ATOM     13  C   UNL     1     -13.987   7.637  20.385  0.00  0.00    +0.000 A 
ATOM     14  C   UNL     1     -11.754   6.885  20.915  0.00  0.00    +0.000 A 
ATOM     15  C   UNL     1     -13.132   6.740  21.020  0.00  0.00    +0.000 A 
ENDBRANCH   5  10
BRANCH   4  17
ATOM     16  N   UNL     1     -10.664   8.146  15.723  0.00  0.00    +0.000 NA
ATOM     17  C   UNL     1     -10.305   8.633  16.873  0.00  0.00    +0.000 C 
BRANCH  16  18
ATOM     18  O   UNL     1     -11.519   8.991  15.028  0.00  0.00    +0.000 OA
BRANCH  18  19
ATOM     19  C   UNL     1     -12.727   8.297  14.708  0.00  0.00    +0.000 C 
BRANCH  19  22
ATOM     20 CL   UNL     1     -16.836   7.219  17.686  0.00  0.00    +0.000 Cl
ATOM     21 CL   UNL     1     -17.175  10.411  18.219  0.00  0.00    +0.000 Cl
ATOM     22  C   UNL     1     -13.832   8.821  15.594  0.00  0.00    +0.000 A 
ATOM     23  C   UNL     1     -14.733   7.926  16.183  0.00  0.00    +0.000 A 
ATOM     24  C   UNL     1     -14.009  10.197  15.805  0.00  0.00    +0.000 A 
ATOM     25  C   UNL     1     -15.773   8.393  16.994  0.00  0.00    +0.000 A 
ATOM     26  C   UNL     1     -15.039  10.665  16.622  0.00  0.00    +0.000 A 
ATOM     27  C   UNL     1     -15.921   9.766  17.221  0.00  0.00    +0.000 A 
ENDBRANCH  19  22
ENDBRANCH  18  19
ENDBRANCH  16  18
ENDBRANCH   4  17
TORSDOF 5
ENDMDL
MODEL 6
REMARK VINA RESULT:      -5.1      3.585      5.266
REMARK  Name = 155269217
REMARK  5 active torsions:
REMARK  status: ('A' for Active; 'I' for Inactive)
REMARK    1  A    between atoms: O_5  and  N_8
REMARK    2  A    between atoms: O_5  and  C_21
REMARK    3  A    between atoms: C_9  and  C_14
REMARK    4  A    between atoms: C_10  and  C_12
REMARK    5  A    between atoms: C_20  and  C_21
REMARK                            x       y       z     vdW  Elec       q    Type
REMARK                         _______ _______ _______ _____ _____    ______ ____
ROOT
ATOM      1  S   UNL     1      14.708  15.861  24.865  0.00  0.00    +0.000 S 
ATOM      2  N   UNL     1      12.711  14.247  25.169  0.00  0.00    +0.000 N 
ATOM      3  N   UNL     1      12.188  15.832  23.674  0.00  0.00    +0.000 NA
ATOM      4  C   UNL     1      11.427  13.936  24.758  0.00  0.00    +0.000 A 
ATOM      5  C   UNL     1      11.130  14.966  23.848  0.00  0.00    +0.000 A 
ATOM      6  C   UNL     1      13.087  15.370  24.487  0.00  0.00    +0.000 A 
ATOM      7  C   UNL     1      13.702  13.744  25.996  0.00  0.00    +0.000 A 
ATOM      8  C   UNL     1      14.821  14.485  25.961  0.00  0.00    +0.000 A 
ENDROOT
BRANCH   5  10
ATOM      9 BR   UNL     1       5.959  15.737  20.614  0.00  0.00    +0.000 Br
ATOM     10  C   UNL     1       9.891  15.155  23.105  0.00  0.00    +0.000 A 
ATOM     11  C   UNL     1       9.849  14.802  21.747  0.00  0.00    +0.000 A 
ATOM     12  C   UNL     1       8.750  15.717  23.694  0.00  0.00    +0.000 A 
ATOM     13  C   UNL     1       8.676  14.974  21.004  0.00  0.00    +0.000 A 
ATOM     14  C   UNL     1       7.575  15.878  22.954  0.00  0.00    +0.000 A 
ATOM     15  C   UNL     1       7.544  15.504  21.616  0.00  0.00    +0.000 A 
ENDBRANCH   5  10
BRANCH   4  17
ATOM     16  N   UNL     1      10.615  11.588  24.570  0.00  0.00    +0.000 NA
ATOM     17  C   UNL     1      10.608  12.789  25.068  0.00  0.00    +0.000 C 
BRANCH  16  18
ATOM     18  O   UNL     1      11.645  11.393  23.658  0.00  0.00    +0.000 OA
BRANCH  18  19
ATOM     19  C   UNL     1      11.149  11.559  22.328  0.00  0.00    +0.000 C 
BRANCH  19  22
ATOM     20 CL   UNL     1      10.876   6.421  21.665  0.00  0.00    +0.000 Cl
ATOM     21 CL   UNL     1      12.815   6.743  19.072  0.00  0.00    +0.000 Cl
ATOM     22  C   UNL     1      11.554  10.356  21.511  0.00  0.00    +0.000 A 
ATOM     23  C   UNL     1      11.103   9.083  21.879  0.00  0.00    +0.000 A 
ATOM     24  C   UNL     1      12.416  10.477  20.410  0.00  0.00    +0.000 A 
ATOM     25  C   UNL     1      11.482   7.953  21.143  0.00  0.00    +0.000 A 
ATOM     26  C   UNL     1      12.786   9.355  19.668  0.00  0.00    +0.000 A 
ATOM     27  C   UNL     1      12.318   8.091  20.031  0.00  0.00    +0.000 A 
ENDBRANCH  19  22
ENDBRANCH  18  19
ENDBRANCH  16  18
ENDBRANCH   4  17
TORSDOF 5
ENDMDL
MODEL 7
REMARK VINA RESULT:      -4.9     10.650     12.707
REMARK  Name = 155269217
REMARK  5 active torsions:
REMARK  status: ('A' for Active; 'I' for Inactive)
REMARK    1  A    between atoms: O_5  and  N_8
REMARK    2  A    between atoms: O_5  and  C_21
REMARK    3  A    between atoms: C_9  and  C_14
REMARK    4  A    between atoms: C_10  and  C_12
REMARK    5  A    between atoms: C_20  and  C_21
REMARK                            x       y       z     vdW  Elec       q    Type
REMARK                         _______ _______ _______ _____ _____    ______ ____
ROOT
ATOM      1  S   UNL     1       2.474  20.456  24.923  0.00  0.00    +0.000 S 
ATOM      2  N   UNL     1       2.904  17.934  24.552  0.00  0.00    +0.000 N 
ATOM      3  N   UNL     1       3.366  19.069  22.676  0.00  0.00    +0.000 NA
ATOM      4  C   UNL     1       3.339  16.974  23.654  0.00  0.00    +0.000 A 
ATOM      5  C   UNL     1       3.588  17.721  22.491  0.00  0.00    +0.000 A 
ATOM      6  C   UNL     1       2.951  19.135  23.903  0.00  0.00    +0.000 A 
ATOM      7  C   UNL     1       2.503  18.034  25.874  0.00  0.00    +0.000 A 
ATOM      8  C   UNL     1       2.227  19.298  26.229  0.00  0.00    +0.000 A 
ENDROOT
BRANCH   5  10
ATOM      9 BR   UNL     1       5.470  15.582  17.042  0.00  0.00    +0.000 Br
ATOM     10  C   UNL     1       4.060  17.221  21.206  0.00  0.00    +0.000 A 
ATOM     11  C   UNL     1       3.121  16.820  20.244  0.00  0.00    +0.000 A 
ATOM     12  C   UNL     1       5.425  17.091  20.916  0.00  0.00    +0.000 A 
ATOM     13  C   UNL     1       3.541  16.332  19.001  0.00  0.00    +0.000 A 
ATOM     14  C   UNL     1       5.845  16.615  19.670  0.00  0.00    +0.000 A 
ATOM     15  C   UNL     1       4.902  16.241  18.720  0.00  0.00    +0.000 A 
ENDBRANCH   5  10
BRANCH   4  17
ATOM     16  N   UNL     1       2.782  14.563  23.950  0.00  0.00    +0.000 NA
ATOM     17  C   UNL     1       3.599  15.569  23.856  0.00  0.00    +0.000 C 
BRANCH  16  18
ATOM     18  O   UNL     1       1.459  14.928  23.729  0.00  0.00    +0.000 OA
BRANCH  18  19
ATOM     19  C   UNL     1       1.053  14.502  22.426  0.00  0.00    +0.000 C 
BRANCH  19  22
ATOM     20 CL   UNL     1      -2.497  15.629  18.815  0.00  0.00    +0.000 Cl
ATOM     21 CL   UNL     1      -2.875  18.538  20.223  0.00  0.00    +0.000 Cl
ATOM     22  C   UNL     1       0.064  15.503  21.881  0.00  0.00    +0.000 A 
ATOM     23  C   UNL     1      -0.692  15.185  20.746  0.00  0.00    +0.000 A 
ATOM     24  C   UNL     1      -0.085  16.774  22.458  0.00  0.00    +0.000 A 
ATOM     25  C   UNL     1      -1.602  16.106  20.215  0.00  0.00    +0.000 A 
ATOM     26  C   UNL     1      -1.000  17.690  21.938  0.00  0.00    +0.000 A 
ATOM     27  C   UNL     1      -1.762  17.358  20.818  0.00  0.00    +0.000 A 
ENDBRANCH  19  22
ENDBRANCH  18  19
ENDBRANCH  16  18
ENDBRANCH   4  17
TORSDOF 5
ENDMDL
MODEL 8
REMARK VINA RESULT:      -4.9     10.846     12.500
REMARK  Name = 155269217
REMARK  5 active torsions:
REMARK  status: ('A' for Active; 'I' for Inactive)
REMARK    1  A    between atoms: O_5  and  N_8
REMARK    2  A    between atoms: O_5  and  C_21
REMARK    3  A    between atoms: C_9  and  C_14
REMARK    4  A    between atoms: C_10  and  C_12
REMARK    5  A    between atoms: C_20  and  C_21
REMARK                            x       y       z     vdW  Elec       q    Type
REMARK                         _______ _______ _______ _____ _____    ______ ____
ROOT
ATOM      1  S   UNL     1       5.291  20.621  23.764  0.00  0.00    +0.000 S 
ATOM      2  N   UNL     1       4.829  18.079  23.821  0.00  0.00    +0.000 N 
ATOM      3  N   UNL     1       4.474  18.870  21.755  0.00  0.00    +0.000 NA
ATOM      4  C   UNL     1       4.467  16.971  23.074  0.00  0.00    +0.000 A 
ATOM      5  C   UNL     1       4.228  17.515  21.801  0.00  0.00    +0.000 A 
ATOM      6  C   UNL     1       4.811  19.152  22.976  0.00  0.00    +0.000 A 
ATOM      7  C   UNL     1       5.235  18.394  25.108  0.00  0.00    +0.000 A 
ATOM      8  C   UNL     1       5.510  19.700  25.250  0.00  0.00    +0.000 A 
ENDROOT
BRANCH   5  10
ATOM      9 BR   UNL     1       2.536  14.469  16.735  0.00  0.00    +0.000 Br
ATOM     10  C   UNL     1       3.801  16.802  20.604  0.00  0.00    +0.000 A 
ATOM     11  C   UNL     1       4.708  15.947  19.960  0.00  0.00    +0.000 A 
ATOM     12  C   UNL     1       2.524  16.974  20.053  0.00  0.00    +0.000 A 
ATOM     13  C   UNL     1       4.331  15.249  18.806  0.00  0.00    +0.000 A 
ATOM     14  C   UNL     1       2.143  16.268  18.907  0.00  0.00    +0.000 A 
ATOM     15  C   UNL     1       3.047  15.409  18.293  0.00  0.00    +0.000 A 
ENDBRANCH   5  10
BRANCH   4  17
ATOM     16  N   UNL     1       3.455  14.809  23.789  0.00  0.00    +0.000 NA
ATOM     17  C   UNL     1       4.445  15.575  23.441  0.00  0.00    +0.000 C 
BRANCH  16  18
ATOM     18  O   UNL     1       2.226  15.450  23.700  0.00  0.00    +0.000 OA
BRANCH  18  19
ATOM     19  C   UNL     1       1.233  14.529  23.244  0.00  0.00    +0.000 C 
BRANCH  19  22
ATOM     20 CL   UNL     1      -1.499  18.836  22.295  0.00  0.00    +0.000 Cl
ATOM     21 CL   UNL     1      -2.602  17.429  19.576  0.00  0.00    +0.000 Cl
ATOM     22  C   UNL     1       0.285  15.260  22.325  0.00  0.00    +0.000 A 
ATOM     23  C   UNL     1      -0.140  16.554  22.651  0.00  0.00    +0.000 A 
ATOM     24  C   UNL     1      -0.224  14.652  21.166  0.00  0.00    +0.000 A 
ATOM     25  C   UNL     1      -1.031  17.241  21.820  0.00  0.00    +0.000 A 
ATOM     26  C   UNL     1      -1.105  15.339  20.330  0.00  0.00    +0.000 A 
ATOM     27  C   UNL     1      -1.509  16.636  20.653  0.00  0.00    +0.000 A 
ENDBRANCH  19  22
ENDBRANCH  18  19
ENDBRANCH  16  18
ENDBRANCH   4  17
TORSDOF 5
ENDMDL
MODEL 9
REMARK VINA RESULT:      -4.7     13.214     15.514
REMARK  Name = 155269217
REMARK  5 active torsions:
REMARK  status: ('A' for Active; 'I' for Inactive)
REMARK    1  A    between atoms: O_5  and  N_8
REMARK    2  A    between atoms: O_5  and  C_21
REMARK    3  A    between atoms: C_9  and  C_14
REMARK    4  A    between atoms: C_10  and  C_12
REMARK    5  A    between atoms: C_20  and  C_21
REMARK                            x       y       z     vdW  Elec       q    Type
REMARK                         _______ _______ _______ _____ _____    ______ ____
ROOT
ATOM      1  S   UNL     1      13.473   7.931   5.447  0.00  0.00    +0.000 S 
ATOM      2  N   UNL     1      11.836   9.931   5.429  0.00  0.00    +0.000 N 
ATOM      3  N   UNL     1      12.209   9.272   7.538  0.00  0.00    +0.000 NA
ATOM      4  C   UNL     1      11.095  10.802   6.210  0.00  0.00    +0.000 A 
ATOM      5  C   UNL     1      11.334  10.337   7.514  0.00  0.00    +0.000 A 
ATOM      6  C   UNL     1      12.461   9.066   6.282  0.00  0.00    +0.000 A 
ATOM      7  C   UNL     1      12.154   9.723   4.097  0.00  0.00    +0.000 A 
ATOM      8  C   UNL     1      13.002   8.695   3.930  0.00  0.00    +0.000 A 
ENDROOT
BRANCH   5  10
ATOM      9 BR   UNL     1       9.159  12.632  12.786  0.00  0.00    +0.000 Br
ATOM     10  C   UNL     1      10.793  10.876   8.755  0.00  0.00    +0.000 A 
ATOM     11  C   UNL     1      11.661  11.504   9.661  0.00  0.00    +0.000 A 
ATOM     12  C   UNL     1       9.438  10.750   9.090  0.00  0.00    +0.000 A 
ATOM     13  C   UNL     1      11.174  12.030  10.863  0.00  0.00    +0.000 A 
ATOM     14  C   UNL     1       8.950  11.285  10.286  0.00  0.00    +0.000 A 
ATOM     15  C   UNL     1       9.819  11.923  11.163  0.00  0.00    +0.000 A 
ENDBRANCH   5  10
BRANCH   4  17
ATOM     16  N   UNL     1       9.071  12.149   5.660  0.00  0.00    +0.000 NA
ATOM     17  C   UNL     1      10.348  11.978   5.830  0.00  0.00    +0.000 C 
BRANCH  16  18
ATOM     18  O   UNL     1       8.333  11.019   5.989  0.00  0.00    +0.000 OA
BRANCH  18  19
ATOM     19  C   UNL     1       8.022  10.284   4.802  0.00  0.00    +0.000 C 
BRANCH  19  22
ATOM     20 CL   UNL     1       9.018   6.436   8.136  0.00  0.00    +0.000 Cl
ATOM     21 CL   UNL     1       9.748   4.542   5.593  0.00  0.00    +0.000 Cl
ATOM     22  C   UNL     1       8.442   8.848   5.003  0.00  0.00    +0.000 A 
ATOM     23  C   UNL     1       8.534   8.325   6.298  0.00  0.00    +0.000 A 
ATOM     24  C   UNL     1       8.791   8.030   3.916  0.00  0.00    +0.000 A 
ATOM     25  C   UNL     1       8.937   7.001   6.505  0.00  0.00    +0.000 A 
ATOM     26  C   UNL     1       9.183   6.707   4.118  0.00  0.00    +0.000 A 
ATOM     27  C   UNL     1       9.254   6.188   5.412  0.00  0.00    +0.000 A 
ENDBRANCH  19  22
ENDBRANCH  18  19
ENDBRANCH  16  18
ENDBRANCH   4  17
TORSDOF 5
ENDMDL
MODEL 10
REMARK VINA RESULT:      -4.7     29.675     32.012
REMARK  Name = 155269217
REMARK  5 active torsions:
REMARK  status: ('A' for Active; 'I' for Inactive)
REMARK    1  A    between atoms: O_5  and  N_8
REMARK    2  A    between atoms: O_5  and  C_21
REMARK    3  A    between atoms: C_9  and  C_14
REMARK    4  A    between atoms: C_10  and  C_12
REMARK    5  A    between atoms: C_20  and  C_21
REMARK                            x       y       z     vdW  Elec       q    Type
REMARK                         _______ _______ _______ _____ _____    ______ ____
ROOT
ATOM      1  S   UNL     1      17.291 -18.111   1.179  0.00  0.00    +0.000 S 
ATOM      2  N   UNL     1      17.355 -16.339   3.060  0.00  0.00    +0.000 N 
ATOM      3  N   UNL     1      16.742 -18.323   3.904  0.00  0.00    +0.000 NA
ATOM      4  C   UNL     1      17.186 -16.112   4.415  0.00  0.00    +0.000 A 
ATOM      5  C   UNL     1      16.777 -17.367   4.896  0.00  0.00    +0.000 A 
ATOM      6  C   UNL     1      17.077 -17.659   2.841  0.00  0.00    +0.000 A 
ATOM      7  C   UNL     1      17.754 -15.660   1.920  0.00  0.00    +0.000 A 
ATOM      8  C   UNL     1      17.766 -16.450   0.835  0.00  0.00    +0.000 A 
ENDROOT
BRANCH   5  10
ATOM      9 BR   UNL     1      15.256 -18.810  10.676  0.00  0.00    +0.000 Br
ATOM     10  C   UNL     1      16.442 -17.718   6.271  0.00  0.00    +0.000 A 
ATOM     11  C   UNL     1      15.107 -17.626   6.692  0.00  0.00    +0.000 A 
ATOM     12  C   UNL     1      17.419 -18.107   7.196  0.00  0.00    +0.000 A 
ATOM     13  C   UNL     1      14.752 -17.953   8.005  0.00  0.00    +0.000 A 
ATOM     14  C   UNL     1      17.063 -18.444   8.506  0.00  0.00    +0.000 A 
ATOM     15  C   UNL     1      15.733 -18.368   8.901  0.00  0.00    +0.000 A 
ENDBRANCH   5  10
BRANCH   4  17
ATOM     16  N   UNL     1      16.741 -13.874   5.418  0.00  0.00    +0.000 NA
ATOM     17  C   UNL     1      17.465 -14.931   5.197  0.00  0.00    +0.000 C 
BRANCH  16  18
ATOM     18  O   UNL     1      15.469 -13.973   4.868  0.00  0.00    +0.000 OA
BRANCH  18  19
ATOM     19  C   UNL     1      15.036 -12.686   4.421  0.00  0.00    +0.000 C 
BRANCH  19  22
ATOM     20 CL   UNL     1      18.580  -9.981   1.768  0.00  0.00    +0.000 Cl
ATOM     21 CL   UNL     1      17.591 -11.504  -0.932  0.00  0.00    +0.000 Cl
ATOM     22  C   UNL     1      15.683 -12.397   3.088  0.00  0.00    +0.000 A 
ATOM     23  C   UNL     1      16.713 -11.451   3.006  0.00  0.00    +0.000 A 
ATOM     24  C   UNL     1      15.244 -13.022   1.911  0.00  0.00    +0.000 A 
ATOM     25  C   UNL     1      17.314 -11.157   1.777  0.00  0.00    +0.000 A 
ATOM     26  C   UNL     1      15.849 -12.740   0.686  0.00  0.00    +0.000 A 
ATOM     27  C   UNL     1      16.887 -11.809   0.615  0.00  0.00    +0.000 A 
ENDBRANCH  19  22
ENDBRANCH  18  19
ENDBRANCH  16  18
ENDBRANCH   4  17
TORSDOF 5
ENDMDL
