MODEL 1
REMARK VINA RESULT:      -6.9      0.000      0.000
REMARK  Name = 155269220
REMARK  9 active torsions:
REMARK  status: ('A' for Active; 'I' for Inactive)
REMARK    1  A    between atoms: O_4  and  N_7
REMARK    2  A    between atoms: O_4  and  C_24
REMARK    3  A    between atoms: C_8  and  C_9
REMARK    4  A    between atoms: C_8  and  C_10
REMARK    5  A    between atoms: C_8  and  C_11
REMARK    6  A    between atoms: C_8  and  C_12
REMARK    7  A    between atoms: C_15  and  C_18
REMARK    8  A    between atoms: C_19  and  C_22
REMARK    9  A    between atoms: C_24  and  C_25
REMARK                            x       y       z     vdW  Elec       q    Type
REMARK                         _______ _______ _______ _____ _____    ______ ____
ROOT
ATOM      1  S   UNL     1     -19.344   0.875  22.906  0.00  0.00    +0.000 S 
ATOM      2  N   UNL     1     -18.389   2.799  24.316  0.00  0.00    +0.000 N 
ATOM      3  N   UNL     1     -17.429   2.837  22.300  0.00  0.00    +0.000 NA
ATOM      4  C   UNL     1     -16.927   3.856  23.097  0.00  0.00    +0.000 A 
ATOM      5  C   UNL     1     -17.513   3.856  24.370  0.00  0.00    +0.000 A 
ATOM      6  C   UNL     1     -18.268   2.229  23.086  0.00  0.00    +0.000 A 
ATOM      7  C   UNL     1     -19.342   2.224  25.132  0.00  0.00    +0.000 A 
ATOM      8  C   UNL     1     -19.933   1.168  24.547  0.00  0.00    +0.000 A 
ENDROOT
BRANCH   4  12
ATOM      9  C   UNL     1     -13.968   6.554  21.519  0.00  0.00    +0.000 A 
ATOM     10  C   UNL     1     -13.605   5.365  22.169  0.00  0.00    +0.000 A 
ATOM     11  C   UNL     1     -15.339   6.863  21.465  0.00  0.00    +0.000 A 
ATOM     12  C   UNL     1     -15.936   4.803  22.600  0.00  0.00    +0.000 A 
ATOM     13  C   UNL     1     -14.576   4.502  22.703  0.00  0.00    +0.000 A 
ATOM     14  C   UNL     1     -16.303   6.013  22.014  0.00  0.00    +0.000 A 
BRANCH   9  15
ATOM     15  C   UNL     1     -12.946   7.505  20.874  0.00  0.00    +0.000 C 
ATOM     16  C   UNL     1     -13.232   7.806  19.386  0.00  0.00    +0.000 C 
ATOM     17  C   UNL     1     -12.956   8.852  21.628  0.00  0.00    +0.000 C 
ATOM     18  C   UNL     1     -11.530   6.896  20.954  0.00  0.00    +0.000 C 
ENDBRANCH   9  15
ENDBRANCH   4  12
BRANCH   5  20
ATOM     19  N   UNL     1     -16.752   4.549  26.598  0.00  0.00    +0.000 NA
ATOM     20  C   UNL     1     -17.349   4.773  25.465  0.00  0.00    +0.000 C 
BRANCH  19  21
ATOM     21  O   UNL     1     -16.102   3.309  26.601  0.00  0.00    +0.000 OA
BRANCH  21  22
ATOM     22  C   UNL     1     -16.752   2.416  27.504  0.00  0.00    +0.000 C 
BRANCH  22  25
ATOM     23 CL   UNL     1     -15.005  -0.430  31.510  0.00  0.00    +0.000 Cl
ATOM     24 CL   UNL     1     -13.370   2.200  32.508  0.00  0.00    +0.000 Cl
ATOM     25  C   UNL     1     -15.892   2.314  28.739  0.00  0.00    +0.000 A 
ATOM     26  C   UNL     1     -15.820   1.128  29.482  0.00  0.00    +0.000 A 
ATOM     27  C   UNL     1     -15.161   3.431  29.169  0.00  0.00    +0.000 A 
ATOM     28  C   UNL     1     -15.040   1.066  30.645  0.00  0.00    +0.000 A 
ATOM     29  C   UNL     1     -14.386   3.373  30.324  0.00  0.00    +0.000 A 
ATOM     30  C   UNL     1     -14.327   2.193  31.071  0.00  0.00    +0.000 A 
ENDBRANCH  22  25
ENDBRANCH  21  22
ENDBRANCH  19  21
ENDBRANCH   5  20
TORSDOF 6
ENDMDL
MODEL 2
REMARK VINA RESULT:      -6.9     24.565     28.264
REMARK  Name = 155269220
REMARK  9 active torsions:
REMARK  status: ('A' for Active; 'I' for Inactive)
REMARK    1  A    between atoms: O_4  and  N_7
REMARK    2  A    between atoms: O_4  and  C_24
REMARK    3  A    between atoms: C_8  and  C_9
REMARK    4  A    between atoms: C_8  and  C_10
REMARK    5  A    between atoms: C_8  and  C_11
REMARK    6  A    between atoms: C_8  and  C_12
REMARK    7  A    between atoms: C_15  and  C_18
REMARK    8  A    between atoms: C_19  and  C_22
REMARK    9  A    between atoms: C_24  and  C_25
REMARK                            x       y       z     vdW  Elec       q    Type
REMARK                         _______ _______ _______ _____ _____    ______ ____
ROOT
ATOM      1  S   UNL     1      12.980  15.346  20.140  0.00  0.00    +0.000 S 
ATOM      2  N   UNL     1      11.816  14.785  22.362  0.00  0.00    +0.000 N 
ATOM      3  N   UNL     1      10.370  15.858  21.042  0.00  0.00    +0.000 NA
ATOM      4  C   UNL     1       9.781  15.550  22.259  0.00  0.00    +0.000 A 
ATOM      5  C   UNL     1      10.667  14.875  23.109  0.00  0.00    +0.000 A 
ATOM      6  C   UNL     1      11.583  15.406  21.173  0.00  0.00    +0.000 A 
ATOM      7  C   UNL     1      13.069  14.217  22.484  0.00  0.00    +0.000 A 
ATOM      8  C   UNL     1      13.830  14.441  21.399  0.00  0.00    +0.000 A 
ENDROOT
BRANCH   4  12
ATOM      9  C   UNL     1       5.667  16.407  23.190  0.00  0.00    +0.000 A 
ATOM     10  C   UNL     1       6.021  15.371  22.312  0.00  0.00    +0.000 A 
ATOM     11  C   UNL     1       6.710  17.200  23.700  0.00  0.00    +0.000 A 
ATOM     12  C   UNL     1       8.390  15.884  22.547  0.00  0.00    +0.000 A 
ATOM     13  C   UNL     1       7.364  15.113  21.995  0.00  0.00    +0.000 A 
ATOM     14  C   UNL     1       8.045  16.956  23.368  0.00  0.00    +0.000 A 
BRANCH   9  15
ATOM     15  C   UNL     1       4.215  16.694  23.608  0.00  0.00    +0.000 C 
ATOM     16  C   UNL     1       4.097  17.588  24.862  0.00  0.00    +0.000 C 
ATOM     17  C   UNL     1       3.486  17.417  22.454  0.00  0.00    +0.000 C 
ATOM     18  C   UNL     1       3.480  15.373  23.917  0.00  0.00    +0.000 C 
ENDBRANCH   9  15
ENDBRANCH   4  12
BRANCH   5  20
ATOM     19  N   UNL     1      10.147  13.071  24.690  0.00  0.00    +0.000 NA
ATOM     20  C   UNL     1      10.449  14.305  24.411  0.00  0.00    +0.000 C 
BRANCH  19  21
ATOM     21  O   UNL     1      10.211  12.255  23.553  0.00  0.00    +0.000 OA
BRANCH  21  22
ATOM     22  C   UNL     1      10.901  11.044  23.857  0.00  0.00    +0.000 C 
BRANCH  22  25
ATOM     23 CL   UNL     1      13.239  11.076  19.196  0.00  0.00    +0.000 Cl
ATOM     24 CL   UNL     1      11.853   8.189  18.616  0.00  0.00    +0.000 Cl
ATOM     25  C   UNL     1      11.190  10.347  22.552  0.00  0.00    +0.000 A 
ATOM     26  C   UNL     1      12.002  10.936  21.573  0.00  0.00    +0.000 A 
ATOM     27  C   UNL     1      10.619   9.091  22.297  0.00  0.00    +0.000 A 
ATOM     28  C   UNL     1      12.229  10.284  20.354  0.00  0.00    +0.000 A 
ATOM     29  C   UNL     1      10.843   8.441  21.085  0.00  0.00    +0.000 A 
ATOM     30  C   UNL     1      11.642   9.038  20.105  0.00  0.00    +0.000 A 
ENDBRANCH  22  25
ENDBRANCH  21  22
ENDBRANCH  19  21
ENDBRANCH   5  20
TORSDOF 6
ENDMDL
MODEL 3
REMARK VINA RESULT:      -6.8     21.372     25.100
REMARK  Name = 155269220
REMARK  9 active torsions:
REMARK  status: ('A' for Active; 'I' for Inactive)
REMARK    1  A    between atoms: O_4  and  N_7
REMARK    2  A    between atoms: O_4  and  C_24
REMARK    3  A    between atoms: C_8  and  C_9
REMARK    4  A    between atoms: C_8  and  C_10
REMARK    5  A    between atoms: C_8  and  C_11
REMARK    6  A    between atoms: C_8  and  C_12
REMARK    7  A    between atoms: C_15  and  C_18
REMARK    8  A    between atoms: C_19  and  C_22
REMARK    9  A    between atoms: C_24  and  C_25
REMARK                            x       y       z     vdW  Elec       q    Type
REMARK                         _______ _______ _______ _____ _____    ______ ____
ROOT
ATOM      1  S   UNL     1       7.280  19.605  16.852  0.00  0.00    +0.000 S 
ATOM      2  N   UNL     1       6.901  17.338  18.002  0.00  0.00    +0.000 N 
ATOM      3  N   UNL     1       5.091  18.611  18.302  0.00  0.00    +0.000 NA
ATOM      4  C   UNL     1       4.929  17.381  18.922  0.00  0.00    +0.000 A 
ATOM      5  C   UNL     1       6.051  16.560  18.750  0.00  0.00    +0.000 A 
ATOM      6  C   UNL     1       6.288  18.537  17.799  0.00  0.00    +0.000 A 
ATOM      7  C   UNL     1       8.135  17.207  17.396  0.00  0.00    +0.000 A 
ATOM      8  C   UNL     1       8.503  18.332  16.759  0.00  0.00    +0.000 A 
ENDROOT
BRANCH   4  12
ATOM      9  C   UNL     1       1.229  16.456  20.918  0.00  0.00    +0.000 A 
ATOM     10  C   UNL     1       1.950  17.623  21.212  0.00  0.00    +0.000 A 
ATOM     11  C   UNL     1       1.800  15.565  19.992  0.00  0.00    +0.000 A 
ATOM     12  C   UNL     1       3.699  17.030  19.624  0.00  0.00    +0.000 A 
ATOM     13  C   UNL     1       3.168  17.906  20.574  0.00  0.00    +0.000 A 
ATOM     14  C   UNL     1       3.023  15.837  19.373  0.00  0.00    +0.000 A 
BRANCH   9  15
ATOM     15  C   UNL     1      -0.134  16.129  21.551  0.00  0.00    +0.000 C 
ATOM     16  C   UNL     1      -1.019  15.212  20.677  0.00  0.00    +0.000 C 
ATOM     17  C   UNL     1       0.090  15.408  22.898  0.00  0.00    +0.000 C 
ATOM     18  C   UNL     1      -0.929  17.427  21.802  0.00  0.00    +0.000 C 
ENDBRANCH   9  15
ENDBRANCH   4  12
BRANCH   5  20
ATOM     19  N   UNL     1       6.757  14.775  20.278  0.00  0.00    +0.000 NA
ATOM     20  C   UNL     1       6.271  15.197  19.148  0.00  0.00    +0.000 C 
BRANCH  19  21
ATOM     21  O   UNL     1       6.911  15.821  21.195  0.00  0.00    +0.000 OA
BRANCH  21  22
ATOM     22  C   UNL     1       6.861  15.316  22.529  0.00  0.00    +0.000 C 
BRANCH  22  25
ATOM     23 CL   UNL     1       5.352  19.372  25.440  0.00  0.00    +0.000 Cl
ATOM     24 CL   UNL     1       2.371  18.069  25.493  0.00  0.00    +0.000 Cl
ATOM     25  C   UNL     1       5.758  16.050  23.250  0.00  0.00    +0.000 A 
ATOM     26  C   UNL     1       6.004  17.251  23.931  0.00  0.00    +0.000 A 
ATOM     27  C   UNL     1       4.462  15.514  23.262  0.00  0.00    +0.000 A 
ATOM     28  C   UNL     1       4.971  17.897  24.622  0.00  0.00    +0.000 A 
ATOM     29  C   UNL     1       3.434  16.155  23.949  0.00  0.00    +0.000 A 
ATOM     30  C   UNL     1       3.685  17.345  24.639  0.00  0.00    +0.000 A 
ENDBRANCH  22  25
ENDBRANCH  21  22
ENDBRANCH  19  21
ENDBRANCH   5  20
TORSDOF 6
ENDMDL
MODEL 4
REMARK VINA RESULT:      -6.7     20.742     24.486
REMARK  Name = 155269220
REMARK  9 active torsions:
REMARK  status: ('A' for Active; 'I' for Inactive)
REMARK    1  A    between atoms: O_4  and  N_7
REMARK    2  A    between atoms: O_4  and  C_24
REMARK    3  A    between atoms: C_8  and  C_9
REMARK    4  A    between atoms: C_8  and  C_10
REMARK    5  A    between atoms: C_8  and  C_11
REMARK    6  A    between atoms: C_8  and  C_12
REMARK    7  A    between atoms: C_15  and  C_18
REMARK    8  A    between atoms: C_19  and  C_22
REMARK    9  A    between atoms: C_24  and  C_25
REMARK                            x       y       z     vdW  Elec       q    Type
REMARK                         _______ _______ _______ _____ _____    ______ ____
ROOT
ATOM      1  S   UNL     1       2.057  19.581  20.293  0.00  0.00    +0.000 S 
ATOM      2  N   UNL     1       2.490  18.168  22.397  0.00  0.00    +0.000 N 
ATOM      3  N   UNL     1       4.351  18.213  21.163  0.00  0.00    +0.000 NA
ATOM      4  C   UNL     1       4.542  17.447  22.303  0.00  0.00    +0.000 A 
ATOM      5  C   UNL     1       3.388  17.401  23.097  0.00  0.00    +0.000 A 
ATOM      6  C   UNL     1       3.109  18.589  21.260  0.00  0.00    +0.000 A 
ATOM      7  C   UNL     1       1.201  18.634  22.562  0.00  0.00    +0.000 A 
ATOM      8  C   UNL     1       0.800  19.384  21.521  0.00  0.00    +0.000 A 
ENDROOT
BRANCH   4  12
ATOM      9  C   UNL     1       8.369  15.621  23.041  0.00  0.00    +0.000 A 
ATOM     10  C   UNL     1       7.403  15.001  22.235  0.00  0.00    +0.000 A 
ATOM     11  C   UNL     1       8.009  16.834  23.656  0.00  0.00    +0.000 A 
ATOM     12  C   UNL     1       5.824  16.819  22.602  0.00  0.00    +0.000 A 
ATOM     13  C   UNL     1       6.148  15.592  22.019  0.00  0.00    +0.000 A 
ATOM     14  C   UNL     1       6.752  17.411  23.456  0.00  0.00    +0.000 A 
BRANCH   9  15
ATOM     15  C   UNL     1       9.775  15.040  23.266  0.00  0.00    +0.000 C 
ATOM     16  C   UNL     1       9.820  13.916  24.325  0.00  0.00    +0.000 C 
ATOM     17  C   UNL     1      10.300  14.448  21.940  0.00  0.00    +0.000 C 
ATOM     18  C   UNL     1      10.739  16.150  23.736  0.00  0.00    +0.000 C 
ENDBRANCH   9  15
ENDBRANCH   4  12
BRANCH   5  20
ATOM     19  N   UNL     1       2.629  15.646  24.635  0.00  0.00    +0.000 NA
ATOM     20  C   UNL     1       3.174  16.800  24.385  0.00  0.00    +0.000 C 
BRANCH  19  21
ATOM     21  O   UNL     1       2.396  14.921  23.460  0.00  0.00    +0.000 OA
BRANCH  21  22
ATOM     22  C   UNL     1       1.000  14.669  23.309  0.00  0.00    +0.000 C 
BRANCH  22  25
ATOM     23 CL   UNL     1       2.334  15.698  18.374  0.00  0.00    +0.000 Cl
ATOM     24 CL   UNL     1      -0.716  16.723  17.890  0.00  0.00    +0.000 Cl
ATOM     25  C   UNL     1       0.600  15.142  21.934  0.00  0.00    +0.000 A 
ATOM     26  C   UNL     1       1.524  15.190  20.881  0.00  0.00    +0.000 A 
ATOM     27  C   UNL     1      -0.717  15.564  21.703  0.00  0.00    +0.000 A 
ATOM     28  C   UNL     1       1.138  15.666  19.621  0.00  0.00    +0.000 A 
ATOM     29  C   UNL     1      -1.104  16.038  20.451  0.00  0.00    +0.000 A 
ATOM     30  C   UNL     1      -0.176  16.098  19.407  0.00  0.00    +0.000 A 
ENDBRANCH  22  25
ENDBRANCH  21  22
ENDBRANCH  19  21
ENDBRANCH   5  20
TORSDOF 6
ENDMDL
MODEL 5
REMARK VINA RESULT:      -6.5     25.895     29.001
REMARK  Name = 155269220
REMARK  9 active torsions:
REMARK  status: ('A' for Active; 'I' for Inactive)
REMARK    1  A    between atoms: O_4  and  N_7
REMARK    2  A    between atoms: O_4  and  C_24
REMARK    3  A    between atoms: C_8  and  C_9
REMARK    4  A    between atoms: C_8  and  C_10
REMARK    5  A    between atoms: C_8  and  C_11
REMARK    6  A    between atoms: C_8  and  C_12
REMARK    7  A    between atoms: C_15  and  C_18
REMARK    8  A    between atoms: C_19  and  C_22
REMARK    9  A    between atoms: C_24  and  C_25
REMARK                            x       y       z     vdW  Elec       q    Type
REMARK                         _______ _______ _______ _____ _____    ______ ____
ROOT
ATOM      1  S   UNL     1      14.944  15.418  25.503  0.00  0.00    +0.000 S 
ATOM      2  N   UNL     1      12.893  13.869  25.529  0.00  0.00    +0.000 N 
ATOM      3  N   UNL     1      12.450  15.631  24.230  0.00  0.00    +0.000 NA
ATOM      4  C   UNL     1      11.358  14.777  24.280  0.00  0.00    +0.000 A 
ATOM      5  C   UNL     1      11.608  13.660  25.089  0.00  0.00    +0.000 A 
ATOM      6  C   UNL     1      13.316  15.056  25.012  0.00  0.00    +0.000 A 
ATOM      7  C   UNL     1      13.832  13.198  26.285  0.00  0.00    +0.000 A 
ATOM      8  C   UNL     1      14.978  13.892  26.396  0.00  0.00    +0.000 A 
ENDROOT
BRANCH   4  12
ATOM      9  C   UNL     1       7.800  15.713  22.047  0.00  0.00    +0.000 A 
ATOM     10  C   UNL     1       8.002  16.204  23.345  0.00  0.00    +0.000 A 
ATOM     11  C   UNL     1       8.777  14.844  21.530  0.00  0.00    +0.000 A 
ATOM     12  C   UNL     1      10.136  15.046  23.530  0.00  0.00    +0.000 A 
ATOM     13  C   UNL     1       9.154  15.874  24.077  0.00  0.00    +0.000 A 
ATOM     14  C   UNL     1       9.915  14.500  22.266  0.00  0.00    +0.000 A 
BRANCH   9  15
ATOM     15  C   UNL     1       6.581  16.087  21.187  0.00  0.00    +0.000 C 
ATOM     16  C   UNL     1       6.617  17.538  20.657  0.00  0.00    +0.000 C 
ATOM     17  C   UNL     1       6.514  15.149  19.962  0.00  0.00    +0.000 C 
ATOM     18  C   UNL     1       5.284  15.932  22.009  0.00  0.00    +0.000 C 
ENDBRANCH   9  15
ENDBRANCH   4  12
BRANCH   5  20
ATOM     19  N   UNL     1      10.762  11.396  24.665  0.00  0.00    +0.000 NA
ATOM     20  C   UNL     1      10.796  12.503  25.348  0.00  0.00    +0.000 C 
BRANCH  19  21
ATOM     21  O   UNL     1      11.762  11.363  23.687  0.00  0.00    +0.000 OA
BRANCH  21  22
ATOM     22  C   UNL     1      11.187  11.525  22.391  0.00  0.00    +0.000 C 
BRANCH  22  25
ATOM     23 CL   UNL     1      10.818   6.374  21.666  0.00  0.00    +0.000 Cl
ATOM     24 CL   UNL     1      12.826   6.710  19.127  0.00  0.00    +0.000 Cl
ATOM     25  C   UNL     1      11.546  10.305  21.580  0.00  0.00    +0.000 A 
ATOM     26  C   UNL     1      11.070   9.033  21.925  0.00  0.00    +0.000 A 
ATOM     27  C   UNL     1      12.391  10.437  20.468  0.00  0.00    +0.000 A 
ATOM     28  C   UNL     1      11.444   7.909  21.176  0.00  0.00    +0.000 A 
ATOM     29  C   UNL     1      12.764   9.322  19.723  0.00  0.00    +0.000 A 
ATOM     30  C   UNL     1      12.299   8.052  20.077  0.00  0.00    +0.000 A 
ENDBRANCH  22  25
ENDBRANCH  21  22
ENDBRANCH  19  21
ENDBRANCH   5  20
TORSDOF 6
ENDMDL
MODEL 6
REMARK VINA RESULT:      -6.5     18.796     22.299
REMARK  Name = 155269220
REMARK  9 active torsions:
REMARK  status: ('A' for Active; 'I' for Inactive)
REMARK    1  A    between atoms: O_4  and  N_7
REMARK    2  A    between atoms: O_4  and  C_24
REMARK    3  A    between atoms: C_8  and  C_9
REMARK    4  A    between atoms: C_8  and  C_10
REMARK    5  A    between atoms: C_8  and  C_11
REMARK    6  A    between atoms: C_8  and  C_12
REMARK    7  A    between atoms: C_15  and  C_18
REMARK    8  A    between atoms: C_19  and  C_22
REMARK    9  A    between atoms: C_24  and  C_25
REMARK                            x       y       z     vdW  Elec       q    Type
REMARK                         _______ _______ _______ _____ _____    ______ ____
ROOT
ATOM      1  S   UNL     1       4.190  17.234  17.748  0.00  0.00    +0.000 S 
ATOM      2  N   UNL     1       2.628  15.872  19.267  0.00  0.00    +0.000 N 
ATOM      3  N   UNL     1       1.388  17.105  17.878  0.00  0.00    +0.000 NA
ATOM      4  C   UNL     1       0.577  16.364  18.725  0.00  0.00    +0.000 A 
ATOM      5  C   UNL     1       1.330  15.579  19.609  0.00  0.00    +0.000 A 
ATOM      6  C   UNL     1       2.590  16.794  18.265  0.00  0.00    +0.000 A 
ATOM      7  C   UNL     1       3.894  15.459  19.629  0.00  0.00    +0.000 A 
ATOM      8  C   UNL     1       4.849  16.102  18.935  0.00  0.00    +0.000 A 
ENDROOT
BRANCH   4  12
ATOM      9  C   UNL     1      -3.716  16.356  18.423  0.00  0.00    +0.000 A 
ATOM     10  C   UNL     1      -2.900  16.220  17.290  0.00  0.00    +0.000 A 
ATOM     11  C   UNL     1      -3.073  16.566  19.656  0.00  0.00    +0.000 A 
ATOM     12  C   UNL     1      -0.878  16.412  18.634  0.00  0.00    +0.000 A 
ATOM     13  C   UNL     1      -1.500  16.248  17.394  0.00  0.00    +0.000 A 
ATOM     14  C   UNL     1      -1.679  16.613  19.756  0.00  0.00    +0.000 A 
BRANCH   9  15
ATOM     15  C   UNL     1      -5.251  16.280  18.367  0.00  0.00    +0.000 C 
ATOM     16  C   UNL     1      -5.936  16.576  19.720  0.00  0.00    +0.000 C 
ATOM     17  C   UNL     1      -5.776  17.314  17.347  0.00  0.00    +0.000 C 
ATOM     18  C   UNL     1      -5.697  14.870  17.927  0.00  0.00    +0.000 C 
ENDBRANCH   9  15
ENDBRANCH   4  12
BRANCH   5  20
ATOM     19  N   UNL     1       1.005  14.701  21.877  0.00  0.00    +0.000 NA
ATOM     20  C   UNL     1       0.902  14.613  20.583  0.00  0.00    +0.000 C 
BRANCH  19  21
ATOM     21  O   UNL     1       1.453  15.966  22.274  0.00  0.00    +0.000 OA
BRANCH  21  22
ATOM     22  C   UNL     1       1.792  15.954  23.660  0.00  0.00    +0.000 C 
BRANCH  22  25
ATOM     23 CL   UNL     1       6.832  15.203  22.551  0.00  0.00    +0.000 Cl
ATOM     24 CL   UNL     1       7.494  17.832  24.351  0.00  0.00    +0.000 Cl
ATOM     25  C   UNL     1       3.223  16.412  23.781  0.00  0.00    +0.000 A 
ATOM     26  C   UNL     1       4.270  15.704  23.174  0.00  0.00    +0.000 A 
ATOM     27  C   UNL     1       3.523  17.557  24.533  0.00  0.00    +0.000 A 
ATOM     28  C   UNL     1       5.596  16.130  23.328  0.00  0.00    +0.000 A 
ATOM     29  C   UNL     1       4.840  17.982  24.689  0.00  0.00    +0.000 A 
ATOM     30  C   UNL     1       5.883  17.266  24.093  0.00  0.00    +0.000 A 
ENDBRANCH  22  25
ENDBRANCH  21  22
ENDBRANCH  19  21
ENDBRANCH   5  20
TORSDOF 6
ENDMDL
MODEL 7
REMARK VINA RESULT:      -6.4     33.235     36.563
REMARK  Name = 155269220
REMARK  9 active torsions:
REMARK  status: ('A' for Active; 'I' for Inactive)
REMARK    1  A    between atoms: O_4  and  N_7
REMARK    2  A    between atoms: O_4  and  C_24
REMARK    3  A    between atoms: C_8  and  C_9
REMARK    4  A    between atoms: C_8  and  C_10
REMARK    5  A    between atoms: C_8  and  C_11
REMARK    6  A    between atoms: C_8  and  C_12
REMARK    7  A    between atoms: C_15  and  C_18
REMARK    8  A    between atoms: C_19  and  C_22
REMARK    9  A    between atoms: C_24  and  C_25
REMARK                            x       y       z     vdW  Elec       q    Type
REMARK                         _______ _______ _______ _____ _____    ______ ____
ROOT
ATOM      1  S   UNL     1      23.279   2.913  21.303  0.00  0.00    +0.000 S 
ATOM      2  N   UNL     1      22.680   5.351  20.751  0.00  0.00    +0.000 N 
ATOM      3  N   UNL     1      20.796   4.159  20.891  0.00  0.00    +0.000 NA
ATOM      4  C   UNL     1      20.514   5.481  20.579  0.00  0.00    +0.000 A 
ATOM      5  C   UNL     1      21.680   6.253  20.486  0.00  0.00    +0.000 A 
ATOM      6  C   UNL     1      22.096   4.137  20.951  0.00  0.00    +0.000 A 
ATOM      7  C   UNL     1      24.052   5.366  20.903  0.00  0.00    +0.000 A 
ATOM      8  C   UNL     1      24.541   4.144  21.175  0.00  0.00    +0.000 A 
ENDROOT
BRANCH   4  12
ATOM      9  C   UNL     1      16.528   7.023  20.065  0.00  0.00    +0.000 A 
ATOM     10  C   UNL     1      17.331   7.409  21.149  0.00  0.00    +0.000 A 
ATOM     11  C   UNL     1      17.055   6.056  19.189  0.00  0.00    +0.000 A 
ATOM     12  C   UNL     1      19.145   5.957  20.418  0.00  0.00    +0.000 A 
ATOM     13  C   UNL     1      18.621   6.883  21.323  0.00  0.00    +0.000 A 
ATOM     14  C   UNL     1      18.332   5.518  19.374  0.00  0.00    +0.000 A 
BRANCH   9  15
ATOM     15  C   UNL     1      15.131   7.609  19.803  0.00  0.00    +0.000 C 
ATOM     16  C   UNL     1      15.027   9.121  20.100  0.00  0.00    +0.000 C 
ATOM     17  C   UNL     1      14.762   7.403  18.317  0.00  0.00    +0.000 C 
ATOM     18  C   UNL     1      14.083   6.896  20.683  0.00  0.00    +0.000 C 
ENDBRANCH   9  15
ENDBRANCH   4  12
BRANCH   5  20
ATOM     19  N   UNL     1      22.082   8.577  21.164  0.00  0.00    +0.000 NA
ATOM     20  C   UNL     1      21.840   7.665  20.268  0.00  0.00    +0.000 C 
BRANCH  19  21
ATOM     21  O   UNL     1      22.347   8.012  22.417  0.00  0.00    +0.000 OA
BRANCH  21  22
ATOM     22  C   UNL     1      21.246   8.231  23.297  0.00  0.00    +0.000 C 
BRANCH  22  25
ATOM     23 CL   UNL     1      20.147   7.101  28.268  0.00  0.00    +0.000 Cl
ATOM     24 CL   UNL     1      22.179   4.572  28.015  0.00  0.00    +0.000 Cl
ATOM     25  C   UNL     1      21.427   7.321  24.485  0.00  0.00    +0.000 A 
ATOM     26  C   UNL     1      20.775   7.569  25.701  0.00  0.00    +0.000 A 
ATOM     27  C   UNL     1      22.281   6.213  24.385  0.00  0.00    +0.000 A 
ATOM     28  C   UNL     1      20.984   6.728  26.802  0.00  0.00    +0.000 A 
ATOM     29  C   UNL     1      22.491   5.376  25.478  0.00  0.00    +0.000 A 
ATOM     30  C   UNL     1      21.850   5.633  26.693  0.00  0.00    +0.000 A 
ENDBRANCH  22  25
ENDBRANCH  21  22
ENDBRANCH  19  21
ENDBRANCH   5  20
TORSDOF 6
ENDMDL
MODEL 8
REMARK VINA RESULT:      -6.4      7.431      9.653
REMARK  Name = 155269220
REMARK  9 active torsions:
REMARK  status: ('A' for Active; 'I' for Inactive)
REMARK    1  A    between atoms: O_4  and  N_7
REMARK    2  A    between atoms: O_4  and  C_24
REMARK    3  A    between atoms: C_8  and  C_9
REMARK    4  A    between atoms: C_8  and  C_10
REMARK    5  A    between atoms: C_8  and  C_11
REMARK    6  A    between atoms: C_8  and  C_12
REMARK    7  A    between atoms: C_15  and  C_18
REMARK    8  A    between atoms: C_19  and  C_22
REMARK    9  A    between atoms: C_24  and  C_25
REMARK                            x       y       z     vdW  Elec       q    Type
REMARK                         _______ _______ _______ _____ _____    ______ ____
ROOT
ATOM      1  S   UNL     1     -12.548  10.940  26.679  0.00  0.00    +0.000 S 
ATOM      2  N   UNL     1     -14.106  10.740  24.644  0.00  0.00    +0.000 N 
ATOM      3  N   UNL     1     -12.067  11.317  23.937  0.00  0.00    +0.000 NA
ATOM      4  C   UNL     1     -12.942  11.212  22.866  0.00  0.00    +0.000 A 
ATOM      5  C   UNL     1     -14.231  10.851  23.281  0.00  0.00    +0.000 A 
ATOM      6  C   UNL     1     -12.820  11.054  24.965  0.00  0.00    +0.000 A 
ATOM      7  C   UNL     1     -14.897  10.368  25.713  0.00  0.00    +0.000 A 
ATOM      8  C   UNL     1     -14.232  10.441  26.879  0.00  0.00    +0.000 A 
ENDROOT
BRANCH   4  12
ATOM      9  C   UNL     1     -11.718  11.724  18.771  0.00  0.00    +0.000 A 
ATOM     10  C   UNL     1     -11.150  10.736  19.590  0.00  0.00    +0.000 A 
ATOM     11  C   UNL     1     -12.657  12.587  19.365  0.00  0.00    +0.000 A 
ATOM     12  C   UNL     1     -12.504  11.429  21.492  0.00  0.00    +0.000 A 
ATOM     13  C   UNL     1     -11.537  10.592  20.932  0.00  0.00    +0.000 A 
ATOM     14  C   UNL     1     -13.027  12.455  20.706  0.00  0.00    +0.000 A 
BRANCH   9  15
ATOM     15  C   UNL     1     -11.365  11.888  17.284  0.00  0.00    +0.000 C 
ATOM     16  C   UNL     1     -10.832  13.292  16.924  0.00  0.00    +0.000 C 
ATOM     17  C   UNL     1     -10.270  10.867  16.904  0.00  0.00    +0.000 C 
ATOM     18  C   UNL     1     -12.612  11.634  16.411  0.00  0.00    +0.000 C 
ENDBRANCH   9  15
ENDBRANCH   4  12
BRANCH   5  20
ATOM     19  N   UNL     1     -15.798   9.389  22.084  0.00  0.00    +0.000 NA
ATOM     20  C   UNL     1     -15.405  10.556  22.505  0.00  0.00    +0.000 C 
BRANCH  19  21
ATOM     21  O   UNL     1     -15.016   8.358  22.618  0.00  0.00    +0.000 OA
BRANCH  21  22
ATOM     22  C   UNL     1     -15.080   7.208  21.776  0.00  0.00    +0.000 C 
BRANCH  22  25
ATOM     23 CL   UNL     1     -13.513   8.331  16.930  0.00  0.00    +0.000 Cl
ATOM     24 CL   UNL     1     -10.508   7.463  17.831  0.00  0.00    +0.000 Cl
ATOM     25  C   UNL     1     -13.959   7.318  20.773  0.00  0.00    +0.000 A 
ATOM     26  C   UNL     1     -14.194   7.741  19.458  0.00  0.00    +0.000 A 
ATOM     27  C   UNL     1     -12.654   6.971  21.153  0.00  0.00    +0.000 A 
ATOM     28  C   UNL     1     -13.142   7.803  18.534  0.00  0.00    +0.000 A 
ATOM     29  C   UNL     1     -11.607   7.031  20.237  0.00  0.00    +0.000 A 
ATOM     30  C   UNL     1     -11.847   7.440  18.922  0.00  0.00    +0.000 A 
ENDBRANCH  22  25
ENDBRANCH  21  22
ENDBRANCH  19  21
ENDBRANCH   5  20
TORSDOF 6
ENDMDL
MODEL 9
REMARK VINA RESULT:      -6.3     33.423     37.284
REMARK  Name = 155269220
REMARK  9 active torsions:
REMARK  status: ('A' for Active; 'I' for Inactive)
REMARK    1  A    between atoms: O_4  and  N_7
REMARK    2  A    between atoms: O_4  and  C_24
REMARK    3  A    between atoms: C_8  and  C_9
REMARK    4  A    between atoms: C_8  and  C_10
REMARK    5  A    between atoms: C_8  and  C_11
REMARK    6  A    between atoms: C_8  and  C_12
REMARK    7  A    between atoms: C_15  and  C_18
REMARK    8  A    between atoms: C_19  and  C_22
REMARK    9  A    between atoms: C_24  and  C_25
REMARK                            x       y       z     vdW  Elec       q    Type
REMARK                         _______ _______ _______ _____ _____    ______ ____
ROOT
ATOM      1  S   UNL     1      10.139   6.590  -4.226  0.00  0.00    +0.000 S 
ATOM      2  N   UNL     1      11.136   4.867  -2.601  0.00  0.00    +0.000 N 
ATOM      3  N   UNL     1      10.000   6.391  -1.428  0.00  0.00    +0.000 NA
ATOM      4  C   UNL     1      10.567   5.449  -0.582  0.00  0.00    +0.000 A 
ATOM      5  C   UNL     1      11.286   4.478  -1.292  0.00  0.00    +0.000 A 
ATOM      6  C   UNL     1      10.396   6.010  -2.607  0.00  0.00    +0.000 A 
ATOM      7  C   UNL     1      11.487   4.395  -3.850  0.00  0.00    +0.000 A 
ATOM      8  C   UNL     1      11.057   5.206  -4.832  0.00  0.00    +0.000 A 
ENDROOT
BRANCH   4  12
ATOM      9  C   UNL     1      10.137   5.592   3.698  0.00  0.00    +0.000 A 
ATOM     10  C   UNL     1      10.598   4.439   3.045  0.00  0.00    +0.000 A 
ATOM     11  C   UNL     1       9.755   6.678   2.891  0.00  0.00    +0.000 A 
ATOM     12  C   UNL     1      10.370   5.497   0.863  0.00  0.00    +0.000 A 
ATOM     13  C   UNL     1      10.712   4.392   1.646  0.00  0.00    +0.000 A 
ATOM     14  C   UNL     1       9.850   6.624   1.498  0.00  0.00    +0.000 A 
BRANCH   9  15
ATOM     15  C   UNL     1      10.044   5.709   5.229  0.00  0.00    +0.000 C 
ATOM     16  C   UNL     1       9.848   4.354   5.944  0.00  0.00    +0.000 C 
ATOM     17  C   UNL     1      11.347   6.335   5.772  0.00  0.00    +0.000 C 
ATOM     18  C   UNL     1       8.853   6.609   5.621  0.00  0.00    +0.000 C 
ENDBRANCH   9  15
ENDBRANCH   4  12
BRANCH   5  20
ATOM     19  N   UNL     1      13.232   3.083  -0.755  0.00  0.00    +0.000 NA
ATOM     20  C   UNL     1      11.950   3.292  -0.825  0.00  0.00    +0.000 C 
BRANCH  19  21
ATOM     21  O   UNL     1      13.960   4.243  -1.044  0.00  0.00    +0.000 OA
BRANCH  21  22
ATOM     22  C   UNL     1      14.848   4.544   0.031  0.00  0.00    +0.000 C 
BRANCH  22  25
ATOM     23 CL   UNL     1      12.710   9.301   0.034  0.00  0.00    +0.000 Cl
ATOM     24 CL   UNL     1      12.604   9.119   3.282  0.00  0.00    +0.000 Cl
ATOM     25  C   UNL     1      14.250   5.692   0.806  0.00  0.00    +0.000 A 
ATOM     26  C   UNL     1      13.783   6.845   0.159  0.00  0.00    +0.000 A 
ATOM     27  C   UNL     1      14.175   5.618   2.204  0.00  0.00    +0.000 A 
ATOM     28  C   UNL     1      13.262   7.912   0.903  0.00  0.00    +0.000 A 
ATOM     29  C   UNL     1      13.658   6.678   2.946  0.00  0.00    +0.000 A 
ATOM     30  C   UNL     1      13.206   7.832   2.299  0.00  0.00    +0.000 A 
ENDBRANCH  22  25
ENDBRANCH  21  22
ENDBRANCH  19  21
ENDBRANCH   5  20
TORSDOF 6
ENDMDL
MODEL 10
REMARK VINA RESULT:      -6.2     15.991     19.362
REMARK  Name = 155269220
REMARK  9 active torsions:
REMARK  status: ('A' for Active; 'I' for Inactive)
REMARK    1  A    between atoms: O_4  and  N_7
REMARK    2  A    between atoms: O_4  and  C_24
REMARK    3  A    between atoms: C_8  and  C_9
REMARK    4  A    between atoms: C_8  and  C_10
REMARK    5  A    between atoms: C_8  and  C_11
REMARK    6  A    between atoms: C_8  and  C_12
REMARK    7  A    between atoms: C_15  and  C_18
REMARK    8  A    between atoms: C_19  and  C_22
REMARK    9  A    between atoms: C_24  and  C_25
REMARK                            x       y       z     vdW  Elec       q    Type
REMARK                         _______ _______ _______ _____ _____    ______ ____
ROOT
ATOM      1  S   UNL     1      -8.397  10.263  35.844  0.00  0.00    +0.000 S 
ATOM      2  N   UNL     1      -6.191  11.135  36.833  0.00  0.00    +0.000 N 
ATOM      3  N   UNL     1      -6.297   8.926  37.145  0.00  0.00    +0.000 NA
ATOM      4  C   UNL     1      -5.123   9.437  37.679  0.00  0.00    +0.000 A 
ATOM      5  C   UNL     1      -5.029  10.823  37.497  0.00  0.00    +0.000 A 
ATOM      6  C   UNL     1      -6.900   9.983  36.684  0.00  0.00    +0.000 A 
ATOM      7  C   UNL     1      -6.772  12.253  36.268  0.00  0.00    +0.000 A 
ATOM      8  C   UNL     1      -7.966  11.973  35.718  0.00  0.00    +0.000 A 
ENDROOT
BRANCH   4  12
ATOM      9  C   UNL     1      -2.085   7.013  39.528  0.00  0.00    +0.000 A 
ATOM     10  C   UNL     1      -2.041   7.329  38.162  0.00  0.00    +0.000 A 
ATOM     11  C   UNL     1      -3.201   7.463  40.256  0.00  0.00    +0.000 A 
ATOM     12  C   UNL     1      -4.128   8.577  38.310  0.00  0.00    +0.000 A 
ATOM     13  C   UNL     1      -3.049   8.101  37.561  0.00  0.00    +0.000 A 
ATOM     14  C   UNL     1      -4.214   8.214  39.653  0.00  0.00    +0.000 A 
BRANCH   9  15
ATOM     15  C   UNL     1      -0.980   6.216  40.242  0.00  0.00    +0.000 C 
ATOM     16  C   UNL     1      -0.066   7.086  41.134  0.00  0.00    +0.000 C 
ATOM     17  C   UNL     1      -1.628   5.146  41.148  0.00  0.00    +0.000 C 
ATOM     18  C   UNL     1      -0.076   5.516  39.206  0.00  0.00    +0.000 C 
ENDBRANCH   9  15
ENDBRANCH   4  12
BRANCH   5  20
ATOM     19  N   UNL     1      -3.029  12.162  37.016  0.00  0.00    +0.000 NA
ATOM     20  C   UNL     1      -3.960  11.729  37.816  0.00  0.00    +0.000 C 
BRANCH  19  21
ATOM     21  O   UNL     1      -3.265  11.771  35.693  0.00  0.00    +0.000 OA
BRANCH  21  22
ATOM     22  C   UNL     1      -2.352  12.431  34.817  0.00  0.00    +0.000 C 
BRANCH  22  25
ATOM     23 CL   UNL     1      -6.705  12.400  31.944  0.00  0.00    +0.000 Cl
ATOM     24 CL   UNL     1      -5.393  14.776  30.150  0.00  0.00    +0.000 Cl
ATOM     25  C   UNL     1      -3.156  13.014  33.682  0.00  0.00    +0.000 A 
ATOM     26  C   UNL     1      -4.429  12.524  33.360  0.00  0.00    +0.000 A 
ATOM     27  C   UNL     1      -2.614  14.056  32.914  0.00  0.00    +0.000 A 
ATOM     28  C   UNL     1      -5.143  13.059  32.280  0.00  0.00    +0.000 A 
ATOM     29  C   UNL     1      -3.321  14.589  31.839  0.00  0.00    +0.000 A 
ATOM     30  C   UNL     1      -4.585  14.089  31.512  0.00  0.00    +0.000 A 
ENDBRANCH  22  25
ENDBRANCH  21  22
ENDBRANCH  19  21
ENDBRANCH   5  20
TORSDOF 6
ENDMDL
