MODEL 1
REMARK VINA RESULT:      -5.4      0.000      0.000
REMARK  Name = 155269237
REMARK  6 active torsions:
REMARK  status: ('A' for Active; 'I' for Inactive)
REMARK    1  A    between atoms: O_4  and  N_7
REMARK    2  A    between atoms: O_4  and  C_22
REMARK    3  A    between atoms: C_8  and  C_10
REMARK    4  A    between atoms: C_9  and  C_15
REMARK    5  A    between atoms: C_16  and  C_20
REMARK    6  A    between atoms: C_21  and  C_22
REMARK                            x       y       z     vdW  Elec       q    Type
REMARK                         _______ _______ _______ _____ _____    ______ ____
ROOT
ATOM      1  S   UNL     1     -26.133   6.853 -59.191  0.00  0.00    +0.000 S 
ATOM      2  N   UNL     1     -24.902   5.172 -57.684  0.00  0.00    +0.000 N 
ATOM      3  N   UNL     1     -24.995   7.145 -56.643  0.00  0.00    +0.000 NA
ATOM      4  C   UNL     1     -24.326   6.215 -55.861  0.00  0.00    +0.000 A 
ATOM      5  C   UNL     1     -24.252   4.965 -56.490  0.00  0.00    +0.000 A 
ATOM      6  C   UNL     1     -25.287   6.477 -57.720  0.00  0.00    +0.000 A 
ATOM      7  C   UNL     1     -25.287   4.427 -58.781  0.00  0.00    +0.000 A 
ATOM      8  C   UNL     1     -25.936   5.169 -59.693  0.00  0.00    +0.000 A 
ENDROOT
BRANCH   4   9
ATOM      9  C   UNL     1     -23.810   6.564 -54.541  0.00  0.00    +0.000 A 
ATOM     10  C   UNL     1     -22.658   7.356 -54.441  0.00  0.00    +0.000 A 
ATOM     11  C   UNL     1     -24.419   6.119 -53.363  0.00  0.00    +0.000 A 
ATOM     12  C   UNL     1     -22.792   7.322 -52.018  0.00  0.00    +0.000 A 
ATOM     13  C   UNL     1     -22.152   7.732 -53.190  0.00  0.00    +0.000 A 
ATOM     14  C   UNL     1     -23.925   6.507 -52.114  0.00  0.00    +0.000 A 
ATOM     15  C   UNL     1     -22.279   7.726 -50.667  0.00  0.00    +0.000 C 
ENDBRANCH   4   9
BRANCH   5  17
ATOM     16  N   UNL     1     -22.577   3.179 -56.294  0.00  0.00    +0.000 NA
ATOM     17  C   UNL     1     -23.727   3.716 -56.008  0.00  0.00    +0.000 C 
BRANCH  16  18
ATOM     18  O   UNL     1     -21.774   4.046 -57.044  0.00  0.00    +0.000 OA
BRANCH  18  19
ATOM     19  C   UNL     1     -20.630   4.439 -56.286  0.00  0.00    +0.000 C 
BRANCH  19  22
ATOM     20 CL   UNL     1     -21.657   8.602 -59.255  0.00  0.00    +0.000 Cl
ATOM     21 CL   UNL     1     -19.134  10.088 -57.836  0.00  0.00    +0.000 Cl
ATOM     22  C   UNL     1     -20.298   5.854 -56.687  0.00  0.00    +0.000 A 
ATOM     23  C   UNL     1     -21.035   6.528 -57.671  0.00  0.00    +0.000 A 
ATOM     24  C   UNL     1     -19.225   6.515 -56.071  0.00  0.00    +0.000 A 
ATOM     25  C   UNL     1     -20.698   7.838 -58.037  0.00  0.00    +0.000 A 
ATOM     26  C   UNL     1     -18.889   7.820 -56.433  0.00  0.00    +0.000 A 
ATOM     27  C   UNL     1     -19.620   8.482 -57.421  0.00  0.00    +0.000 A 
ENDBRANCH  19  22
ENDBRANCH  18  19
ENDBRANCH  16  18
ENDBRANCH   5  17
TORSDOF 5
ENDMDL
MODEL 2
REMARK VINA RESULT:      -5.3     17.800     19.702
REMARK  Name = 155269237
REMARK  6 active torsions:
REMARK  status: ('A' for Active; 'I' for Inactive)
REMARK    1  A    between atoms: O_4  and  N_7
REMARK    2  A    between atoms: O_4  and  C_22
REMARK    3  A    between atoms: C_8  and  C_10
REMARK    4  A    between atoms: C_9  and  C_15
REMARK    5  A    between atoms: C_16  and  C_20
REMARK    6  A    between atoms: C_21  and  C_22
REMARK                            x       y       z     vdW  Elec       q    Type
REMARK                         _______ _______ _______ _____ _____    ______ ____
ROOT
ATOM      1  S   UNL     1      -8.168  -1.442 -53.329  0.00  0.00    +0.000 S 
ATOM      2  N   UNL     1      -6.439   0.064 -52.164  0.00  0.00    +0.000 N 
ATOM      3  N   UNL     1      -6.765   0.810 -54.243  0.00  0.00    +0.000 NA
ATOM      4  C   UNL     1      -5.828   1.596 -53.587  0.00  0.00    +0.000 A 
ATOM      5  C   UNL     1      -5.603   1.149 -52.278  0.00  0.00    +0.000 A 
ATOM      6  C   UNL     1      -7.070  -0.095 -53.360  0.00  0.00    +0.000 A 
ATOM      7  C   UNL     1      -6.821  -0.834 -51.188  0.00  0.00    +0.000 A 
ATOM      8  C   UNL     1      -7.721  -1.721 -51.642  0.00  0.00    +0.000 A 
ENDROOT
BRANCH   4   9
ATOM      9  C   UNL     1      -5.211   2.746 -54.240  0.00  0.00    +0.000 A 
ATOM     10  C   UNL     1      -5.605   4.039 -53.869  0.00  0.00    +0.000 A 
ATOM     11  C   UNL     1      -4.245   2.603 -55.241  0.00  0.00    +0.000 A 
ATOM     12  C   UNL     1      -4.016   5.015 -55.423  0.00  0.00    +0.000 A 
ATOM     13  C   UNL     1      -5.013   5.165 -54.456  0.00  0.00    +0.000 A 
ATOM     14  C   UNL     1      -3.642   3.726 -55.815  0.00  0.00    +0.000 A 
ATOM     15  C   UNL     1      -3.356   6.206 -56.052  0.00  0.00    +0.000 C 
ENDBRANCH   4   9
BRANCH   5  17
ATOM     16  N   UNL     1      -3.580   1.356 -50.898  0.00  0.00    +0.000 NA
ATOM     17  C   UNL     1      -4.786   1.711 -51.236  0.00  0.00    +0.000 C 
BRANCH  16  18
ATOM     18  O   UNL     1      -3.051   0.415 -51.789  0.00  0.00    +0.000 OA
BRANCH  18  19
ATOM     19  C   UNL     1      -2.647  -0.759 -51.084  0.00  0.00    +0.000 C 
BRANCH  19  22
ATOM     20 CL   UNL     1      -5.028  -3.013 -55.140  0.00  0.00    +0.000 Cl
ATOM     21 CL   UNL     1      -5.958  -5.389 -53.122  0.00  0.00    +0.000 Cl
ATOM     22  C   UNL     1      -3.458  -1.906 -51.632  0.00  0.00    +0.000 A 
ATOM     23  C   UNL     1      -3.839  -1.954 -52.981  0.00  0.00    +0.000 A 
ATOM     24  C   UNL     1      -3.851  -2.948 -50.780  0.00  0.00    +0.000 A 
ATOM     25  C   UNL     1      -4.604  -3.023 -53.465  0.00  0.00    +0.000 A 
ATOM     26  C   UNL     1      -4.612  -4.013 -51.259  0.00  0.00    +0.000 A 
ATOM     27  C   UNL     1      -4.996  -4.051 -52.601  0.00  0.00    +0.000 A 
ENDBRANCH  19  22
ENDBRANCH  18  19
ENDBRANCH  16  18
ENDBRANCH   5  17
TORSDOF 5
ENDMDL
MODEL 3
REMARK VINA RESULT:      -5.3     22.220     23.823
REMARK  Name = 155269237
REMARK  6 active torsions:
REMARK  status: ('A' for Active; 'I' for Inactive)
REMARK    1  A    between atoms: O_4  and  N_7
REMARK    2  A    between atoms: O_4  and  C_22
REMARK    3  A    between atoms: C_8  and  C_10
REMARK    4  A    between atoms: C_9  and  C_15
REMARK    5  A    between atoms: C_16  and  C_20
REMARK    6  A    between atoms: C_21  and  C_22
REMARK                            x       y       z     vdW  Elec       q    Type
REMARK                         _______ _______ _______ _____ _____    ______ ____
ROOT
ATOM      1  S   UNL     1     -14.888   3.165 -32.068  0.00  0.00    +0.000 S 
ATOM      2  N   UNL     1     -14.453   5.624 -32.682  0.00  0.00    +0.000 N 
ATOM      3  N   UNL     1     -16.589   5.136 -33.113  0.00  0.00    +0.000 NA
ATOM      4  C   UNL     1     -16.316   6.456 -33.443  0.00  0.00    +0.000 A 
ATOM      5  C   UNL     1     -14.980   6.791 -33.183  0.00  0.00    +0.000 A 
ATOM      6  C   UNL     1     -15.442   4.688 -32.694  0.00  0.00    +0.000 A 
ATOM      7  C   UNL     1     -13.254   5.188 -32.153  0.00  0.00    +0.000 A 
ATOM      8  C   UNL     1     -13.301   3.895 -31.793  0.00  0.00    +0.000 A 
ENDROOT
BRANCH   4   9
ATOM      9  C   UNL     1     -17.353   7.337 -33.971  0.00  0.00    +0.000 A 
ATOM     10  C   UNL     1     -18.565   7.464 -33.278  0.00  0.00    +0.000 A 
ATOM     11  C   UNL     1     -17.187   8.051 -35.162  0.00  0.00    +0.000 A 
ATOM     12  C   UNL     1     -19.380   9.067 -34.908  0.00  0.00    +0.000 A 
ATOM     13  C   UNL     1     -19.571   8.322 -33.742  0.00  0.00    +0.000 A 
ATOM     14  C   UNL     1     -18.183   8.920 -35.618  0.00  0.00    +0.000 A 
ATOM     15  C   UNL     1     -20.435  10.004 -35.416  0.00  0.00    +0.000 C 
ENDBRANCH   4   9
BRANCH   5  17
ATOM     16  N   UNL     1     -13.300   8.346 -34.073  0.00  0.00    +0.000 NA
ATOM     17  C   UNL     1     -14.303   8.054 -33.298  0.00  0.00    +0.000 C 
BRANCH  16  18
ATOM     18  O   UNL     1     -13.008   7.299 -34.955  0.00  0.00    +0.000 OA
BRANCH  18  19
ATOM     19  C   UNL     1     -12.172   7.765 -36.015  0.00  0.00    +0.000 C 
BRANCH  19  22
ATOM     20 CL   UNL     1      -7.222   6.145 -35.758  0.00  0.00    +0.000 Cl
ATOM     21 CL   UNL     1      -8.176   3.385 -37.192  0.00  0.00    +0.000 Cl
ATOM     22  C   UNL     1     -11.149   6.689 -36.277  0.00  0.00    +0.000 A 
ATOM     23  C   UNL     1      -9.799   6.864 -35.940  0.00  0.00    +0.000 A 
ATOM     24  C   UNL     1     -11.547   5.486 -36.877  0.00  0.00    +0.000 A 
ATOM     25  C   UNL     1      -8.865   5.855 -36.206  0.00  0.00    +0.000 A 
ATOM     26  C   UNL     1     -10.619   4.479 -37.142  0.00  0.00    +0.000 A 
ATOM     27  C   UNL     1      -9.275   4.663 -36.814  0.00  0.00    +0.000 A 
ENDBRANCH  19  22
ENDBRANCH  18  19
ENDBRANCH  16  18
ENDBRANCH   5  17
TORSDOF 5
ENDMDL
MODEL 4
REMARK VINA RESULT:      -5.2     17.800     19.715
REMARK  Name = 155269237
REMARK  6 active torsions:
REMARK  status: ('A' for Active; 'I' for Inactive)
REMARK    1  A    between atoms: O_4  and  N_7
REMARK    2  A    between atoms: O_4  and  C_22
REMARK    3  A    between atoms: C_8  and  C_10
REMARK    4  A    between atoms: C_9  and  C_15
REMARK    5  A    between atoms: C_16  and  C_20
REMARK    6  A    between atoms: C_21  and  C_22
REMARK                            x       y       z     vdW  Elec       q    Type
REMARK                         _______ _______ _______ _____ _____    ______ ____
ROOT
ATOM      1  S   UNL     1      -4.480   5.340 -54.783  0.00  0.00    +0.000 S 
ATOM      2  N   UNL     1      -4.453   2.868 -55.489  0.00  0.00    +0.000 N 
ATOM      3  N   UNL     1      -5.621   3.068 -53.597  0.00  0.00    +0.000 NA
ATOM      4  C   UNL     1      -5.578   1.742 -54.002  0.00  0.00    +0.000 A 
ATOM      5  C   UNL     1      -4.850   1.586 -55.189  0.00  0.00    +0.000 A 
ATOM      6  C   UNL     1      -4.916   3.682 -54.501  0.00  0.00    +0.000 A 
ATOM      7  C   UNL     1      -3.782   3.519 -56.504  0.00  0.00    +0.000 A 
ATOM      8  C   UNL     1      -3.685   4.840 -56.280  0.00  0.00    +0.000 A 
ENDROOT
BRANCH   4   9
ATOM      9  C   UNL     1      -6.253   0.694 -53.244  0.00  0.00    +0.000 A 
ATOM     10  C   UNL     1      -7.291  -0.031 -53.847  0.00  0.00    +0.000 A 
ATOM     11  C   UNL     1      -5.911   0.395 -51.921  0.00  0.00    +0.000 A 
ATOM     12  C   UNL     1      -7.564  -1.385 -51.852  0.00  0.00    +0.000 A 
ATOM     13  C   UNL     1      -7.941  -1.062 -53.157  0.00  0.00    +0.000 A 
ATOM     14  C   UNL     1      -6.548  -0.645 -51.237  0.00  0.00    +0.000 A 
ATOM     15  C   UNL     1      -8.234  -2.497 -51.099  0.00  0.00    +0.000 C 
ENDBRANCH   4   9
BRANCH   5  17
ATOM     16  N   UNL     1      -3.782  -0.550 -55.766  0.00  0.00    +0.000 NA
ATOM     17  C   UNL     1      -4.627   0.413 -55.991  0.00  0.00    +0.000 C 
BRANCH  16  18
ATOM     18  O   UNL     1      -3.168  -0.416 -54.515  0.00  0.00    +0.000 OA
BRANCH  18  19
ATOM     19  C   UNL     1      -2.442  -1.603 -54.192  0.00  0.00    +0.000 C 
BRANCH  19  22
ATOM     20 CL   UNL     1      -6.165  -4.959 -52.753  0.00  0.00    +0.000 Cl
ATOM     21 CL   UNL     1      -5.436  -4.258 -49.661  0.00  0.00    +0.000 Cl
ATOM     22  C   UNL     1      -3.200  -2.297 -53.089  0.00  0.00    +0.000 A 
ATOM     23  C   UNL     1      -4.223  -3.215 -53.369  0.00  0.00    +0.000 A 
ATOM     24  C   UNL     1      -2.885  -2.021 -51.751  0.00  0.00    +0.000 A 
ATOM     25  C   UNL     1      -4.921  -3.838 -52.327  0.00  0.00    +0.000 A 
ATOM     26  C   UNL     1      -3.579  -2.640 -50.712  0.00  0.00    +0.000 A 
ATOM     27  C   UNL     1      -4.603  -3.545 -50.997  0.00  0.00    +0.000 A 
ENDBRANCH  19  22
ENDBRANCH  18  19
ENDBRANCH  16  18
ENDBRANCH   5  17
TORSDOF 5
ENDMDL
MODEL 5
REMARK VINA RESULT:      -5.2     11.003     13.421
REMARK  Name = 155269237
REMARK  6 active torsions:
REMARK  status: ('A' for Active; 'I' for Inactive)
REMARK    1  A    between atoms: O_4  and  N_7
REMARK    2  A    between atoms: O_4  and  C_22
REMARK    3  A    between atoms: C_8  and  C_10
REMARK    4  A    between atoms: C_9  and  C_15
REMARK    5  A    between atoms: C_16  and  C_20
REMARK    6  A    between atoms: C_21  and  C_22
REMARK                            x       y       z     vdW  Elec       q    Type
REMARK                         _______ _______ _______ _____ _____    ______ ____
ROOT
ATOM      1  S   UNL     1     -16.578  13.523 -59.105  0.00  0.00    +0.000 S 
ATOM      2  N   UNL     1     -14.473  12.064 -59.330  0.00  0.00    +0.000 N 
ATOM      3  N   UNL     1     -14.221  13.435 -57.586  0.00  0.00    +0.000 NA
ATOM      4  C   UNL     1     -13.096  12.638 -57.743  0.00  0.00    +0.000 A 
ATOM      5  C   UNL     1     -13.226  11.766 -58.832  0.00  0.00    +0.000 A 
ATOM      6  C   UNL     1     -14.989  13.069 -58.570  0.00  0.00    +0.000 A 
ATOM      7  C   UNL     1     -15.315  11.601 -60.322  0.00  0.00    +0.000 A 
ATOM      8  C   UNL     1     -16.473  12.280 -60.358  0.00  0.00    +0.000 A 
ENDROOT
BRANCH   4   9
ATOM      9  C   UNL     1     -11.962  12.737 -56.830  0.00  0.00    +0.000 A 
ATOM     10  C   UNL     1     -11.842  13.863 -56.003  0.00  0.00    +0.000 A 
ATOM     11  C   UNL     1     -10.975  11.748 -56.760  0.00  0.00    +0.000 A 
ATOM     12  C   UNL     1      -9.823  12.963 -54.999  0.00  0.00    +0.000 A 
ATOM     13  C   UNL     1     -10.781  13.975 -55.095  0.00  0.00    +0.000 A 
ATOM     14  C   UNL     1      -9.925  11.853 -55.844  0.00  0.00    +0.000 A 
ATOM     15  C   UNL     1      -8.688  13.054 -54.023  0.00  0.00    +0.000 C 
ENDBRANCH   4   9
BRANCH   5  17
ATOM     16  N   UNL     1     -11.501  10.791 -60.285  0.00  0.00    +0.000 NA
ATOM     17  C   UNL     1     -12.346  10.728 -59.297  0.00  0.00    +0.000 C 
BRANCH  16  18
ATOM     18  O   UNL     1     -11.406  12.088 -60.801  0.00  0.00    +0.000 OA
BRANCH  18  19
ATOM     19  C   UNL     1     -10.038  12.431 -61.023  0.00  0.00    +0.000 C 
BRANCH  19  22
ATOM     20 CL   UNL     1      -6.814  13.752 -57.143  0.00  0.00    +0.000 Cl
ATOM     21 CL   UNL     1      -8.631  16.413 -56.697  0.00  0.00    +0.000 Cl
ATOM     22  C   UNL     1      -9.646  13.409 -59.945  0.00  0.00    +0.000 A 
ATOM     23  C   UNL     1      -8.535  13.183 -59.119  0.00  0.00    +0.000 A 
ATOM     24  C   UNL     1     -10.407  14.571 -59.753  0.00  0.00    +0.000 A 
ATOM     25  C   UNL     1      -8.199  14.100 -58.116  0.00  0.00    +0.000 A 
ATOM     26  C   UNL     1     -10.074  15.486 -58.754  0.00  0.00    +0.000 A 
ATOM     27  C   UNL     1      -8.973  15.250 -57.929  0.00  0.00    +0.000 A 
ENDBRANCH  19  22
ENDBRANCH  18  19
ENDBRANCH  16  18
ENDBRANCH   5  17
TORSDOF 5
ENDMDL
MODEL 6
REMARK VINA RESULT:      -5.0     32.740     34.507
REMARK  Name = 155269237
REMARK  6 active torsions:
REMARK  status: ('A' for Active; 'I' for Inactive)
REMARK    1  A    between atoms: O_4  and  N_7
REMARK    2  A    between atoms: O_4  and  C_22
REMARK    3  A    between atoms: C_8  and  C_10
REMARK    4  A    between atoms: C_9  and  C_15
REMARK    5  A    between atoms: C_16  and  C_20
REMARK    6  A    between atoms: C_21  and  C_22
REMARK                            x       y       z     vdW  Elec       q    Type
REMARK                         _______ _______ _______ _____ _____    ______ ____
ROOT
ATOM      1  S   UNL     1     -10.187   5.580 -26.789  0.00  0.00    +0.000 S 
ATOM      2  N   UNL     1      -7.966   6.021 -25.570  0.00  0.00    +0.000 N 
ATOM      3  N   UNL     1      -8.001   7.204 -27.464  0.00  0.00    +0.000 NA
ATOM      4  C   UNL     1      -6.809   7.411 -26.784  0.00  0.00    +0.000 A 
ATOM      5  C   UNL     1      -6.759   6.680 -25.590  0.00  0.00    +0.000 A 
ATOM      6  C   UNL     1      -8.633   6.352 -26.711  0.00  0.00    +0.000 A 
ATOM      7  C   UNL     1      -8.663   5.190 -24.717  0.00  0.00    +0.000 A 
ATOM      8  C   UNL     1      -9.859   4.839 -25.217  0.00  0.00    +0.000 A 
ENDROOT
BRANCH   4   9
ATOM      9  C   UNL     1      -5.787   8.315 -27.302  0.00  0.00    +0.000 A 
ATOM     10  C   UNL     1      -6.035   9.029 -28.483  0.00  0.00    +0.000 A 
ATOM     11  C   UNL     1      -4.553   8.484 -26.666  0.00  0.00    +0.000 A 
ATOM     12  C   UNL     1      -3.874  10.123 -28.327  0.00  0.00    +0.000 A 
ATOM     13  C   UNL     1      -5.087   9.925 -28.991  0.00  0.00    +0.000 A 
ATOM     14  C   UNL     1      -3.612   9.391 -27.164  0.00  0.00    +0.000 A 
ATOM     15  C   UNL     1      -2.851  11.090 -28.843  0.00  0.00    +0.000 C 
ENDBRANCH   4   9
BRANCH   5  17
ATOM     16  N   UNL     1      -5.781   7.311 -23.426  0.00  0.00    +0.000 NA
ATOM     17  C   UNL     1      -5.761   6.664 -24.555  0.00  0.00    +0.000 C 
BRANCH  16  18
ATOM     18  O   UNL     1      -7.008   7.953 -23.222  0.00  0.00    +0.000 OA
BRANCH  18  19
ATOM     19  C   UNL     1      -6.795   9.280 -22.739  0.00  0.00    +0.000 C 
BRANCH  19  22
ATOM     20 CL   UNL     1      -9.142  11.101 -27.026  0.00  0.00    +0.000 Cl
ATOM     21 CL   UNL     1      -6.501  12.925 -27.553  0.00  0.00    +0.000 Cl
ATOM     22  C   UNL     1      -6.766  10.189 -23.942  0.00  0.00    +0.000 A 
ATOM     23  C   UNL     1      -7.837  10.244 -24.845  0.00  0.00    +0.000 A 
ATOM     24  C   UNL     1      -5.643  10.996 -24.172  0.00  0.00    +0.000 A 
ATOM     25  C   UNL     1      -7.780  11.087 -25.962  0.00  0.00    +0.000 A 
ATOM     26  C   UNL     1      -5.584  11.837 -25.284  0.00  0.00    +0.000 A 
ATOM     27  C   UNL     1      -6.650  11.880 -26.185  0.00  0.00    +0.000 A 
ENDBRANCH  19  22
ENDBRANCH  18  19
ENDBRANCH  16  18
ENDBRANCH   5  17
TORSDOF 5
ENDMDL
MODEL 7
REMARK VINA RESULT:      -5.0     20.451     22.528
REMARK  Name = 155269237
REMARK  6 active torsions:
REMARK  status: ('A' for Active; 'I' for Inactive)
REMARK    1  A    between atoms: O_4  and  N_7
REMARK    2  A    between atoms: O_4  and  C_22
REMARK    3  A    between atoms: C_8  and  C_10
REMARK    4  A    between atoms: C_9  and  C_15
REMARK    5  A    between atoms: C_16  and  C_20
REMARK    6  A    between atoms: C_21  and  C_22
REMARK                            x       y       z     vdW  Elec       q    Type
REMARK                         _______ _______ _______ _____ _____    ______ ____
ROOT
ATOM      1  S   UNL     1      -8.933  -7.830 -42.609  0.00  0.00    +0.000 S 
ATOM      2  N   UNL     1     -10.849  -7.063 -44.143  0.00  0.00    +0.000 N 
ATOM      3  N   UNL     1     -11.388  -9.033 -43.241  0.00  0.00    +0.000 NA
ATOM      4  C   UNL     1     -12.398  -8.593 -44.084  0.00  0.00    +0.000 A 
ATOM      5  C   UNL     1     -12.086  -7.357 -44.666  0.00  0.00    +0.000 A 
ATOM      6  C   UNL     1     -10.488  -8.100 -43.337  0.00  0.00    +0.000 A 
ATOM      7  C   UNL     1      -9.943  -6.022 -44.184  0.00  0.00    +0.000 A 
ATOM      8  C   UNL     1      -8.853  -6.272 -43.440  0.00  0.00    +0.000 A 
ENDROOT
BRANCH   4   9
ATOM      9  C   UNL     1     -13.620  -9.368 -44.274  0.00  0.00    +0.000 A 
ATOM     10  C   UNL     1     -14.002 -10.299 -43.298  0.00  0.00    +0.000 A 
ATOM     11  C   UNL     1     -14.422  -9.225 -45.412  0.00  0.00    +0.000 A 
ATOM     12  C   UNL     1     -16.003 -10.859 -44.554  0.00  0.00    +0.000 A 
ATOM     13  C   UNL     1     -15.184 -11.039 -43.437  0.00  0.00    +0.000 A 
ATOM     14  C   UNL     1     -15.609  -9.951 -45.543  0.00  0.00    +0.000 A 
ATOM     15  C   UNL     1     -17.281 -11.627 -44.715  0.00  0.00    +0.000 C 
ENDBRANCH   4   9
BRANCH   5  17
ATOM     16  N   UNL     1     -13.872  -5.751 -45.185  0.00  0.00    +0.000 NA
ATOM     17  C   UNL     1     -12.873  -6.513 -45.525  0.00  0.00    +0.000 C 
BRANCH  16  18
ATOM     18  O   UNL     1     -14.036  -5.704 -43.796  0.00  0.00    +0.000 OA
BRANCH  18  19
ATOM     19  C   UNL     1     -15.374  -6.057 -43.445  0.00  0.00    +0.000 C 
BRANCH  19  22
ATOM     20 CL   UNL     1     -12.618  -7.934 -39.436  0.00  0.00    +0.000 Cl
ATOM     21 CL   UNL     1     -15.170  -9.820 -38.719  0.00  0.00    +0.000 Cl
ATOM     22  C   UNL     1     -15.292  -6.971 -42.249  0.00  0.00    +0.000 A 
ATOM     23  C   UNL     1     -14.135  -7.041 -41.460  0.00  0.00    +0.000 A 
ATOM     24  C   UNL     1     -16.390  -7.776 -41.915  0.00  0.00    +0.000 A 
ATOM     25  C   UNL     1     -14.077  -7.908 -40.361  0.00  0.00    +0.000 A 
ATOM     26  C   UNL     1     -16.335  -8.639 -40.821  0.00  0.00    +0.000 A 
ATOM     27  C   UNL     1     -15.177  -8.712 -40.045  0.00  0.00    +0.000 A 
ENDBRANCH  19  22
ENDBRANCH  18  19
ENDBRANCH  16  18
ENDBRANCH   5  17
TORSDOF 5
ENDMDL
MODEL 8
REMARK VINA RESULT:      -4.9     17.766     20.073
REMARK  Name = 155269237
REMARK  6 active torsions:
REMARK  status: ('A' for Active; 'I' for Inactive)
REMARK    1  A    between atoms: O_4  and  N_7
REMARK    2  A    between atoms: O_4  and  C_22
REMARK    3  A    between atoms: C_8  and  C_10
REMARK    4  A    between atoms: C_9  and  C_15
REMARK    5  A    between atoms: C_16  and  C_20
REMARK    6  A    between atoms: C_21  and  C_22
REMARK                            x       y       z     vdW  Elec       q    Type
REMARK                         _______ _______ _______ _____ _____    ______ ____
ROOT
ATOM      1  S   UNL     1       1.442   7.156 -59.607  0.00  0.00    +0.000 S 
ATOM      2  N   UNL     1      -1.102   7.521 -59.707  0.00  0.00    +0.000 N 
ATOM      3  N   UNL     1      -0.614   6.310 -57.895  0.00  0.00    +0.000 NA
ATOM      4  C   UNL     1      -1.983   6.518 -57.986  0.00  0.00    +0.000 A 
ATOM      5  C   UNL     1      -2.319   7.276 -59.115  0.00  0.00    +0.000 A 
ATOM      6  C   UNL     1      -0.149   6.904 -58.955  0.00  0.00    +0.000 A 
ATOM      7  C   UNL     1      -0.613   8.233 -60.784  0.00  0.00    +0.000 A 
ATOM      8  C   UNL     1       0.721   8.131 -60.894  0.00  0.00    +0.000 A 
ENDROOT
BRANCH   4   9
ATOM      9  C   UNL     1      -2.898   5.998 -56.975  0.00  0.00    +0.000 A 
ATOM     10  C   UNL     1      -3.522   4.760 -57.185  0.00  0.00    +0.000 A 
ATOM     11  C   UNL     1      -3.191   6.703 -55.803  0.00  0.00    +0.000 A 
ATOM     12  C   UNL     1      -4.637   4.908 -55.034  0.00  0.00    +0.000 A 
ATOM     13  C   UNL     1      -4.384   4.219 -56.222  0.00  0.00    +0.000 A 
ATOM     14  C   UNL     1      -4.038   6.157 -54.835  0.00  0.00    +0.000 A 
ATOM     15  C   UNL     1      -5.543   4.342 -53.981  0.00  0.00    +0.000 C 
ENDBRANCH   4   9
BRANCH   5  17
ATOM     16  N   UNL     1      -4.490   7.173 -60.260  0.00  0.00    +0.000 NA
ATOM     17  C   UNL     1      -3.594   7.786 -59.542  0.00  0.00    +0.000 C 
BRANCH  16  18
ATOM     18  O   UNL     1      -4.151   5.832 -60.474  0.00  0.00    +0.000 OA
BRANCH  18  19
ATOM     19  C   UNL     1      -4.833   5.328 -61.623  0.00  0.00    +0.000 C 
BRANCH  19  22
ATOM     20 CL   UNL     1      -8.543   1.708 -62.201  0.00  0.00    +0.000 Cl
ATOM     21 CL   UNL     1      -6.981  -0.077 -59.974  0.00  0.00    +0.000 Cl
ATOM     22  C   UNL     1      -5.391   3.978 -61.249  0.00  0.00    +0.000 A 
ATOM     23  C   UNL     1      -6.575   3.491 -61.821  0.00  0.00    +0.000 A 
ATOM     24  C   UNL     1      -4.720   3.188 -60.305  0.00  0.00    +0.000 A 
ATOM     25  C   UNL     1      -7.080   2.239 -61.448  0.00  0.00    +0.000 A 
ATOM     26  C   UNL     1      -5.220   1.941 -59.933  0.00  0.00    +0.000 A 
ATOM     27  C   UNL     1      -6.405   1.466 -60.498  0.00  0.00    +0.000 A 
ENDBRANCH  19  22
ENDBRANCH  18  19
ENDBRANCH  16  18
ENDBRANCH   5  17
TORSDOF 5
ENDMDL
MODEL 9
REMARK VINA RESULT:      -4.8     23.633     25.753
REMARK  Name = 155269237
REMARK  6 active torsions:
REMARK  status: ('A' for Active; 'I' for Inactive)
REMARK    1  A    between atoms: O_4  and  N_7
REMARK    2  A    between atoms: O_4  and  C_22
REMARK    3  A    between atoms: C_8  and  C_10
REMARK    4  A    between atoms: C_9  and  C_15
REMARK    5  A    between atoms: C_16  and  C_20
REMARK    6  A    between atoms: C_21  and  C_22
REMARK                            x       y       z     vdW  Elec       q    Type
REMARK                         _______ _______ _______ _____ _____    ______ ____
ROOT
ATOM      1  S   UNL     1     -14.990   5.741 -31.910  0.00  0.00    +0.000 S 
ATOM      2  N   UNL     1     -13.956   7.032 -33.880  0.00  0.00    +0.000 N 
ATOM      3  N   UNL     1     -12.890   5.083 -33.651  0.00  0.00    +0.000 NA
ATOM      4  C   UNL     1     -12.350   5.811 -34.701  0.00  0.00    +0.000 A 
ATOM      5  C   UNL     1     -13.001   7.041 -34.868  0.00  0.00    +0.000 A 
ATOM      6  C   UNL     1     -13.818   5.867 -33.187  0.00  0.00    +0.000 A 
ATOM      7  C   UNL     1     -14.998   7.833 -33.457  0.00  0.00    +0.000 A 
ATOM      8  C   UNL     1     -15.643   7.309 -32.403  0.00  0.00    +0.000 A 
ENDROOT
BRANCH   4   9
ATOM      9  C   UNL     1     -11.252   5.284 -35.505  0.00  0.00    +0.000 A 
ATOM     10  C   UNL     1      -9.945   5.336 -35.001  0.00  0.00    +0.000 A 
ATOM     11  C   UNL     1     -11.457   4.739 -36.777  0.00  0.00    +0.000 A 
ATOM     12  C   UNL     1      -9.090   4.230 -36.986  0.00  0.00    +0.000 A 
ATOM     13  C   UNL     1      -8.872   4.813 -35.736  0.00  0.00    +0.000 A 
ATOM     14  C   UNL     1     -10.389   4.203 -37.504  0.00  0.00    +0.000 A 
ATOM     15  C   UNL     1      -7.960   3.649 -37.783  0.00  0.00    +0.000 C 
ENDBRANCH   4   9
BRANCH   5  17
ATOM     16  N   UNL     1     -11.871   8.943 -35.937  0.00  0.00    +0.000 NA
ATOM     17  C   UNL     1     -12.820   8.055 -35.872  0.00  0.00    +0.000 C 
BRANCH  16  18
ATOM     18  O   UNL     1     -10.890   8.723 -34.964  0.00  0.00    +0.000 OA
BRANCH  18  19
ATOM     19  C   UNL     1     -10.707   9.898 -34.173  0.00  0.00    +0.000 C 
BRANCH  19  22
ATOM     20 CL   UNL     1      -7.194   9.375 -30.354  0.00  0.00    +0.000 Cl
ATOM     21 CL   UNL     1      -9.518   7.961 -28.571  0.00  0.00    +0.000 Cl
ATOM     22  C   UNL     1     -10.376   9.443 -32.774  0.00  0.00    +0.000 A 
ATOM     23  C   UNL     1      -9.089   9.593 -32.240  0.00  0.00    +0.000 A 
ATOM     24  C   UNL     1     -11.372   8.849 -31.986  0.00  0.00    +0.000 A 
ATOM     25  C   UNL     1      -8.803   9.150 -30.942  0.00  0.00    +0.000 A 
ATOM     26  C   UNL     1     -11.090   8.408 -30.693  0.00  0.00    +0.000 A 
ATOM     27  C   UNL     1      -9.804   8.551 -30.170  0.00  0.00    +0.000 A 
ENDBRANCH  19  22
ENDBRANCH  18  19
ENDBRANCH  16  18
ENDBRANCH   5  17
TORSDOF 5
ENDMDL
MODEL 10
REMARK VINA RESULT:      -4.7      5.603      8.342
REMARK  Name = 155269237
REMARK  6 active torsions:
REMARK  status: ('A' for Active; 'I' for Inactive)
REMARK    1  A    between atoms: O_4  and  N_7
REMARK    2  A    between atoms: O_4  and  C_22
REMARK    3  A    between atoms: C_8  and  C_10
REMARK    4  A    between atoms: C_9  and  C_15
REMARK    5  A    between atoms: C_16  and  C_20
REMARK    6  A    between atoms: C_21  and  C_22
REMARK                            x       y       z     vdW  Elec       q    Type
REMARK                         _______ _______ _______ _____ _____    ______ ____
ROOT
ATOM      1  S   UNL     1     -25.173  11.572 -51.681  0.00  0.00    +0.000 S 
ATOM      2  N   UNL     1     -23.931   9.409 -51.054  0.00  0.00    +0.000 N 
ATOM      3  N   UNL     1     -23.986   9.595 -53.279  0.00  0.00    +0.000 NA
ATOM      4  C   UNL     1     -23.330   8.431 -52.906  0.00  0.00    +0.000 A 
ATOM      5  C   UNL     1     -23.280   8.288 -51.513  0.00  0.00    +0.000 A 
ATOM      6  C   UNL     1     -24.342  10.118 -52.143  0.00  0.00    +0.000 A 
ATOM      7  C   UNL     1     -24.220   9.999 -49.841  0.00  0.00    +0.000 A 
ATOM      8  C   UNL     1     -24.898  11.149 -49.986  0.00  0.00    +0.000 A 
ENDROOT
BRANCH   4   9
ATOM      9  C   UNL     1     -22.765   7.525 -53.901  0.00  0.00    +0.000 A 
ATOM     10  C   UNL     1     -21.496   7.793 -54.432  0.00  0.00    +0.000 A 
ATOM     11  C   UNL     1     -23.458   6.399 -54.359  0.00  0.00    +0.000 A 
ATOM     12  C   UNL     1     -21.592   5.781 -55.787  0.00  0.00    +0.000 A 
ATOM     13  C   UNL     1     -20.914   6.928 -55.368  0.00  0.00    +0.000 A 
ATOM     14  C   UNL     1     -22.871   5.527 -55.281  0.00  0.00    +0.000 A 
ATOM     15  C   UNL     1     -20.981   4.832 -56.776  0.00  0.00    +0.000 C 
ENDBRANCH   4   9
BRANCH   5  17
ATOM     16  N   UNL     1     -23.196   6.304 -50.066  0.00  0.00    +0.000 NA
ATOM     17  C   UNL     1     -22.634   7.287 -50.707  0.00  0.00    +0.000 C 
BRANCH  16  18
ATOM     18  O   UNL     1     -24.560   6.206 -50.364  0.00  0.00    +0.000 OA
BRANCH  18  19
ATOM     19  C   UNL     1     -24.819   5.014 -51.106  0.00  0.00    +0.000 C 
BRANCH  19  22
ATOM     20 CL   UNL     1     -24.449  -0.065 -49.981  0.00  0.00    +0.000 Cl
ATOM     21 CL   UNL     1     -25.577   0.633 -47.010  0.00  0.00    +0.000 Cl
ATOM     22  C   UNL     1     -24.979   3.897 -50.106  0.00  0.00    +0.000 A 
ATOM     23  C   UNL     1     -24.677   2.568 -50.438  0.00  0.00    +0.000 A 
ATOM     24  C   UNL     1     -25.446   4.183 -48.815  0.00  0.00    +0.000 A 
ATOM     25  C   UNL     1     -24.847   1.546 -49.496  0.00  0.00    +0.000 A 
ATOM     26  C   UNL     1     -25.615   3.167 -47.876  0.00  0.00    +0.000 A 
ATOM     27  C   UNL     1     -25.322   1.845 -48.215  0.00  0.00    +0.000 A 
ENDBRANCH  19  22
ENDBRANCH  18  19
ENDBRANCH  16  18
ENDBRANCH   5  17
TORSDOF 5
ENDMDL
