MODEL 1
REMARK VINA RESULT:      -7.1      0.000      0.000
REMARK  Name = 155269226
REMARK  6 active torsions:
REMARK  status: ('A' for Active; 'I' for Inactive)
REMARK    1  A    between atoms: O_4  and  N_7
REMARK    2  A    between atoms: O_4  and  C_23
REMARK    3  A    between atoms: C_8  and  C_10
REMARK    4  A    between atoms: C_9  and  C_18
REMARK    5  A    between atoms: C_12  and  C_19
REMARK    6  A    between atoms: C_23  and  C_24
REMARK                            x       y       z     vdW  Elec       q    Type
REMARK                         _______ _______ _______ _____ _____    ______ ____
ROOT
ATOM      1  S   UNL     1      13.109  15.805  20.897  0.00  0.00    +0.000 S 
ATOM      2  N   UNL     1      11.961  15.267  23.132  0.00  0.00    +0.000 N 
ATOM      3  N   UNL     1      10.438  16.102  21.728  0.00  0.00    +0.000 NA
ATOM      4  C   UNL     1       9.846  15.785  22.949  0.00  0.00    +0.000 A 
ATOM      5  C   UNL     1      10.791  15.264  23.851  0.00  0.00    +0.000 A 
ATOM      6  C   UNL     1      11.690  15.785  21.900  0.00  0.00    +0.000 A 
ATOM      7  C   UNL     1      13.264  14.861  23.314  0.00  0.00    +0.000 A 
ATOM      8  C   UNL     1      14.024  15.090  22.235  0.00  0.00    +0.000 A 
ENDROOT
BRANCH   4   9
ATOM      9  C   UNL     1       8.407  15.977  23.159  0.00  0.00    +0.000 A 
ATOM     10  C   UNL     1       5.591  16.453  23.451  0.00  0.00    +0.000 A 
ATOM     11  C   UNL     1       7.923  17.129  23.798  0.00  0.00    +0.000 A 
ATOM     12  C   UNL     1       7.463  15.052  22.722  0.00  0.00    +0.000 A 
ATOM     13  C   UNL     1       6.540  17.358  23.957  0.00  0.00    +0.000 A 
ATOM     14  C   UNL     1       6.096  15.304  22.824  0.00  0.00    +0.000 A 
BRANCH  10  15
ATOM     15  C   UNL     1       4.123  16.646  23.545  0.00  0.00    +0.000 A 
ATOM     16  C   UNL     1       3.538  17.579  24.415  0.00  0.00    +0.000 A 
ATOM     17  C   UNL     1       3.247  15.924  22.704  0.00  0.00    +0.000 A 
ATOM     18  C   UNL     1       2.152  17.795  24.422  0.00  0.00    +0.000 A 
ATOM     19  C   UNL     1       1.871  16.152  22.692  0.00  0.00    +0.000 A 
ATOM     20  C   UNL     1       1.323  17.091  23.553  0.00  0.00    +0.000 A 
ENDBRANCH  10  15
ENDBRANCH   4   9
BRANCH   5  22
ATOM     21  N   UNL     1      10.346  13.506  25.508  0.00  0.00    +0.000 NA
ATOM     22  C   UNL     1      10.674  14.722  25.177  0.00  0.00    +0.000 C 
BRANCH  21  23
ATOM     23  O   UNL     1      10.234  12.671  24.390  0.00  0.00    +0.000 OA
BRANCH  23  24
ATOM     24  C   UNL     1      10.995  11.481  24.603  0.00  0.00    +0.000 C 
BRANCH  24  27
ATOM     25 CL   UNL     1      10.598   7.164  21.705  0.00  0.00    +0.000 Cl
ATOM     26 CL   UNL     1      11.882   8.853  19.237  0.00  0.00    +0.000 Cl
ATOM     27  C   UNL     1      11.165  10.800  23.268  0.00  0.00    +0.000 A 
ATOM     28  C   UNL     1      10.828   9.452  23.088  0.00  0.00    +0.000 A 
ATOM     29  C   UNL     1      11.694  11.523  22.188  0.00  0.00    +0.000 A 
ATOM     30  C   UNL     1      11.034   8.830  21.850  0.00  0.00    +0.000 A 
ATOM     31  C   UNL     1      11.898  10.908  20.954  0.00  0.00    +0.000 A 
ATOM     32  C   UNL     1      11.576   9.559  20.782  0.00  0.00    +0.000 A 
ENDBRANCH  24  27
ENDBRANCH  23  24
ENDBRANCH  21  23
ENDBRANCH   5  22
TORSDOF 6
ENDMDL
MODEL 2
REMARK VINA RESULT:      -6.9      1.682      2.517
REMARK  Name = 155269226
REMARK  6 active torsions:
REMARK  status: ('A' for Active; 'I' for Inactive)
REMARK    1  A    between atoms: O_4  and  N_7
REMARK    2  A    between atoms: O_4  and  C_23
REMARK    3  A    between atoms: C_8  and  C_10
REMARK    4  A    between atoms: C_9  and  C_18
REMARK    5  A    between atoms: C_12  and  C_19
REMARK    6  A    between atoms: C_23  and  C_24
REMARK                            x       y       z     vdW  Elec       q    Type
REMARK                         _______ _______ _______ _____ _____    ______ ____
ROOT
ATOM      1  S   UNL     1      13.817  15.300  19.827  0.00  0.00    +0.000 S 
ATOM      2  N   UNL     1      12.643  14.342  21.902  0.00  0.00    +0.000 N 
ATOM      3  N   UNL     1      11.268  15.794  20.910  0.00  0.00    +0.000 NA
ATOM      4  C   UNL     1      10.657  15.243  22.034  0.00  0.00    +0.000 A 
ATOM      5  C   UNL     1      11.510  14.330  22.678  0.00  0.00    +0.000 A 
ATOM      6  C   UNL     1      12.443  15.233  20.890  0.00  0.00    +0.000 A 
ATOM      7  C   UNL     1      13.852  13.684  21.862  0.00  0.00    +0.000 A 
ATOM      8  C   UNL     1      14.615  14.083  20.837  0.00  0.00    +0.000 A 
ENDROOT
BRANCH   4   9
ATOM      9  C   UNL     1       9.284  15.608  22.399  0.00  0.00    +0.000 A 
ATOM     10  C   UNL     1       6.590  16.195  23.201  0.00  0.00    +0.000 A 
ATOM     11  C   UNL     1       8.188  14.944  21.824  0.00  0.00    +0.000 A 
ATOM     12  C   UNL     1       9.002  16.599  23.334  0.00  0.00    +0.000 A 
ATOM     13  C   UNL     1       6.863  15.242  22.205  0.00  0.00    +0.000 A 
ATOM     14  C   UNL     1       7.699  16.853  23.757  0.00  0.00    +0.000 A 
BRANCH  10  15
ATOM     15  C   UNL     1       5.227  16.531  23.682  0.00  0.00    +0.000 A 
ATOM     16  C   UNL     1       4.126  15.685  23.483  0.00  0.00    +0.000 A 
ATOM     17  C   UNL     1       4.996  17.713  24.420  0.00  0.00    +0.000 A 
ATOM     18  C   UNL     1       2.867  15.993  24.019  0.00  0.00    +0.000 A 
ATOM     19  C   UNL     1       3.752  18.012  24.974  0.00  0.00    +0.000 A 
ATOM     20  C   UNL     1       2.685  17.149  24.773  0.00  0.00    +0.000 A 
ENDBRANCH  10  15
ENDBRANCH   4   9
BRANCH   5  22
ATOM     21  N   UNL     1      11.012  12.192  23.780  0.00  0.00    +0.000 NA
ATOM     22  C   UNL     1      11.327  13.454  23.803  0.00  0.00    +0.000 C 
BRANCH  21  23
ATOM     23  O   UNL     1      10.991  11.681  22.476  0.00  0.00    +0.000 OA
BRANCH  23  24
ATOM     24  C   UNL     1      11.018  10.253  22.521  0.00  0.00    +0.000 C 
BRANCH  24  27
ATOM     25 CL   UNL     1      14.527  10.764  18.698  0.00  0.00    +0.000 Cl
ATOM     26 CL   UNL     1      13.065   8.276  17.194  0.00  0.00    +0.000 Cl
ATOM     27  C   UNL     1      11.583   9.764  21.211  0.00  0.00    +0.000 A 
ATOM     28  C   UNL     1      12.686  10.389  20.613  0.00  0.00    +0.000 A 
ATOM     29  C   UNL     1      10.978   8.676  20.563  0.00  0.00    +0.000 A 
ATOM     30  C   UNL     1      13.166   9.942  19.375  0.00  0.00    +0.000 A 
ATOM     31  C   UNL     1      11.455   8.228  19.333  0.00  0.00    +0.000 A 
ATOM     32  C   UNL     1      12.545   8.863  18.731  0.00  0.00    +0.000 A 
ENDBRANCH  24  27
ENDBRANCH  23  24
ENDBRANCH  21  23
ENDBRANCH   5  22
TORSDOF 6
ENDMDL
MODEL 3
REMARK VINA RESULT:      -6.9     29.374     31.224
REMARK  Name = 155269226
REMARK  6 active torsions:
REMARK  status: ('A' for Active; 'I' for Inactive)
REMARK    1  A    between atoms: O_4  and  N_7
REMARK    2  A    between atoms: O_4  and  C_23
REMARK    3  A    between atoms: C_8  and  C_10
REMARK    4  A    between atoms: C_9  and  C_18
REMARK    5  A    between atoms: C_12  and  C_19
REMARK    6  A    between atoms: C_23  and  C_24
REMARK                            x       y       z     vdW  Elec       q    Type
REMARK                         _______ _______ _______ _____ _____    ______ ____
ROOT
ATOM      1  S   UNL     1      -9.733  -6.952   7.739  0.00  0.00    +0.000 S 
ATOM      2  N   UNL     1      -7.604  -8.388   7.816  0.00  0.00    +0.000 N 
ATOM      3  N   UNL     1      -8.505  -8.335   9.858  0.00  0.00    +0.000 NA
ATOM      4  C   UNL     1      -7.353  -9.119   9.859  0.00  0.00    +0.000 A 
ATOM      5  C   UNL     1      -6.766  -9.158   8.583  0.00  0.00    +0.000 A 
ATOM      6  C   UNL     1      -8.596  -7.921   8.626  0.00  0.00    +0.000 A 
ATOM      7  C   UNL     1      -7.717  -8.020   6.494  0.00  0.00    +0.000 A 
ATOM      8  C   UNL     1      -8.781  -7.236   6.273  0.00  0.00    +0.000 A 
ENDROOT
BRANCH   4   9
ATOM      9  C   UNL     1      -6.909  -9.800  11.080  0.00  0.00    +0.000 A 
ATOM     10  C   UNL     1      -6.169 -11.085  13.539  0.00  0.00    +0.000 A 
ATOM     11  C   UNL     1      -6.360  -9.073  12.148  0.00  0.00    +0.000 A 
ATOM     12  C   UNL     1      -7.028 -11.177  11.247  0.00  0.00    +0.000 A 
ATOM     13  C   UNL     1      -5.981  -9.704  13.352  0.00  0.00    +0.000 A 
ATOM     14  C   UNL     1      -6.711 -11.794  12.456  0.00  0.00    +0.000 A 
BRANCH  10  15
ATOM     15  C   UNL     1      -5.833 -11.808  14.790  0.00  0.00    +0.000 A 
ATOM     16  C   UNL     1      -6.156 -13.159  14.992  0.00  0.00    +0.000 A 
ATOM     17  C   UNL     1      -5.111 -11.166  15.820  0.00  0.00    +0.000 A 
ATOM     18  C   UNL     1      -5.754 -13.836  16.152  0.00  0.00    +0.000 A 
ATOM     19  C   UNL     1      -4.690 -11.841  16.965  0.00  0.00    +0.000 A 
ATOM     20  C   UNL     1      -5.011 -13.180  17.131  0.00  0.00    +0.000 A 
ENDBRANCH  10  15
ENDBRANCH   4   9
BRANCH   5  22
ATOM     21  N   UNL     1      -4.402  -9.817   8.453  0.00  0.00    +0.000 NA
ATOM     22  C   UNL     1      -5.639  -9.877   8.053  0.00  0.00    +0.000 C 
BRANCH  21  23
ATOM     23  O   UNL     1      -4.264  -9.040   9.610  0.00  0.00    +0.000 OA
BRANCH  23  24
ATOM     24  C   UNL     1      -2.917  -9.113  10.079  0.00  0.00    +0.000 C 
BRANCH  24  27
ATOM     25 CL   UNL     1      -1.658 -10.535  14.935  0.00  0.00    +0.000 Cl
ATOM     26 CL   UNL     1      -2.589 -13.555  14.158  0.00  0.00    +0.000 Cl
ATOM     27  C   UNL     1      -2.856 -10.186  11.137  0.00  0.00    +0.000 A 
ATOM     28  C   UNL     1      -2.364  -9.918  12.421  0.00  0.00    +0.000 A 
ATOM     29  C   UNL     1      -3.278 -11.487  10.823  0.00  0.00    +0.000 A 
ATOM     30  C   UNL     1      -2.279 -10.941  13.374  0.00  0.00    +0.000 A 
ATOM     31  C   UNL     1      -3.196 -12.507  11.770  0.00  0.00    +0.000 A 
ATOM     32  C   UNL     1      -2.690 -12.240  13.045  0.00  0.00    +0.000 A 
ENDBRANCH  24  27
ENDBRANCH  23  24
ENDBRANCH  21  23
ENDBRANCH   5  22
TORSDOF 6
ENDMDL
MODEL 4
REMARK VINA RESULT:      -6.9     28.990     31.169
REMARK  Name = 155269226
REMARK  6 active torsions:
REMARK  status: ('A' for Active; 'I' for Inactive)
REMARK    1  A    between atoms: O_4  and  N_7
REMARK    2  A    between atoms: O_4  and  C_23
REMARK    3  A    between atoms: C_8  and  C_10
REMARK    4  A    between atoms: C_9  and  C_18
REMARK    5  A    between atoms: C_12  and  C_19
REMARK    6  A    between atoms: C_23  and  C_24
REMARK                            x       y       z     vdW  Elec       q    Type
REMARK                         _______ _______ _______ _____ _____    ______ ____
ROOT
ATOM      1  S   UNL     1     -11.059 -13.275  18.508  0.00  0.00    +0.000 S 
ATOM      2  N   UNL     1      -9.020 -11.711  18.490  0.00  0.00    +0.000 N 
ATOM      3  N   UNL     1      -9.338 -12.494  16.424  0.00  0.00    +0.000 NA
ATOM      4  C   UNL     1      -8.246 -11.629  16.449  0.00  0.00    +0.000 A 
ATOM      5  C   UNL     1      -8.025 -11.131  17.745  0.00  0.00    +0.000 A 
ATOM      6  C   UNL     1      -9.747 -12.512  17.661  0.00  0.00    +0.000 A 
ATOM      7  C   UNL     1      -9.476 -11.660  19.789  0.00  0.00    +0.000 A 
ATOM      8  C   UNL     1     -10.542 -12.447  19.986  0.00  0.00    +0.000 A 
ENDROOT
BRANCH   4   9
ATOM      9  C   UNL     1      -7.506 -11.317  15.222  0.00  0.00    +0.000 A 
ATOM     10  C   UNL     1      -6.189 -10.652  12.758  0.00  0.00    +0.000 A 
ATOM     11  C   UNL     1      -7.618 -12.138  14.089  0.00  0.00    +0.000 A 
ATOM     12  C   UNL     1      -6.687 -10.197  15.113  0.00  0.00    +0.000 A 
ATOM     13  C   UNL     1      -6.959 -11.822  12.881  0.00  0.00    +0.000 A 
ATOM     14  C   UNL     1      -6.084  -9.850  13.905  0.00  0.00    +0.000 A 
BRANCH  10  15
ATOM     15  C   UNL     1      -5.503 -10.235  11.511  0.00  0.00    +0.000 A 
ATOM     16  C   UNL     1      -5.047 -11.155  10.556  0.00  0.00    +0.000 A 
ATOM     17  C   UNL     1      -5.330  -8.865  11.210  0.00  0.00    +0.000 A 
ATOM     18  C   UNL     1      -4.473 -10.725   9.350  0.00  0.00    +0.000 A 
ATOM     19  C   UNL     1      -4.781  -8.434  10.002  0.00  0.00    +0.000 A 
ATOM     20  C   UNL     1      -4.353  -9.366   9.070  0.00  0.00    +0.000 A 
ENDBRANCH  10  15
ENDBRANCH   4   9
BRANCH   5  22
ATOM     21  N   UNL     1      -5.838 -10.342  18.540  0.00  0.00    +0.000 NA
ATOM     22  C   UNL     1      -7.099 -10.164  18.270  0.00  0.00    +0.000 C 
BRANCH  21  23
ATOM     23  O   UNL     1      -5.387 -11.602  18.128  0.00  0.00    +0.000 OA
BRANCH  23  24
ATOM     24  C   UNL     1      -3.959 -11.607  18.078  0.00  0.00    +0.000 C 
BRANCH  24  27
ATOM     25 CL   UNL     1      -4.095 -13.788  13.344  0.00  0.00    +0.000 Cl
ATOM     26 CL   UNL     1      -2.110 -11.417  12.331  0.00  0.00    +0.000 Cl
ATOM     27  C   UNL     1      -3.551 -11.572  16.626  0.00  0.00    +0.000 A 
ATOM     28  C   UNL     1      -3.969 -12.562  15.727  0.00  0.00    +0.000 A 
ATOM     29  C   UNL     1      -2.715 -10.541  16.170  0.00  0.00    +0.000 A 
ATOM     30  C   UNL     1      -3.542 -12.531  14.393  0.00  0.00    +0.000 A 
ATOM     31  C   UNL     1      -2.291 -10.506  14.843  0.00  0.00    +0.000 A 
ATOM     32  C   UNL     1      -2.696 -11.504  13.952  0.00  0.00    +0.000 A 
ENDBRANCH  24  27
ENDBRANCH  23  24
ENDBRANCH  21  23
ENDBRANCH   5  22
TORSDOF 6
ENDMDL
MODEL 5
REMARK VINA RESULT:      -6.8     23.166     27.494
REMARK  Name = 155269226
REMARK  6 active torsions:
REMARK  status: ('A' for Active; 'I' for Inactive)
REMARK    1  A    between atoms: O_4  and  N_7
REMARK    2  A    between atoms: O_4  and  C_23
REMARK    3  A    between atoms: C_8  and  C_10
REMARK    4  A    between atoms: C_9  and  C_18
REMARK    5  A    between atoms: C_12  and  C_19
REMARK    6  A    between atoms: C_23  and  C_24
REMARK                            x       y       z     vdW  Elec       q    Type
REMARK                         _______ _______ _______ _____ _____    ______ ____
ROOT
ATOM      1  S   UNL     1     -19.027   4.470  27.535  0.00  0.00    +0.000 S 
ATOM      2  N   UNL     1     -18.071   3.435  25.387  0.00  0.00    +0.000 N 
ATOM      3  N   UNL     1     -17.322   5.531  25.565  0.00  0.00    +0.000 NA
ATOM      4  C   UNL     1     -16.811   4.932  24.416  0.00  0.00    +0.000 A 
ATOM      5  C   UNL     1     -17.277   3.613  24.281  0.00  0.00    +0.000 A 
ATOM      6  C   UNL     1     -18.069   4.602  26.092  0.00  0.00    +0.000 A 
ATOM      7  C   UNL     1     -18.797   2.415  25.961  0.00  0.00    +0.000 A 
ATOM      8  C   UNL     1     -19.393   2.793  27.099  0.00  0.00    +0.000 A 
ENDROOT
BRANCH   4   9
ATOM      9  C   UNL     1     -15.886   5.658  23.538  0.00  0.00    +0.000 A 
ATOM     10  C   UNL     1     -13.991   7.113  21.945  0.00  0.00    +0.000 A 
ATOM     11  C   UNL     1     -15.905   7.060  23.480  0.00  0.00    +0.000 A 
ATOM     12  C   UNL     1     -14.944   5.004  22.749  0.00  0.00    +0.000 A 
ATOM     13  C   UNL     1     -14.985   7.777  22.685  0.00  0.00    +0.000 A 
ATOM     14  C   UNL     1     -13.996   5.711  22.011  0.00  0.00    +0.000 A 
BRANCH  10  15
ATOM     15  C   UNL     1     -12.967   7.800  21.122  0.00  0.00    +0.000 A 
ATOM     16  C   UNL     1     -12.778   9.190  21.157  0.00  0.00    +0.000 A 
ATOM     17  C   UNL     1     -12.090   7.059  20.299  0.00  0.00    +0.000 A 
ATOM     18  C   UNL     1     -11.748   9.801  20.426  0.00  0.00    +0.000 A 
ATOM     19  C   UNL     1     -11.051   7.660  19.589  0.00  0.00    +0.000 A 
ATOM     20  C   UNL     1     -10.878   9.035  19.654  0.00  0.00    +0.000 A 
ENDBRANCH  10  15
ENDBRANCH   4   9
BRANCH   5  22
ATOM     21  N   UNL     1     -17.553   2.363  22.184  0.00  0.00    +0.000 NA
ATOM     22  C   UNL     1     -16.984   2.569  23.337  0.00  0.00    +0.000 C 
BRANCH  21  23
ATOM     23  O   UNL     1     -18.449   3.386  21.851  0.00  0.00    +0.000 OA
BRANCH  23  24
ATOM     24  C   UNL     1     -18.378   3.648  20.449  0.00  0.00    +0.000 C 
BRANCH  24  27
ATOM     25 CL   UNL     1     -18.951   8.718  21.525  0.00  0.00    +0.000 Cl
ATOM     26 CL   UNL     1     -16.465   9.299  19.508  0.00  0.00    +0.000 Cl
ATOM     27  C   UNL     1     -17.905   5.069  20.271  0.00  0.00    +0.000 A 
ATOM     28  C   UNL     1     -18.544   6.137  20.915  0.00  0.00    +0.000 A 
ATOM     29  C   UNL     1     -16.818   5.332  19.423  0.00  0.00    +0.000 A 
ATOM     30  C   UNL     1     -18.112   7.452  20.700  0.00  0.00    +0.000 A 
ATOM     31  C   UNL     1     -16.385   6.639  19.209  0.00  0.00    +0.000 A 
ATOM     32  C   UNL     1     -17.034   7.704  19.840  0.00  0.00    +0.000 A 
ENDBRANCH  24  27
ENDBRANCH  23  24
ENDBRANCH  21  23
ENDBRANCH   5  22
TORSDOF 6
ENDMDL
MODEL 6
REMARK VINA RESULT:      -6.7     22.532     26.829
REMARK  Name = 155269226
REMARK  6 active torsions:
REMARK  status: ('A' for Active; 'I' for Inactive)
REMARK    1  A    between atoms: O_4  and  N_7
REMARK    2  A    between atoms: O_4  and  C_23
REMARK    3  A    between atoms: C_8  and  C_10
REMARK    4  A    between atoms: C_9  and  C_18
REMARK    5  A    between atoms: C_12  and  C_19
REMARK    6  A    between atoms: C_23  and  C_24
REMARK                            x       y       z     vdW  Elec       q    Type
REMARK                         _______ _______ _______ _____ _____    ______ ____
ROOT
ATOM      1  S   UNL     1     -17.499   1.847  24.046  0.00  0.00    +0.000 S 
ATOM      2  N   UNL     1     -17.298   4.403  24.219  0.00  0.00    +0.000 N 
ATOM      3  N   UNL     1     -15.743   3.657  22.801  0.00  0.00    +0.000 NA
ATOM      4  C   UNL     1     -15.672   5.045  22.908  0.00  0.00    +0.000 A 
ATOM      5  C   UNL     1     -16.640   5.533  23.803  0.00  0.00    +0.000 A 
ATOM      6  C   UNL     1     -16.714   3.334  23.607  0.00  0.00    +0.000 A 
ATOM      7  C   UNL     1     -18.373   4.091  25.022  0.00  0.00    +0.000 A 
ATOM      8  C   UNL     1     -18.611   2.774  25.066  0.00  0.00    +0.000 A 
ENDROOT
BRANCH   4   9
ATOM      9  C   UNL     1     -14.699   5.811  22.123  0.00  0.00    +0.000 A 
ATOM     10  C   UNL     1     -12.796   7.198  20.479  0.00  0.00    +0.000 A 
ATOM     11  C   UNL     1     -13.343   5.449  22.111  0.00  0.00    +0.000 A 
ATOM     12  C   UNL     1     -15.069   6.904  21.344  0.00  0.00    +0.000 A 
ATOM     13  C   UNL     1     -12.403   6.139  21.316  0.00  0.00    +0.000 A 
ATOM     14  C   UNL     1     -14.155   7.548  20.513  0.00  0.00    +0.000 A 
BRANCH  10  15
ATOM     15  C   UNL     1     -11.873   7.941  19.587  0.00  0.00    +0.000 A 
ATOM     16  C   UNL     1     -11.258   9.143  19.969  0.00  0.00    +0.000 A 
ATOM     17  C   UNL     1     -11.530   7.426  18.318  0.00  0.00    +0.000 A 
ATOM     18  C   UNL     1     -10.328   9.780  19.134  0.00  0.00    +0.000 A 
ATOM     19  C   UNL     1     -10.589   8.044  17.494  0.00  0.00    +0.000 A 
ATOM     20  C   UNL     1      -9.986   9.223  17.904  0.00  0.00    +0.000 A 
ENDBRANCH  10  15
ENDBRANCH   4   9
BRANCH   5  22
ATOM     21  N   UNL     1     -17.962   7.600  23.661  0.00  0.00    +0.000 NA
ATOM     22  C   UNL     1     -17.026   6.864  24.187  0.00  0.00    +0.000 C 
BRANCH  21  23
ATOM     23  O   UNL     1     -18.708   6.895  22.708  0.00  0.00    +0.000 OA
BRANCH  23  24
ATOM     24  C   UNL     1     -19.298   7.814  21.787  0.00  0.00    +0.000 C 
BRANCH  24  27
ATOM     25 CL   UNL     1     -17.425   4.880  17.905  0.00  0.00    +0.000 Cl
ATOM     26 CL   UNL     1     -16.074   7.578  16.685  0.00  0.00    +0.000 Cl
ATOM     27  C   UNL     1     -18.534   7.720  20.491  0.00  0.00    +0.000 A 
ATOM     28  C   UNL     1     -18.355   6.494  19.835  0.00  0.00    +0.000 A 
ATOM     29  C   UNL     1     -17.967   8.880  19.940  0.00  0.00    +0.000 A 
ATOM     30  C   UNL     1     -17.605   6.427  18.654  0.00  0.00    +0.000 A 
ATOM     31  C   UNL     1     -17.222   8.816  18.764  0.00  0.00    +0.000 A 
ATOM     32  C   UNL     1     -17.032   7.590  18.121  0.00  0.00    +0.000 A 
ENDBRANCH  24  27
ENDBRANCH  23  24
ENDBRANCH  21  23
ENDBRANCH   5  22
TORSDOF 6
ENDMDL
MODEL 7
REMARK VINA RESULT:      -6.6     18.003     20.576
REMARK  Name = 155269226
REMARK  6 active torsions:
REMARK  status: ('A' for Active; 'I' for Inactive)
REMARK    1  A    between atoms: O_4  and  N_7
REMARK    2  A    between atoms: O_4  and  C_23
REMARK    3  A    between atoms: C_8  and  C_10
REMARK    4  A    between atoms: C_9  and  C_18
REMARK    5  A    between atoms: C_12  and  C_19
REMARK    6  A    between atoms: C_23  and  C_24
REMARK                            x       y       z     vdW  Elec       q    Type
REMARK                         _______ _______ _______ _____ _____    ______ ____
ROOT
ATOM      1  S   UNL     1      14.882   5.380   0.549  0.00  0.00    +0.000 S 
ATOM      2  N   UNL     1      12.782   4.722   1.876  0.00  0.00    +0.000 N 
ATOM      3  N   UNL     1      12.788   6.937   1.599  0.00  0.00    +0.000 NA
ATOM      4  C   UNL     1      11.653   6.542   2.304  0.00  0.00    +0.000 A 
ATOM      5  C   UNL     1      11.635   5.149   2.495  0.00  0.00    +0.000 A 
ATOM      6  C   UNL     1      13.422   5.820   1.384  0.00  0.00    +0.000 A 
ATOM      7  C   UNL     1      13.399   3.521   1.599  0.00  0.00    +0.000 A 
ATOM      8  C   UNL     1      14.542   3.681   0.919  0.00  0.00    +0.000 A 
ENDROOT
BRANCH   4   9
ATOM      9  C   UNL     1      10.648   7.525   2.723  0.00  0.00    +0.000 A 
ATOM     10  C   UNL     1       8.708   9.527   3.411  0.00  0.00    +0.000 A 
ATOM     11  C   UNL     1      11.036   8.770   3.244  0.00  0.00    +0.000 A 
ATOM     12  C   UNL     1       9.282   7.286   2.605  0.00  0.00    +0.000 A 
ATOM     13  C   UNL     1      10.084   9.749   3.598  0.00  0.00    +0.000 A 
ATOM     14  C   UNL     1       8.342   8.274   2.897  0.00  0.00    +0.000 A 
BRANCH  10  15
ATOM     15  C   UNL     1       7.655  10.524   3.721  0.00  0.00    +0.000 A 
ATOM     16  C   UNL     1       6.350  10.157   4.084  0.00  0.00    +0.000 A 
ATOM     17  C   UNL     1       7.948  11.906   3.715  0.00  0.00    +0.000 A 
ATOM     18  C   UNL     1       5.399  11.121   4.449  0.00  0.00    +0.000 A 
ATOM     19  C   UNL     1       7.013  12.866   4.099  0.00  0.00    +0.000 A 
ATOM     20  C   UNL     1       5.735  12.473   4.468  0.00  0.00    +0.000 A 
ENDBRANCH  10  15
ENDBRANCH   4   9
BRANCH   5  22
ATOM     21  N   UNL     1      10.315   4.175   4.325  0.00  0.00    +0.000 NA
ATOM     22  C   UNL     1      10.665   4.260   3.074  0.00  0.00    +0.000 C 
BRANCH  21  23
ATOM     23  O   UNL     1      10.906   5.180   5.103  0.00  0.00    +0.000 OA
BRANCH  23  24
ATOM     24  C   UNL     1      10.197   5.310   6.335  0.00  0.00    +0.000 C 
BRANCH  24  27
ATOM     25 CL   UNL     1      12.149  10.014   7.455  0.00  0.00    +0.000 Cl
ATOM     26 CL   UNL     1       9.098  11.144   7.447  0.00  0.00    +0.000 Cl
ATOM     27  C   UNL     1       9.967   6.781   6.579  0.00  0.00    +0.000 A 
ATOM     28  C   UNL     1      11.031   7.650   6.855  0.00  0.00    +0.000 A 
ATOM     29  C   UNL     1       8.658   7.287   6.554  0.00  0.00    +0.000 A 
ATOM     30  C   UNL     1      10.788   9.004   7.119  0.00  0.00    +0.000 A 
ATOM     31  C   UNL     1       8.413   8.634   6.815  0.00  0.00    +0.000 A 
ATOM     32  C   UNL     1       9.475   9.496   7.105  0.00  0.00    +0.000 A 
ENDBRANCH  24  27
ENDBRANCH  23  24
ENDBRANCH  21  23
ENDBRANCH   5  22
TORSDOF 6
ENDMDL
MODEL 8
REMARK VINA RESULT:      -6.6     35.798     38.081
REMARK  Name = 155269226
REMARK  6 active torsions:
REMARK  status: ('A' for Active; 'I' for Inactive)
REMARK    1  A    between atoms: O_4  and  N_7
REMARK    2  A    between atoms: O_4  and  C_23
REMARK    3  A    between atoms: C_8  and  C_10
REMARK    4  A    between atoms: C_9  and  C_18
REMARK    5  A    between atoms: C_12  and  C_19
REMARK    6  A    between atoms: C_23  and  C_24
REMARK                            x       y       z     vdW  Elec       q    Type
REMARK                         _______ _______ _______ _____ _____    ______ ____
ROOT
ATOM      1  S   UNL     1       4.270 -23.847   6.146  0.00  0.00    +0.000 S 
ATOM      2  N   UNL     1       5.230 -21.536   6.729  0.00  0.00    +0.000 N 
ATOM      3  N   UNL     1       4.393 -21.462   4.660  0.00  0.00    +0.000 NA
ATOM      4  C   UNL     1       4.910 -20.218   5.016  0.00  0.00    +0.000 A 
ATOM      5  C   UNL     1       5.449 -20.246   6.314  0.00  0.00    +0.000 A 
ATOM      6  C   UNL     1       4.621 -22.202   5.707  0.00  0.00    +0.000 A 
ATOM      7  C   UNL     1       5.418 -22.280   7.873  0.00  0.00    +0.000 A 
ATOM      8  C   UNL     1       4.987 -23.541   7.736  0.00  0.00    +0.000 A 
ENDROOT
BRANCH   4   9
ATOM      9  C   UNL     1       4.827 -19.078   4.097  0.00  0.00    +0.000 A 
ATOM     10  C   UNL     1       4.521 -16.893   2.259  0.00  0.00    +0.000 A 
ATOM     11  C   UNL     1       4.982 -19.259   2.714  0.00  0.00    +0.000 A 
ATOM     12  C   UNL     1       4.572 -17.783   4.540  0.00  0.00    +0.000 A 
ATOM     13  C   UNL     1       4.848 -18.184   1.809  0.00  0.00    +0.000 A 
ATOM     14  C   UNL     1       4.379 -16.732   3.646  0.00  0.00    +0.000 A 
BRANCH  10  15
ATOM     15  C   UNL     1       4.324 -15.725   1.366  0.00  0.00    +0.000 A 
ATOM     16  C   UNL     1       5.275 -15.336   0.411  0.00  0.00    +0.000 A 
ATOM     17  C   UNL     1       3.123 -14.983   1.407  0.00  0.00    +0.000 A 
ATOM     18  C   UNL     1       5.025 -14.276  -0.474  0.00  0.00    +0.000 A 
ATOM     19  C   UNL     1       2.861 -13.943   0.515  0.00  0.00    +0.000 A 
ATOM     20  C   UNL     1       3.814 -13.590  -0.428  0.00  0.00    +0.000 A 
ENDBRANCH  10  15
ENDBRANCH   4   9
BRANCH   5  22
ATOM     21  N   UNL     1       5.388 -18.478   8.020  0.00  0.00    +0.000 NA
ATOM     22  C   UNL     1       6.013 -19.226   7.156  0.00  0.00    +0.000 C 
BRANCH  21  23
ATOM     23  O   UNL     1       4.050 -18.861   8.173  0.00  0.00    +0.000 OA
BRANCH  23  24
ATOM     24  C   UNL     1       3.251 -17.711   8.452  0.00  0.00    +0.000 C 
BRANCH  24  27
ATOM     25 CL   UNL     1      -0.056 -14.734   5.733  0.00  0.00    +0.000 Cl
ATOM     26 CL   UNL     1      -0.981 -17.424   4.153  0.00  0.00    +0.000 Cl
ATOM     27  C   UNL     1       2.220 -17.591   7.359  0.00  0.00    +0.000 A 
ATOM     28  C   UNL     1       1.623 -16.361   7.049  0.00  0.00    +0.000 A 
ATOM     29  C   UNL     1       1.829 -18.739   6.652  0.00  0.00    +0.000 A 
ATOM     30  C   UNL     1       0.637 -16.284   6.057  0.00  0.00    +0.000 A 
ATOM     31  C   UNL     1       0.849 -18.665   5.664  0.00  0.00    +0.000 A 
ATOM     32  C   UNL     1       0.245 -17.440   5.367  0.00  0.00    +0.000 A 
ENDBRANCH  24  27
ENDBRANCH  23  24
ENDBRANCH  21  23
ENDBRANCH   5  22
TORSDOF 6
ENDMDL
MODEL 9
REMARK VINA RESULT:      -6.6     31.795     34.255
REMARK  Name = 155269226
REMARK  6 active torsions:
REMARK  status: ('A' for Active; 'I' for Inactive)
REMARK    1  A    between atoms: O_4  and  N_7
REMARK    2  A    between atoms: O_4  and  C_23
REMARK    3  A    between atoms: C_8  and  C_10
REMARK    4  A    between atoms: C_9  and  C_18
REMARK    5  A    between atoms: C_12  and  C_19
REMARK    6  A    between atoms: C_23  and  C_24
REMARK                            x       y       z     vdW  Elec       q    Type
REMARK                         _______ _______ _______ _____ _____    ______ ____
ROOT
ATOM      1  S   UNL     1      15.366  -7.428  -6.136  0.00  0.00    +0.000 S 
ATOM      2  N   UNL     1      15.763  -5.410  -4.596  0.00  0.00    +0.000 N 
ATOM      3  N   UNL     1      17.019  -7.112  -3.882  0.00  0.00    +0.000 NA
ATOM      4  C   UNL     1      17.220  -5.992  -3.077  0.00  0.00    +0.000 A 
ATOM      5  C   UNL     1      16.431  -4.911  -3.506  0.00  0.00    +0.000 A 
ATOM      6  C   UNL     1      16.140  -6.710  -4.755  0.00  0.00    +0.000 A 
ATOM      7  C   UNL     1      14.886  -4.942  -5.550  0.00  0.00    +0.000 A 
ATOM      8  C   UNL     1      14.548  -5.887  -6.438  0.00  0.00    +0.000 A 
ENDROOT
BRANCH   4   9
ATOM      9  C   UNL     1      18.178  -6.028  -1.966  0.00  0.00    +0.000 A 
ATOM     10  C   UNL     1      20.166  -6.081   0.104  0.00  0.00    +0.000 A 
ATOM     11  C   UNL     1      18.924  -7.186  -1.700  0.00  0.00    +0.000 A 
ATOM     12  C   UNL     1      18.407  -4.925  -1.148  0.00  0.00    +0.000 A 
ATOM     13  C   UNL     1      19.891  -7.220  -0.672  0.00  0.00    +0.000 A 
ATOM     14  C   UNL     1      19.403  -4.936  -0.173  0.00  0.00    +0.000 A 
BRANCH  10  15
ATOM     15  C   UNL     1      21.195  -6.030   1.172  0.00  0.00    +0.000 A 
ATOM     16  C   UNL     1      22.074  -7.093   1.426  0.00  0.00    +0.000 A 
ATOM     17  C   UNL     1      21.366  -4.863   1.951  0.00  0.00    +0.000 A 
ATOM     18  C   UNL     1      23.088  -6.983   2.389  0.00  0.00    +0.000 A 
ATOM     19  C   UNL     1      22.386  -4.742   2.893  0.00  0.00    +0.000 A 
ATOM     20  C   UNL     1      23.250  -5.804   3.112  0.00  0.00    +0.000 A 
ENDBRANCH  10  15
ENDBRANCH   4   9
BRANCH   5  22
ATOM     21  N   UNL     1      17.038  -2.530  -3.498  0.00  0.00    +0.000 NA
ATOM     22  C   UNL     1      16.339  -3.543  -3.075  0.00  0.00    +0.000 C 
BRANCH  21  23
ATOM     23  O   UNL     1      17.859  -2.876  -4.579  0.00  0.00    +0.000 OA
BRANCH  23  24
ATOM     24  C   UNL     1      19.117  -2.211  -4.458  0.00  0.00    +0.000 C 
BRANCH  24  27
ATOM     25 CL   UNL     1      21.186  -6.986  -4.785  0.00  0.00    +0.000 Cl
ATOM     26 CL   UNL     1      23.095  -6.195  -2.271  0.00  0.00    +0.000 Cl
ATOM     27  C   UNL     1      20.124  -3.220  -3.966  0.00  0.00    +0.000 A 
ATOM     28  C   UNL     1      20.217  -4.497  -4.536  0.00  0.00    +0.000 A 
ATOM     29  C   UNL     1      20.971  -2.884  -2.899  0.00  0.00    +0.000 A 
ATOM     30  C   UNL     1      21.132  -5.431  -4.034  0.00  0.00    +0.000 A 
ATOM     31  C   UNL     1      21.884  -3.810  -2.398  0.00  0.00    +0.000 A 
ATOM     32  C   UNL     1      21.964  -5.088  -2.958  0.00  0.00    +0.000 A 
ENDBRANCH  24  27
ENDBRANCH  23  24
ENDBRANCH  21  23
ENDBRANCH   5  22
TORSDOF 6
ENDMDL
MODEL 10
REMARK VINA RESULT:      -6.5     22.305     24.947
REMARK  Name = 155269226
REMARK  6 active torsions:
REMARK  status: ('A' for Active; 'I' for Inactive)
REMARK    1  A    between atoms: O_4  and  N_7
REMARK    2  A    between atoms: O_4  and  C_23
REMARK    3  A    between atoms: C_8  and  C_10
REMARK    4  A    between atoms: C_9  and  C_18
REMARK    5  A    between atoms: C_12  and  C_19
REMARK    6  A    between atoms: C_23  and  C_24
REMARK                            x       y       z     vdW  Elec       q    Type
REMARK                         _______ _______ _______ _____ _____    ______ ____
ROOT
ATOM      1  S   UNL     1     -18.216   9.010  24.306  0.00  0.00    +0.000 S 
ATOM      2  N   UNL     1     -17.105   7.221  22.833  0.00  0.00    +0.000 N 
ATOM      3  N   UNL     1     -16.981   9.189  21.785  0.00  0.00    +0.000 NA
ATOM      4  C   UNL     1     -16.374   8.195  21.019  0.00  0.00    +0.000 A 
ATOM      5  C   UNL     1     -16.449   6.946  21.660  0.00  0.00    +0.000 A 
ATOM      6  C   UNL     1     -17.404   8.551  22.839  0.00  0.00    +0.000 A 
ATOM      7  C   UNL     1     -17.482   6.540  23.969  0.00  0.00    +0.000 A 
ATOM      8  C   UNL     1     -18.106   7.329  24.853  0.00  0.00    +0.000 A 
ENDROOT
BRANCH   4   9
ATOM      9  C   UNL     1     -15.739   8.517  19.737  0.00  0.00    +0.000 A 
ATOM     10  C   UNL     1     -14.356   9.134  17.297  0.00  0.00    +0.000 A 
ATOM     11  C   UNL     1     -15.213   9.796  19.498  0.00  0.00    +0.000 A 
ATOM     12  C   UNL     1     -15.607   7.579  18.717  0.00  0.00    +0.000 A 
ATOM     13  C   UNL     1     -14.547  10.107  18.293  0.00  0.00    +0.000 A 
ATOM     14  C   UNL     1     -14.897   7.864  17.552  0.00  0.00    +0.000 A 
BRANCH  10  15
ATOM     15  C   UNL     1     -13.632   9.376  16.025  0.00  0.00    +0.000 A 
ATOM     16  C   UNL     1     -13.040  10.609  15.716  0.00  0.00    +0.000 A 
ATOM     17  C   UNL     1     -13.461   8.334  15.086  0.00  0.00    +0.000 A 
ATOM     18  C   UNL     1     -12.294  10.782  14.540  0.00  0.00    +0.000 A 
ATOM     19  C   UNL     1     -12.701   8.495  13.928  0.00  0.00    +0.000 A 
ATOM     20  C   UNL     1     -12.115   9.722  13.655  0.00  0.00    +0.000 A 
ENDBRANCH  10  15
ENDBRANCH   4   9
BRANCH   5  22
ATOM     21  N   UNL     1     -14.661   5.302  21.288  0.00  0.00    +0.000 NA
ATOM     22  C   UNL     1     -15.914   5.652  21.333  0.00  0.00    +0.000 C 
BRANCH  21  23
ATOM     23  O   UNL     1     -13.816   6.321  21.743  0.00  0.00    +0.000 OA
BRANCH  23  24
ATOM     24  C   UNL     1     -12.481   6.069  21.303  0.00  0.00    +0.000 C 
BRANCH  24  27
ATOM     25 CL   UNL     1     -10.395   8.011  16.937  0.00  0.00    +0.000 Cl
ATOM     26 CL   UNL     1     -10.545  10.952  18.322  0.00  0.00    +0.000 Cl
ATOM     27  C   UNL     1     -12.023   7.268  20.511  0.00  0.00    +0.000 A 
ATOM     28  C   UNL     1     -11.495   7.133  19.221  0.00  0.00    +0.000 A 
ATOM     29  C   UNL     1     -12.105   8.545  21.087  0.00  0.00    +0.000 A 
ATOM     30  C   UNL     1     -11.038   8.257  18.522  0.00  0.00    +0.000 A 
ATOM     31  C   UNL     1     -11.653   9.667  20.394  0.00  0.00    +0.000 A 
ATOM     32  C   UNL     1     -11.112   9.527  19.112  0.00  0.00    +0.000 A 
ENDBRANCH  24  27
ENDBRANCH  23  24
ENDBRANCH  21  23
ENDBRANCH   5  22
TORSDOF 6
ENDMDL
