REMARK  Name = 155269231
REMARK  6 active torsions:
REMARK  status: ('A' for Active; 'I' for Inactive)
REMARK    1  A    between atoms: N_7  and  C_10
REMARK    2  A    between atoms: N_7  and  C_12
REMARK    3  A    between atoms: C_9  and  C_10
REMARK    4  A    between atoms: C_11  and  C_15
REMARK    5  A    between atoms: C_12  and  C_14
REMARK    6  A    between atoms: C_14  and  C_17
REMARK                            x       y       z     vdW  Elec       q    Type
REMARK                         _______ _______ _______ _____ _____    ______ ____
ROOT
ATOM      1  S   UNL     1       1.428  -4.017  -4.379  0.00  0.00    +0.000 S 
ATOM      2  N   UNL     1       2.473  -2.622  -2.461  0.00  0.00    +0.000 N 
ATOM      3  N   UNL     1       2.904  -4.802  -2.151  0.00  0.00    +0.000 NA
ATOM      4  C   UNL     1       3.156  -2.683  -1.260  0.00  0.00    +0.000 A 
ATOM      5  C   UNL     1       3.481  -4.046  -1.162  0.00  0.00    +0.000 A 
ATOM      6  C   UNL     1       2.309  -3.914  -2.887  0.00  0.00    +0.000 A 
ATOM      7  C   UNL     1       1.954  -1.689  -3.338  0.00  0.00    +0.000 A 
ATOM      8  C   UNL     1       1.374  -2.255  -4.414  0.00  0.00    +0.000 A 
ENDROOT
BRANCH   5  10
ATOM      9 CL   UNL     1       6.581  -6.596   3.264  0.00  0.00    +0.000 Cl
ATOM     10  C   UNL     1       4.288  -4.670  -0.117  0.00  0.00    +0.000 A 
ATOM     11  C   UNL     1       5.407  -4.036   0.435  0.00  0.00    +0.000 A 
ATOM     12  C   UNL     1       3.938  -5.947   0.337  0.00  0.00    +0.000 A 
ATOM     13  C   UNL     1       6.108  -4.621   1.490  0.00  0.00    +0.000 A 
ATOM     14  C   UNL     1       4.654  -6.550   1.375  0.00  0.00    +0.000 A 
ATOM     15  C   UNL     1       5.727  -5.876   1.958  0.00  0.00    +0.000 A 
ENDBRANCH   5  10
BRANCH   4  16
ATOM     16  C   UNL     1       3.507  -1.588  -0.287  0.00  0.00    +0.000 C 
BRANCH  16  18
ATOM     17 CL   UNL     1       3.005   0.900  -1.187  0.00  0.00    +0.000 Cl
ATOM     18  N   UNL     1       2.572  -0.467  -0.125  0.00  0.00    +0.000 NA
BRANCH  18  19
ATOM     19  C   UNL     1       2.529  -0.004   1.296  0.00  0.00    +0.000 C 
BRANCH  19  20
ATOM     20  C   UNL     1       1.194   0.717   1.541  0.00  0.00    +0.000 C 
BRANCH  20  23
ATOM     21 CL   UNL     1       2.186   2.258   6.493  0.00  0.00    +0.000 Cl
ATOM     22 CL   UNL     1      -1.011   2.021   7.038  0.00  0.00    +0.000 Cl
ATOM     23  C   UNL     1       0.755   1.010   2.963  0.00  0.00    +0.000 A 
ATOM     24  C   UNL     1       1.604   1.433   3.994  0.00  0.00    +0.000 A 
ATOM     25  C   UNL     1      -0.627   0.955   3.222  0.00  0.00    +0.000 A 
ATOM     26  C   UNL     1       1.079   1.750   5.265  0.00  0.00    +0.000 A 
ATOM     27  C   UNL     1      -1.151   1.268   4.476  0.00  0.00    +0.000 A 
ATOM     28  C   UNL     1      -0.297   1.660   5.506  0.00  0.00    +0.000 A 
ENDBRANCH  20  23
ENDBRANCH  19  20
ENDBRANCH  18  19
ENDBRANCH  16  18
ENDBRANCH   4  16
TORSDOF 6
