MODEL 1
REMARK VINA RESULT:      -6.2      0.000      0.000
REMARK  Name = 155269227
REMARK  5 active torsions:
REMARK  status: ('A' for Active; 'I' for Inactive)
REMARK    1  A    between atoms: O_4  and  N_7
REMARK    2  A    between atoms: O_4  and  C_24
REMARK    3  A    between atoms: C_8  and  C_9
REMARK    4  A    between atoms: C_10  and  C_18
REMARK    5  A    between atoms: C_24  and  C_25
REMARK                            x       y       z     vdW  Elec       q    Type
REMARK                         _______ _______ _______ _____ _____    ______ ____
ROOT
ATOM      1  S   UNL     1     -26.041   6.734 -59.242  0.00  0.00    +0.000 S 
ATOM      2  N   UNL     1     -24.698   5.109 -57.769  0.00  0.00    +0.000 N 
ATOM      3  N   UNL     1     -25.004   7.015 -56.649  0.00  0.00    +0.000 NA
ATOM      4  C   UNL     1     -24.233   6.134 -55.905  0.00  0.00    +0.000 A 
ATOM      5  C   UNL     1     -24.033   4.921 -56.574  0.00  0.00    +0.000 A 
ATOM      6  C   UNL     1     -25.215   6.368 -57.756  0.00  0.00    +0.000 A 
ATOM      7  C   UNL     1     -24.966   4.388 -58.915  0.00  0.00    +0.000 A 
ATOM      8  C   UNL     1     -25.650   5.111 -59.815  0.00  0.00    +0.000 A 
ENDROOT
BRANCH   4   9
ATOM      9  C   UNL     1     -23.690   6.524 -54.610  0.00  0.00    +0.000 A 
ATOM     10  C   UNL     1     -23.814   6.432 -52.167  0.00  0.00    +0.000 A 
ATOM     11  C   UNL     1     -24.268   6.021 -53.434  0.00  0.00    +0.000 A 
ATOM     12  C   UNL     1     -22.753   7.364 -52.076  0.00  0.00    +0.000 A 
ATOM     13  C   UNL     1     -22.647   7.458 -54.499  0.00  0.00    +0.000 A 
ATOM     14  C   UNL     1     -22.176   7.857 -53.250  0.00  0.00    +0.000 A 
ATOM     15  C   UNL     1     -24.392   5.943 -50.983  0.00  0.00    +0.000 A 
ATOM     16  C   UNL     1     -22.308   7.789 -50.818  0.00  0.00    +0.000 A 
ATOM     17  C   UNL     1     -23.939   6.378 -49.730  0.00  0.00    +0.000 A 
ATOM     18  C   UNL     1     -22.900   7.301 -49.650  0.00  0.00    +0.000 A 
ENDBRANCH   4   9
BRANCH   5  20
ATOM     19  N   UNL     1     -22.139   3.354 -56.432  0.00  0.00    +0.000 NA
ATOM     20  C   UNL     1     -23.356   3.726 -56.148  0.00  0.00    +0.000 C 
BRANCH  19  21
ATOM     21  O   UNL     1     -21.438   4.369 -57.090  0.00  0.00    +0.000 OA
BRANCH  21  22
ATOM     22  C   UNL     1     -20.370   4.855 -56.280  0.00  0.00    +0.000 C 
BRANCH  22  25
ATOM     23 CL   UNL     1     -21.430   8.856 -59.455  0.00  0.00    +0.000 Cl
ATOM     24 CL   UNL     1     -19.210  10.581 -57.819  0.00  0.00    +0.000 Cl
ATOM     25  C   UNL     1     -20.154   6.298 -56.661  0.00  0.00    +0.000 A 
ATOM     26  C   UNL     1     -20.833   6.885 -57.736  0.00  0.00    +0.000 A 
ATOM     27  C   UNL     1     -19.231   7.070 -55.938  0.00  0.00    +0.000 A 
ATOM     28  C   UNL     1     -20.569   8.211 -58.104  0.00  0.00    +0.000 A 
ATOM     29  C   UNL     1     -18.967   8.390 -56.301  0.00  0.00    +0.000 A 
ATOM     30  C   UNL     1     -19.624   8.960 -57.393  0.00  0.00    +0.000 A 
ENDBRANCH  22  25
ENDBRANCH  21  22
ENDBRANCH  19  21
ENDBRANCH   5  20
TORSDOF 5
ENDMDL
MODEL 2
REMARK VINA RESULT:      -6.0      2.995      4.497
REMARK  Name = 155269227
REMARK  5 active torsions:
REMARK  status: ('A' for Active; 'I' for Inactive)
REMARK    1  A    between atoms: O_4  and  N_7
REMARK    2  A    between atoms: O_4  and  C_24
REMARK    3  A    between atoms: C_8  and  C_9
REMARK    4  A    between atoms: C_10  and  C_18
REMARK    5  A    between atoms: C_24  and  C_25
REMARK                            x       y       z     vdW  Elec       q    Type
REMARK                         _______ _______ _______ _____ _____    ______ ____
ROOT
ATOM      1  S   UNL     1     -28.225   4.457 -54.132  0.00  0.00    +0.000 S 
ATOM      2  N   UNL     1     -26.637   3.308 -55.797  0.00  0.00    +0.000 N 
ATOM      3  N   UNL     1     -25.482   4.807 -54.614  0.00  0.00    +0.000 NA
ATOM      4  C   UNL     1     -24.668   4.207 -55.562  0.00  0.00    +0.000 A 
ATOM      5  C   UNL     1     -25.359   3.250 -56.315  0.00  0.00    +0.000 A 
ATOM      6  C   UNL     1     -26.643   4.263 -54.827  0.00  0.00    +0.000 A 
ATOM      7  C   UNL     1     -27.851   2.679 -55.993  0.00  0.00    +0.000 A 
ATOM      8  C   UNL     1     -28.812   3.185 -55.206  0.00  0.00    +0.000 A 
ENDROOT
BRANCH   4   9
ATOM      9  C   UNL     1     -23.280   4.619 -55.727  0.00  0.00    +0.000 A 
ATOM     10  C   UNL     1     -21.572   6.364 -55.552  0.00  0.00    +0.000 A 
ATOM     11  C   UNL     1     -22.888   5.909 -55.340  0.00  0.00    +0.000 A 
ATOM     12  C   UNL     1     -20.628   5.504 -56.160  0.00  0.00    +0.000 A 
ATOM     13  C   UNL     1     -22.331   3.785 -56.341  0.00  0.00    +0.000 A 
ATOM     14  C   UNL     1     -21.022   4.217 -56.538  0.00  0.00    +0.000 A 
ATOM     15  C   UNL     1     -21.171   7.658 -55.178  0.00  0.00    +0.000 A 
ATOM     16  C   UNL     1     -19.322   5.957 -56.387  0.00  0.00    +0.000 A 
ATOM     17  C   UNL     1     -19.862   8.100 -55.412  0.00  0.00    +0.000 A 
ATOM     18  C   UNL     1     -18.941   7.250 -56.018  0.00  0.00    +0.000 A 
ENDBRANCH   4   9
BRANCH   5  20
ATOM     19  N   UNL     1     -24.816   2.596 -58.625  0.00  0.00    +0.000 NA
ATOM     20  C   UNL     1     -24.891   2.362 -57.345  0.00  0.00    +0.000 C 
BRANCH  19  21
ATOM     21  O   UNL     1     -25.084   3.937 -58.914  0.00  0.00    +0.000 OA
BRANCH  21  22
ATOM     22  C   UNL     1     -24.073   4.489 -59.754  0.00  0.00    +0.000 C 
BRANCH  22  25
ATOM     23 CL   UNL     1     -25.585   8.843 -57.311  0.00  0.00    +0.000 Cl
ATOM     24 CL   UNL     1     -22.577   9.995 -57.768  0.00  0.00    +0.000 Cl
ATOM     25  C   UNL     1     -23.726   5.843 -59.190  0.00  0.00    +0.000 A 
ATOM     26  C   UNL     1     -24.681   6.636 -58.542  0.00  0.00    +0.000 A 
ATOM     27  C   UNL     1     -22.422   6.338 -59.341  0.00  0.00    +0.000 A 
ATOM     28  C   UNL     1     -24.346   7.917 -58.081  0.00  0.00    +0.000 A 
ATOM     29  C   UNL     1     -22.085   7.611 -58.882  0.00  0.00    +0.000 A 
ATOM     30  C   UNL     1     -23.048   8.409 -58.263  0.00  0.00    +0.000 A 
ENDBRANCH  22  25
ENDBRANCH  21  22
ENDBRANCH  19  21
ENDBRANCH   5  20
TORSDOF 5
ENDMDL
MODEL 3
REMARK VINA RESULT:      -5.8      1.367      1.862
REMARK  Name = 155269227
REMARK  5 active torsions:
REMARK  status: ('A' for Active; 'I' for Inactive)
REMARK    1  A    between atoms: O_4  and  N_7
REMARK    2  A    between atoms: O_4  and  C_24
REMARK    3  A    between atoms: C_8  and  C_9
REMARK    4  A    between atoms: C_10  and  C_18
REMARK    5  A    between atoms: C_24  and  C_25
REMARK                            x       y       z     vdW  Elec       q    Type
REMARK                         _______ _______ _______ _____ _____    ______ ____
ROOT
ATOM      1  S   UNL     1     -24.645   7.554 -59.636  0.00  0.00    +0.000 S 
ATOM      2  N   UNL     1     -23.495   5.734 -58.229  0.00  0.00    +0.000 N 
ATOM      3  N   UNL     1     -24.679   7.054 -56.874  0.00  0.00    +0.000 NA
ATOM      4  C   UNL     1     -23.999   6.093 -56.142  0.00  0.00    +0.000 A 
ATOM      5  C   UNL     1     -23.254   5.238 -56.964  0.00  0.00    +0.000 A 
ATOM      6  C   UNL     1     -24.311   6.815 -58.098  0.00  0.00    +0.000 A 
ATOM      7  C   UNL     1     -23.145   5.432 -59.531  0.00  0.00    +0.000 A 
ATOM      8  C   UNL     1     -23.651   6.315 -60.405  0.00  0.00    +0.000 A 
ENDROOT
BRANCH   4   9
ATOM      9  C   UNL     1     -24.061   6.077 -54.686  0.00  0.00    +0.000 A 
ATOM     10  C   UNL     1     -23.228   6.905 -52.538  0.00  0.00    +0.000 A 
ATOM     11  C   UNL     1     -23.245   6.945 -53.946  0.00  0.00    +0.000 A 
ATOM     12  C   UNL     1     -24.054   5.978 -51.859  0.00  0.00    +0.000 A 
ATOM     13  C   UNL     1     -24.864   5.156 -53.993  0.00  0.00    +0.000 A 
ATOM     14  C   UNL     1     -24.871   5.120 -52.601  0.00  0.00    +0.000 A 
ATOM     15  C   UNL     1     -22.406   7.762 -51.786  0.00  0.00    +0.000 A 
ATOM     16  C   UNL     1     -24.029   5.924 -50.459  0.00  0.00    +0.000 A 
ATOM     17  C   UNL     1     -22.390   7.696 -50.387  0.00  0.00    +0.000 A 
ATOM     18  C   UNL     1     -23.199   6.776 -49.726  0.00  0.00    +0.000 A 
ENDBRANCH   4   9
BRANCH   5  20
ATOM     19  N   UNL     1     -21.260   4.061 -56.129  0.00  0.00    +0.000 NA
ATOM     20  C   UNL     1     -22.463   4.085 -56.631  0.00  0.00    +0.000 C 
BRANCH  19  21
ATOM     21  O   UNL     1     -20.840   5.340 -55.753  0.00  0.00    +0.000 OA
BRANCH  21  22
ATOM     22  C   UNL     1     -19.571   5.647 -56.325  0.00  0.00    +0.000 C 
BRANCH  22  25
ATOM     23 CL   UNL     1     -22.032  10.243 -56.190  0.00  0.00    +0.000 Cl
ATOM     24 CL   UNL     1     -19.448  11.531 -57.689  0.00  0.00    +0.000 Cl
ATOM     25  C   UNL     1     -19.558   7.130 -56.593  0.00  0.00    +0.000 A 
ATOM     26  C   UNL     1     -20.652   7.944 -56.276  0.00  0.00    +0.000 A 
ATOM     27  C   UNL     1     -18.433   7.710 -57.200  0.00  0.00    +0.000 A 
ATOM     28  C   UNL     1     -20.636   9.310 -56.592  0.00  0.00    +0.000 A 
ATOM     29  C   UNL     1     -18.414   9.068 -57.514  0.00  0.00    +0.000 A 
ATOM     30  C   UNL     1     -19.519   9.869 -57.224  0.00  0.00    +0.000 A 
ENDBRANCH  22  25
ENDBRANCH  21  22
ENDBRANCH  19  21
ENDBRANCH   5  20
TORSDOF 5
ENDMDL
MODEL 4
REMARK VINA RESULT:      -5.8     17.640     19.869
REMARK  Name = 155269227
REMARK  5 active torsions:
REMARK  status: ('A' for Active; 'I' for Inactive)
REMARK    1  A    between atoms: O_4  and  N_7
REMARK    2  A    between atoms: O_4  and  C_24
REMARK    3  A    between atoms: C_8  and  C_9
REMARK    4  A    between atoms: C_10  and  C_18
REMARK    5  A    between atoms: C_24  and  C_25
REMARK                            x       y       z     vdW  Elec       q    Type
REMARK                         _______ _______ _______ _____ _____    ______ ____
ROOT
ATOM      1  S   UNL     1       1.045   5.615 -60.944  0.00  0.00    +0.000 S 
ATOM      2  N   UNL     1      -1.293   6.598 -60.521  0.00  0.00    +0.000 N 
ATOM      3  N   UNL     1      -0.622   5.515 -58.689  0.00  0.00    +0.000 NA
ATOM      4  C   UNL     1      -1.906   6.011 -58.516  0.00  0.00    +0.000 A 
ATOM      5  C   UNL     1      -2.353   6.709 -59.645  0.00  0.00    +0.000 A 
ATOM      6  C   UNL     1      -0.329   5.860 -59.907  0.00  0.00    +0.000 A 
ATOM      7  C   UNL     1      -0.969   7.023 -61.795  0.00  0.00    +0.000 A 
ATOM      8  C   UNL     1       0.230   6.568 -62.186  0.00  0.00    +0.000 A 
ENDROOT
BRANCH   4   9
ATOM      9  C   UNL     1      -2.653   5.747 -57.293  0.00  0.00    +0.000 A 
ATOM     10  C   UNL     1      -3.929   4.183 -55.907  0.00  0.00    +0.000 A 
ATOM     11  C   UNL     1      -3.143   4.456 -57.043  0.00  0.00    +0.000 A 
ATOM     12  C   UNL     1      -4.225   5.228 -54.999  0.00  0.00    +0.000 A 
ATOM     13  C   UNL     1      -2.970   6.772 -56.387  0.00  0.00    +0.000 A 
ATOM     14  C   UNL     1      -3.730   6.511 -55.250  0.00  0.00    +0.000 A 
ATOM     15  C   UNL     1      -4.433   2.897 -55.652  0.00  0.00    +0.000 A 
ATOM     16  C   UNL     1      -5.021   4.965 -53.876  0.00  0.00    +0.000 A 
ATOM     17  C   UNL     1      -5.229   2.648 -54.526  0.00  0.00    +0.000 A 
ATOM     18  C   UNL     1      -5.523   3.682 -53.642  0.00  0.00    +0.000 A 
ENDBRANCH   4   9
BRANCH   5  20
ATOM     19  N   UNL     1      -4.743   6.934 -60.191  0.00  0.00    +0.000 NA
ATOM     20  C   UNL     1      -3.580   7.425 -59.868  0.00  0.00    +0.000 C 
BRANCH  19  21
ATOM     21  O   UNL     1      -4.741   5.538 -60.128  0.00  0.00    +0.000 OA
BRANCH  21  22
ATOM     22  C   UNL     1      -5.979   5.050 -59.616  0.00  0.00    +0.000 C 
BRANCH  22  25
ATOM     23 CL   UNL     1      -8.369   1.417 -62.497  0.00  0.00    +0.000 Cl
ATOM     24 CL   UNL     1      -6.471  -0.797 -61.056  0.00  0.00    +0.000 Cl
ATOM     25  C   UNL     1      -6.094   3.610 -60.048  0.00  0.00    +0.000 A 
ATOM     26  C   UNL     1      -7.040   3.201 -60.997  0.00  0.00    +0.000 A 
ATOM     27  C   UNL     1      -5.254   2.648 -59.468  0.00  0.00    +0.000 A 
ATOM     28  C   UNL     1      -7.165   1.846 -61.335  0.00  0.00    +0.000 A 
ATOM     29  C   UNL     1      -5.375   1.300 -59.803  0.00  0.00    +0.000 A 
ATOM     30  C   UNL     1      -6.339   0.893 -60.727  0.00  0.00    +0.000 A 
ENDBRANCH  22  25
ENDBRANCH  21  22
ENDBRANCH  19  21
ENDBRANCH   5  20
TORSDOF 5
ENDMDL
MODEL 5
REMARK VINA RESULT:      -5.7     14.894     17.432
REMARK  Name = 155269227
REMARK  5 active torsions:
REMARK  status: ('A' for Active; 'I' for Inactive)
REMARK    1  A    between atoms: O_4  and  N_7
REMARK    2  A    between atoms: O_4  and  C_24
REMARK    3  A    between atoms: C_8  and  C_9
REMARK    4  A    between atoms: C_10  and  C_18
REMARK    5  A    between atoms: C_24  and  C_25
REMARK                            x       y       z     vdW  Elec       q    Type
REMARK                         _______ _______ _______ _____ _____    ______ ____
ROOT
ATOM      1  S   UNL     1     -19.978  16.467 -43.534  0.00  0.00    +0.000 S 
ATOM      2  N   UNL     1     -18.216  15.517 -45.148  0.00  0.00    +0.000 N 
ATOM      3  N   UNL     1     -17.175  16.584 -43.488  0.00  0.00    +0.000 NA
ATOM      4  C   UNL     1     -16.255  16.107 -44.409  0.00  0.00    +0.000 A 
ATOM      5  C   UNL     1     -16.875  15.419 -45.459  0.00  0.00    +0.000 A 
ATOM      6  C   UNL     1     -18.318  16.239 -43.999  0.00  0.00    +0.000 A 
ATOM      7  C   UNL     1     -19.421  15.092 -45.671  0.00  0.00    +0.000 A 
ATOM      8  C   UNL     1     -20.464  15.530 -44.949  0.00  0.00    +0.000 A 
ENDROOT
BRANCH   4   9
ATOM      9  C   UNL     1     -14.831  16.378 -44.256  0.00  0.00    +0.000 A 
ATOM     10  C   UNL     1     -13.046  17.772 -43.328  0.00  0.00    +0.000 A 
ATOM     11  C   UNL     1     -14.409  17.439 -43.441  0.00  0.00    +0.000 A 
ATOM     12  C   UNL     1     -12.084  17.021 -44.044  0.00  0.00    +0.000 A 
ATOM     13  C   UNL     1     -13.862  15.653 -44.969  0.00  0.00    +0.000 A 
ATOM     14  C   UNL     1     -12.509  15.961 -44.850  0.00  0.00    +0.000 A 
ATOM     15  C   UNL     1     -12.613  18.840 -42.522  0.00  0.00    +0.000 A 
ATOM     16  C   UNL     1     -10.728  17.360 -43.947  0.00  0.00    +0.000 A 
ATOM     17  C   UNL     1     -11.254  19.169 -42.436  0.00  0.00    +0.000 A 
ATOM     18  C   UNL     1     -10.315  18.430 -43.150  0.00  0.00    +0.000 A 
ENDBRANCH   4   9
BRANCH   5  20
ATOM     19  N   UNL     1     -15.979  15.211 -47.743  0.00  0.00    +0.000 NA
ATOM     20  C   UNL     1     -16.303  14.722 -46.579  0.00  0.00    +0.000 C 
BRANCH  19  21
ATOM     21  O   UNL     1     -16.080  16.605 -47.755  0.00  0.00    +0.000 OA
BRANCH  21  22
ATOM     22  C   UNL     1     -14.880  17.198 -48.246  0.00  0.00    +0.000 C 
BRANCH  22  25
ATOM     23 CL   UNL     1     -11.353  20.338 -46.029  0.00  0.00    +0.000 Cl
ATOM     24 CL   UNL     1     -13.807  21.766 -44.440  0.00  0.00    +0.000 Cl
ATOM     25  C   UNL     1     -14.574  18.372 -47.351  0.00  0.00    +0.000 A 
ATOM     26  C   UNL     1     -13.261  18.812 -47.139  0.00  0.00    +0.000 A 
ATOM     27  C   UNL     1     -15.624  19.028 -46.691  0.00  0.00    +0.000 A 
ATOM     28  C   UNL     1     -13.000  19.868 -46.255  0.00  0.00    +0.000 A 
ATOM     29  C   UNL     1     -15.368  20.079 -45.813  0.00  0.00    +0.000 A 
ATOM     30  C   UNL     1     -14.056  20.494 -45.581  0.00  0.00    +0.000 A 
ENDBRANCH  22  25
ENDBRANCH  21  22
ENDBRANCH  19  21
ENDBRANCH   5  20
TORSDOF 5
ENDMDL
MODEL 6
REMARK VINA RESULT:      -5.6      3.133      4.984
REMARK  Name = 155269227
REMARK  5 active torsions:
REMARK  status: ('A' for Active; 'I' for Inactive)
REMARK    1  A    between atoms: O_4  and  N_7
REMARK    2  A    between atoms: O_4  and  C_24
REMARK    3  A    between atoms: C_8  and  C_9
REMARK    4  A    between atoms: C_10  and  C_18
REMARK    5  A    between atoms: C_24  and  C_25
REMARK                            x       y       z     vdW  Elec       q    Type
REMARK                         _______ _______ _______ _____ _____    ______ ____
ROOT
ATOM      1  S   UNL     1     -24.346   1.489 -60.806  0.00  0.00    +0.000 S 
ATOM      2  N   UNL     1     -25.085   2.790 -58.714  0.00  0.00    +0.000 N 
ATOM      3  N   UNL     1     -23.053   3.487 -59.318  0.00  0.00    +0.000 NA
ATOM      4  C   UNL     1     -23.460   4.128 -58.157  0.00  0.00    +0.000 A 
ATOM      5  C   UNL     1     -24.739   3.723 -57.758  0.00  0.00    +0.000 A 
ATOM      6  C   UNL     1     -24.038   2.680 -59.576  0.00  0.00    +0.000 A 
ATOM      7  C   UNL     1     -26.165   1.983 -59.012  0.00  0.00    +0.000 A 
ATOM      8  C   UNL     1     -25.931   1.207 -60.081  0.00  0.00    +0.000 A 
ENDROOT
BRANCH   4   9
ATOM      9  C   UNL     1     -22.578   5.061 -57.468  0.00  0.00    +0.000 A 
ATOM     10  C   UNL     1     -20.530   6.402 -57.462  0.00  0.00    +0.000 A 
ATOM     11  C   UNL     1     -21.441   5.556 -58.123  0.00  0.00    +0.000 A 
ATOM     12  C   UNL     1     -20.769   6.765 -56.115  0.00  0.00    +0.000 A 
ATOM     13  C   UNL     1     -22.790   5.422 -56.127  0.00  0.00    +0.000 A 
ATOM     14  C   UNL     1     -21.907   6.274 -55.468  0.00  0.00    +0.000 A 
ATOM     15  C   UNL     1     -19.382   6.896 -58.105  0.00  0.00    +0.000 A 
ATOM     16  C   UNL     1     -19.858   7.593 -55.448  0.00  0.00    +0.000 A 
ATOM     17  C   UNL     1     -18.477   7.722 -57.426  0.00  0.00    +0.000 A 
ATOM     18  C   UNL     1     -18.716   8.068 -56.098  0.00  0.00    +0.000 A 
ENDBRANCH   4   9
BRANCH   5  20
ATOM     19  N   UNL     1     -26.325   5.224 -56.621  0.00  0.00    +0.000 NA
ATOM     20  C   UNL     1     -25.556   4.173 -56.663  0.00  0.00    +0.000 C 
BRANCH  19  21
ATOM     21  O   UNL     1     -26.433   5.826 -57.878  0.00  0.00    +0.000 OA
BRANCH  21  22
ATOM     22  C   UNL     1     -26.477   7.246 -57.760  0.00  0.00    +0.000 C 
BRANCH  22  25
ATOM     23 CL   UNL     1     -22.202  10.057 -56.741  0.00  0.00    +0.000 Cl
ATOM     24 CL   UNL     1     -21.225   9.444 -59.783  0.00  0.00    +0.000 Cl
ATOM     25  C   UNL     1     -25.133   7.765 -58.204  0.00  0.00    +0.000 A 
ATOM     26  C   UNL     1     -24.336   8.555 -57.365  0.00  0.00    +0.000 A 
ATOM     27  C   UNL     1     -24.676   7.474 -59.499  0.00  0.00    +0.000 A 
ATOM     28  C   UNL     1     -23.118   9.073 -57.826  0.00  0.00    +0.000 A 
ATOM     29  C   UNL     1     -23.465   7.987 -59.959  0.00  0.00    +0.000 A 
ATOM     30  C   UNL     1     -22.688   8.799 -59.130  0.00  0.00    +0.000 A 
ENDBRANCH  22  25
ENDBRANCH  21  22
ENDBRANCH  19  21
ENDBRANCH   5  20
TORSDOF 5
ENDMDL
MODEL 7
REMARK VINA RESULT:      -5.6     15.067     17.585
REMARK  Name = 155269227
REMARK  5 active torsions:
REMARK  status: ('A' for Active; 'I' for Inactive)
REMARK    1  A    between atoms: O_4  and  N_7
REMARK    2  A    between atoms: O_4  and  C_24
REMARK    3  A    between atoms: C_8  and  C_9
REMARK    4  A    between atoms: C_10  and  C_18
REMARK    5  A    between atoms: C_24  and  C_25
REMARK                            x       y       z     vdW  Elec       q    Type
REMARK                         _______ _______ _______ _____ _____    ______ ____
ROOT
ATOM      1  S   UNL     1     -19.605  18.042 -43.131  0.00  0.00    +0.000 S 
ATOM      2  N   UNL     1     -18.058  16.312 -44.239  0.00  0.00    +0.000 N 
ATOM      3  N   UNL     1     -16.811  17.779 -43.110  0.00  0.00    +0.000 NA
ATOM      4  C   UNL     1     -16.004  16.862 -43.768  0.00  0.00    +0.000 A 
ATOM      5  C   UNL     1     -16.757  15.917 -44.477  0.00  0.00    +0.000 A 
ATOM      6  C   UNL     1     -18.012  17.425 -43.458  0.00  0.00    +0.000 A 
ATOM      7  C   UNL     1     -19.331  15.889 -44.566  0.00  0.00    +0.000 A 
ATOM      8  C   UNL     1     -20.273  16.710 -44.078  0.00  0.00    +0.000 A 
ENDROOT
BRANCH   4   9
ATOM      9  C   UNL     1     -14.552  16.972 -43.720  0.00  0.00    +0.000 A 
ATOM     10  C   UNL     1     -12.561  18.277 -43.149  0.00  0.00    +0.000 A 
ATOM     11  C   UNL     1     -13.959  18.107 -43.147  0.00  0.00    +0.000 A 
ATOM     12  C   UNL     1     -11.740  17.284 -43.733  0.00  0.00    +0.000 A 
ATOM     13  C   UNL     1     -13.720  16.004 -44.307  0.00  0.00    +0.000 A 
ATOM     14  C   UNL     1     -12.335  16.152 -44.297  0.00  0.00    +0.000 A 
ATOM     15  C   UNL     1     -11.957  19.415 -42.587  0.00  0.00    +0.000 A 
ATOM     16  C   UNL     1     -10.350  17.457 -43.751  0.00  0.00    +0.000 A 
ATOM     17  C   UNL     1     -10.566  19.576 -42.613  0.00  0.00    +0.000 A 
ATOM     18  C   UNL     1      -9.765  18.598 -43.197  0.00  0.00    +0.000 A 
ENDBRANCH   4   9
BRANCH   5  20
ATOM     19  N   UNL     1     -16.189  14.680 -46.528  0.00  0.00    +0.000 NA
ATOM     20  C   UNL     1     -16.332  14.772 -45.236  0.00  0.00    +0.000 C 
BRANCH  19  21
ATOM     21  O   UNL     1     -16.326  15.926 -47.145  0.00  0.00    +0.000 OA
BRANCH  21  22
ATOM     22  C   UNL     1     -15.500  16.013 -48.304  0.00  0.00    +0.000 C 
BRANCH  22  25
ATOM     23 CL   UNL     1     -13.331  20.226 -46.124  0.00  0.00    +0.000 Cl
ATOM     24 CL   UNL     1     -10.432  19.023 -46.980  0.00  0.00    +0.000 Cl
ATOM     25  C   UNL     1     -14.259  16.768 -47.902  0.00  0.00    +0.000 A 
ATOM     26  C   UNL     1     -14.330  17.998 -47.235  0.00  0.00    +0.000 A 
ATOM     27  C   UNL     1     -12.998  16.242 -48.225  0.00  0.00    +0.000 A 
ATOM     28  C   UNL     1     -13.160  18.706 -46.927  0.00  0.00    +0.000 A 
ATOM     29  C   UNL     1     -11.833  16.944 -47.919  0.00  0.00    +0.000 A 
ATOM     30  C   UNL     1     -11.911  18.184 -47.281  0.00  0.00    +0.000 A 
ENDBRANCH  22  25
ENDBRANCH  21  22
ENDBRANCH  19  21
ENDBRANCH   5  20
TORSDOF 5
ENDMDL
MODEL 8
REMARK VINA RESULT:      -5.6      2.897      4.616
REMARK  Name = 155269227
REMARK  5 active torsions:
REMARK  status: ('A' for Active; 'I' for Inactive)
REMARK    1  A    between atoms: O_4  and  N_7
REMARK    2  A    between atoms: O_4  and  C_24
REMARK    3  A    between atoms: C_8  and  C_9
REMARK    4  A    between atoms: C_10  and  C_18
REMARK    5  A    between atoms: C_24  and  C_25
REMARK                            x       y       z     vdW  Elec       q    Type
REMARK                         _______ _______ _______ _____ _____    ______ ____
ROOT
ATOM      1  S   UNL     1     -26.929   2.102 -56.384  0.00  0.00    +0.000 S 
ATOM      2  N   UNL     1     -25.290   3.127 -58.080  0.00  0.00    +0.000 N 
ATOM      3  N   UNL     1     -24.712   3.786 -56.028  0.00  0.00    +0.000 NA
ATOM      4  C   UNL     1     -23.882   4.367 -56.975  0.00  0.00    +0.000 A 
ATOM      5  C   UNL     1     -24.210   3.963 -58.275  0.00  0.00    +0.000 A 
ATOM      6  C   UNL     1     -25.548   3.095 -56.744  0.00  0.00    +0.000 A 
ATOM      7  C   UNL     1     -26.134   2.349 -58.848  0.00  0.00    +0.000 A 
ATOM      8  C   UNL     1     -27.080   1.754 -58.108  0.00  0.00    +0.000 A 
ENDROOT
BRANCH   4   9
ATOM      9  C   UNL     1     -22.848   5.316 -56.583  0.00  0.00    +0.000 A 
ATOM     10  C   UNL     1     -20.717   6.419 -57.067  0.00  0.00    +0.000 A 
ATOM     11  C   UNL     1     -21.769   5.562 -57.445  0.00  0.00    +0.000 A 
ATOM     12  C   UNL     1     -20.752   7.047 -55.800  0.00  0.00    +0.000 A 
ATOM     13  C   UNL     1     -22.858   5.940 -55.325  0.00  0.00    +0.000 A 
ATOM     14  C   UNL     1     -21.834   6.804 -54.948  0.00  0.00    +0.000 A 
ATOM     15  C   UNL     1     -19.625   6.664 -57.917  0.00  0.00    +0.000 A 
ATOM     16  C   UNL     1     -19.700   7.888 -55.413  0.00  0.00    +0.000 A 
ATOM     17  C   UNL     1     -18.578   7.505 -57.517  0.00  0.00    +0.000 A 
ATOM     18  C   UNL     1     -18.617   8.113 -56.266  0.00  0.00    +0.000 A 
ENDBRANCH   4   9
BRANCH   5  20
ATOM     19  N   UNL     1     -23.783   5.309 -60.292  0.00  0.00    +0.000 NA
ATOM     20  C   UNL     1     -23.579   4.272 -59.530  0.00  0.00    +0.000 C 
BRANCH  19  21
ATOM     21  O   UNL     1     -24.599   6.252 -59.660  0.00  0.00    +0.000 OA
BRANCH  21  22
ATOM     22  C   UNL     1     -24.435   7.541 -60.246  0.00  0.00    +0.000 C 
BRANCH  22  25
ATOM     23 CL   UNL     1     -23.758   9.823 -55.605  0.00  0.00    +0.000 Cl
ATOM     24 CL   UNL     1     -20.916  10.953 -56.714  0.00  0.00    +0.000 Cl
ATOM     25  C   UNL     1     -23.562   8.339 -59.312  0.00  0.00    +0.000 A 
ATOM     26  C   UNL     1     -23.975   8.659 -58.012  0.00  0.00    +0.000 A 
ATOM     27  C   UNL     1     -22.313   8.798 -59.759  0.00  0.00    +0.000 A 
ATOM     28  C   UNL     1     -23.169   9.453 -57.186  0.00  0.00    +0.000 A 
ATOM     29  C   UNL     1     -21.508   9.587 -58.939  0.00  0.00    +0.000 A 
ATOM     30  C   UNL     1     -21.938   9.928 -57.656  0.00  0.00    +0.000 A 
ENDBRANCH  22  25
ENDBRANCH  21  22
ENDBRANCH  19  21
ENDBRANCH   5  20
TORSDOF 5
ENDMDL
MODEL 9
REMARK VINA RESULT:      -5.5      2.837      4.820
REMARK  Name = 155269227
REMARK  5 active torsions:
REMARK  status: ('A' for Active; 'I' for Inactive)
REMARK    1  A    between atoms: O_4  and  N_7
REMARK    2  A    between atoms: O_4  and  C_24
REMARK    3  A    between atoms: C_8  and  C_9
REMARK    4  A    between atoms: C_10  and  C_18
REMARK    5  A    between atoms: C_24  and  C_25
REMARK                            x       y       z     vdW  Elec       q    Type
REMARK                         _______ _______ _______ _____ _____    ______ ____
ROOT
ATOM      1  S   UNL     1     -26.415   1.003 -54.990  0.00  0.00    +0.000 S 
ATOM      2  N   UNL     1     -26.708   3.547 -54.757  0.00  0.00    +0.000 N 
ATOM      3  N   UNL     1     -24.570   3.105 -55.218  0.00  0.00    +0.000 NA
ATOM      4  C   UNL     1     -24.754   4.467 -55.030  0.00  0.00    +0.000 A 
ATOM      5  C   UNL     1     -26.090   4.780 -54.751  0.00  0.00    +0.000 A 
ATOM      6  C   UNL     1     -25.753   2.610 -55.006  0.00  0.00    +0.000 A 
ATOM      7  C   UNL     1     -27.982   3.040 -54.589  0.00  0.00    +0.000 A 
ATOM      8  C   UNL     1     -28.002   1.701 -54.658  0.00  0.00    +0.000 A 
ENDROOT
BRANCH   4   9
ATOM      9  C   UNL     1     -23.627   5.389 -55.080  0.00  0.00    +0.000 A 
ATOM     10  C   UNL     1     -21.367   5.904 -55.869  0.00  0.00    +0.000 A 
ATOM     11  C   UNL     1     -22.501   5.070 -55.855  0.00  0.00    +0.000 A 
ATOM     12  C   UNL     1     -21.364   7.088 -55.093  0.00  0.00    +0.000 A 
ATOM     13  C   UNL     1     -23.599   6.562 -54.307  0.00  0.00    +0.000 A 
ATOM     14  C   UNL     1     -22.490   7.405 -54.328  0.00  0.00    +0.000 A 
ATOM     15  C   UNL     1     -20.230   5.589 -56.632  0.00  0.00    +0.000 A 
ATOM     16  C   UNL     1     -20.232   7.913 -55.091  0.00  0.00    +0.000 A 
ATOM     17  C   UNL     1     -19.104   6.421 -56.620  0.00  0.00    +0.000 A 
ATOM     18  C   UNL     1     -19.106   7.580 -55.848  0.00  0.00    +0.000 A 
ENDBRANCH   4   9
BRANCH   5  20
ATOM     19  N   UNL     1     -26.870   7.017 -55.420  0.00  0.00    +0.000 NA
ATOM     20  C   UNL     1     -26.722   6.057 -54.552  0.00  0.00    +0.000 C 
BRANCH  19  21
ATOM     21  O   UNL     1     -26.489   6.609 -56.701  0.00  0.00    +0.000 OA
BRANCH  21  22
ATOM     22  C   UNL     1     -26.392   7.724 -57.583  0.00  0.00    +0.000 C 
BRANCH  22  25
ATOM     23 CL   UNL     1     -22.119  10.620 -56.828  0.00  0.00    +0.000 Cl
ATOM     24 CL   UNL     1     -20.567   8.646 -58.896  0.00  0.00    +0.000 Cl
ATOM     25  C   UNL     1     -24.924   7.956 -57.837  0.00  0.00    +0.000 A 
ATOM     26  C   UNL     1     -24.239   9.033 -57.260  0.00  0.00    +0.000 A 
ATOM     27  C   UNL     1     -24.228   7.089 -58.692  0.00  0.00    +0.000 A 
ATOM     28  C   UNL     1     -22.888   9.258 -57.561  0.00  0.00    +0.000 A 
ATOM     29  C   UNL     1     -22.884   7.310 -58.993  0.00  0.00    +0.000 A 
ATOM     30  C   UNL     1     -22.214   8.402 -58.439  0.00  0.00    +0.000 A 
ENDBRANCH  22  25
ENDBRANCH  21  22
ENDBRANCH  19  21
ENDBRANCH   5  20
TORSDOF 5
ENDMDL
MODEL 10
REMARK VINA RESULT:      -5.5      5.417      8.588
REMARK  Name = 155269227
REMARK  5 active torsions:
REMARK  status: ('A' for Active; 'I' for Inactive)
REMARK    1  A    between atoms: O_4  and  N_7
REMARK    2  A    between atoms: O_4  and  C_24
REMARK    3  A    between atoms: C_8  and  C_9
REMARK    4  A    between atoms: C_10  and  C_18
REMARK    5  A    between atoms: C_24  and  C_25
REMARK                            x       y       z     vdW  Elec       q    Type
REMARK                         _______ _______ _______ _____ _____    ______ ____
ROOT
ATOM      1  S   UNL     1     -26.447  11.067 -51.444  0.00  0.00    +0.000 S 
ATOM      2  N   UNL     1     -24.658   9.368 -50.720  0.00  0.00    +0.000 N 
ATOM      3  N   UNL     1     -24.682   9.488 -52.949  0.00  0.00    +0.000 NA
ATOM      4  C   UNL     1     -23.765   8.537 -52.524  0.00  0.00    +0.000 A 
ATOM      5  C   UNL     1     -23.715   8.445 -51.128  0.00  0.00    +0.000 A 
ATOM      6  C   UNL     1     -25.205   9.916 -51.839  0.00  0.00    +0.000 A 
ATOM      7  C   UNL     1     -25.162   9.858 -49.532  0.00  0.00    +0.000 A 
ATOM      8  C   UNL     1     -26.141  10.753 -49.734  0.00  0.00    +0.000 A 
ENDROOT
BRANCH   4   9
ATOM      9  C   UNL     1     -23.020   7.733 -53.485  0.00  0.00    +0.000 A 
ATOM     10  C   UNL     1     -21.050   7.454 -54.910  0.00  0.00    +0.000 A 
ATOM     11  C   UNL     1     -21.764   8.170 -53.930  0.00  0.00    +0.000 A 
ATOM     12  C   UNL     1     -21.607   6.270 -55.451  0.00  0.00    +0.000 A 
ATOM     13  C   UNL     1     -23.561   6.563 -54.043  0.00  0.00    +0.000 A 
ATOM     14  C   UNL     1     -22.856   5.836 -54.999  0.00  0.00    +0.000 A 
ATOM     15  C   UNL     1     -19.795   7.887 -55.372  0.00  0.00    +0.000 A 
ATOM     16  C   UNL     1     -20.907   5.564 -56.438  0.00  0.00    +0.000 A 
ATOM     17  C   UNL     1     -19.108   7.172 -56.361  0.00  0.00    +0.000 A 
ATOM     18  C   UNL     1     -19.666   6.013 -56.893  0.00  0.00    +0.000 A 
ENDBRANCH   4   9
BRANCH   5  20
ATOM     19  N   UNL     1     -23.224   6.638 -49.531  0.00  0.00    +0.000 NA
ATOM     20  C   UNL     1     -22.874   7.646 -50.279  0.00  0.00    +0.000 C 
BRANCH  19  21
ATOM     21  O   UNL     1     -24.549   6.261 -49.771  0.00  0.00    +0.000 OA
BRANCH  21  22
ATOM     22  C   UNL     1     -24.612   5.206 -50.727  0.00  0.00    +0.000 C 
BRANCH  22  25
ATOM     23 CL   UNL     1     -26.266   2.892 -46.354  0.00  0.00    +0.000 Cl
ATOM     24 CL   UNL     1     -25.482   0.042 -47.714  0.00  0.00    +0.000 Cl
ATOM     25  C   UNL     1     -24.900   3.939 -49.963  0.00  0.00    +0.000 A 
ATOM     26  C   UNL     1     -25.429   3.966 -48.666  0.00  0.00    +0.000 A 
ATOM     27  C   UNL     1     -24.608   2.699 -50.551  0.00  0.00    +0.000 A 
ATOM     28  C   UNL     1     -25.631   2.775 -47.957  0.00  0.00    +0.000 A 
ATOM     29  C   UNL     1     -24.809   1.512 -49.848  0.00  0.00    +0.000 A 
ATOM     30  C   UNL     1     -25.308   1.546 -48.545  0.00  0.00    +0.000 A 
ENDBRANCH  22  25
ENDBRANCH  21  22
ENDBRANCH  19  21
ENDBRANCH   5  20
TORSDOF 5
ENDMDL
