REMARK  Name = 155269220
REMARK  9 active torsions:
REMARK  status: ('A' for Active; 'I' for Inactive)
REMARK    1  A    between atoms: O_4  and  N_7
REMARK    2  A    between atoms: O_4  and  C_24
REMARK    3  A    between atoms: C_8  and  C_9
REMARK    4  A    between atoms: C_8  and  C_10
REMARK    5  A    between atoms: C_8  and  C_11
REMARK    6  A    between atoms: C_8  and  C_12
REMARK    7  A    between atoms: C_15  and  C_18
REMARK    8  A    between atoms: C_19  and  C_22
REMARK    9  A    between atoms: C_24  and  C_25
REMARK                            x       y       z     vdW  Elec       q    Type
REMARK                         _______ _______ _______ _____ _____    ______ ____
ROOT
ATOM      1  S   UNL     1      -8.697  -2.439  -4.341  0.00  0.00    +0.000 S 
ATOM      2  N   UNL     1      -6.615  -0.970  -4.004  0.00  0.00    +0.000 N 
ATOM      3  N   UNL     1      -8.282  -0.154  -2.762  0.00  0.00    +0.000 NA
ATOM      4  C   UNL     1      -7.142   0.623  -2.617  0.00  0.00    +0.000 A 
ATOM      5  C   UNL     1      -6.078   0.133  -3.386  0.00  0.00    +0.000 A 
ATOM      6  C   UNL     1      -7.917  -1.064  -3.617  0.00  0.00    +0.000 A 
ATOM      7  C   UNL     1      -6.183  -1.981  -4.839  0.00  0.00    +0.000 A 
ATOM      8  C   UNL     1      -7.172  -2.840  -5.141  0.00  0.00    +0.000 A 
ENDROOT
BRANCH   4  12
ATOM      9  C   UNL     1      -6.968   3.946   0.113  0.00  0.00    +0.000 A 
ATOM     10  C   UNL     1      -7.819   2.854   0.339  0.00  0.00    +0.000 A 
ATOM     11  C   UNL     1      -6.223   3.943  -1.080  0.00  0.00    +0.000 A 
ATOM     12  C   UNL     1      -7.107   1.778  -1.727  0.00  0.00    +0.000 A 
ATOM     13  C   UNL     1      -7.888   1.785  -0.569  0.00  0.00    +0.000 A 
ATOM     14  C   UNL     1      -6.307   2.888  -1.993  0.00  0.00    +0.000 A 
BRANCH   9  15
ATOM     15  C   UNL     1      -6.819   5.114   1.102  0.00  0.00    +0.000 C 
ATOM     16  C   UNL     1      -7.759   5.016   2.324  0.00  0.00    +0.000 C 
ATOM     17  C   UNL     1      -5.370   5.149   1.635  0.00  0.00    +0.000 C 
ATOM     18  C   UNL     1      -7.126   6.451   0.395  0.00  0.00    +0.000 C 
ENDBRANCH   9  15
ENDBRANCH   4  12
BRANCH   5  20
ATOM     19  N   UNL     1      -3.967   0.639  -4.531  0.00  0.00    +0.000 NA
ATOM     20  C   UNL     1      -4.713   0.576  -3.467  0.00  0.00    +0.000 C 
BRANCH  19  21
ATOM     21  O   UNL     1      -4.702   0.371  -5.692  0.00  0.00    +0.000 OA
BRANCH  21  22
ATOM     22  C   UNL     1      -3.820   0.169  -6.795  0.00  0.00    +0.000 C 
BRANCH  22  25
ATOM     23 CL   UNL     1      -5.305  -1.835 -11.375  0.00  0.00    +0.000 Cl
ATOM     24 CL   UNL     1      -7.032   0.879 -11.865  0.00  0.00    +0.000 Cl
ATOM     25  C   UNL     1      -4.636   0.295  -8.057  0.00  0.00    +0.000 A 
ATOM     26  C   UNL     1      -4.628  -0.709  -9.035  0.00  0.00    +0.000 A 
ATOM     27  C   UNL     1      -5.405   1.448  -8.272  0.00  0.00    +0.000 A 
ATOM     28  C   UNL     1      -5.368  -0.555 -10.215  0.00  0.00    +0.000 A 
ATOM     29  C   UNL     1      -6.141   1.604  -9.444  0.00  0.00    +0.000 A 
ATOM     30  C   UNL     1      -6.120   0.607 -10.424  0.00  0.00    +0.000 A 
ENDBRANCH  22  25
ENDBRANCH  21  22
ENDBRANCH  19  21
ENDBRANCH   5  20
TORSDOF 6
