REMARK  Name = 155269216
REMARK  6 active torsions:
REMARK  status: ('A' for Active; 'I' for Inactive)
REMARK    1  A    between atoms: O_4  and  N_7
REMARK    2  A    between atoms: O_4  and  C_17
REMARK    3  A    between atoms: C_8  and  C_13
REMARK    4  A    between atoms: C_9  and  C_10
REMARK    5  A    between atoms: C_10  and  C_14
REMARK    6  A    between atoms: C_16  and  C_17
REMARK                            x       y       z     vdW  Elec       q    Type
REMARK                         _______ _______ _______ _____ _____    ______ ____
ROOT
ATOM      1  N   UNL     1      -3.921   1.021  -2.528  0.00  0.00    +0.000 NA
ATOM      2  C   UNL     1      -4.812   0.774  -3.443  0.00  0.00    +0.000 C 
ENDROOT
BRANCH   2   6
ATOM      3  S   UNL     1      -8.860  -1.895  -4.854  0.00  0.00    +0.000 S 
ATOM      4  N   UNL     1      -6.752  -0.571  -4.221  0.00  0.00    +0.000 N 
ATOM      5  N   UNL     1      -8.250  -0.367  -2.582  0.00  0.00    +0.000 NA
ATOM      6  C   UNL     1      -6.131   0.221  -3.286  0.00  0.00    +0.000 A 
ATOM      7  C   UNL     1      -7.109   0.371  -2.292  0.00  0.00    +0.000 A 
ATOM      8  C   UNL     1      -7.978  -0.898  -3.736  0.00  0.00    +0.000 A 
ATOM      9  C   UNL     1      -6.459  -1.084  -5.468  0.00  0.00    +0.000 A 
ATOM     10  C   UNL     1      -7.478  -1.813  -5.958  0.00  0.00    +0.000 A 
BRANCH   7  11
ATOM     11  C   UNL     1      -7.089   1.239  -1.073  0.00  0.00    +0.000 C 
ATOM     12  C   UNL     1      -8.458   1.785  -0.696  0.00  0.00    +0.000 C 
ENDBRANCH   7  11
ENDBRANCH   2   6
BRANCH   1  13
ATOM     13  O   UNL     1      -4.326   0.576  -1.261  0.00  0.00    +0.000 OA
BRANCH  13  14
ATOM     14  C   UNL     1      -3.322   0.874  -0.289  0.00  0.00    +0.000 C 
BRANCH  14  17
ATOM     15 CL   UNL     1       0.944  -1.472  -2.092  0.00  0.00    +0.000 Cl
ATOM     16 CL   UNL     1       0.275  -3.971  -0.117  0.00  0.00    +0.000 Cl
ATOM     17  C   UNL     1      -2.369  -0.288  -0.190  0.00  0.00    +0.000 A 
ATOM     18  C   UNL     1      -1.246  -0.349  -1.028  0.00  0.00    +0.000 A 
ATOM     19  C   UNL     1      -2.635  -1.359   0.673  0.00  0.00    +0.000 A 
ATOM     20  C   UNL     1      -0.407  -1.468  -1.015  0.00  0.00    +0.000 A 
ATOM     21  C   UNL     1      -1.798  -2.476   0.690  0.00  0.00    +0.000 A 
ATOM     22  C   UNL     1      -0.690  -2.538  -0.159  0.00  0.00    +0.000 A 
ENDBRANCH  14  17
ENDBRANCH  13  14
ENDBRANCH   1  13
TORSDOF 5
