MODEL 1
REMARK VINA RESULT:      -6.5      0.000      0.000
REMARK  Name = 155269229
REMARK  5 active torsions:
REMARK  status: ('A' for Active; 'I' for Inactive)
REMARK    1  A    between atoms: O_4  and  N_7
REMARK    2  A    between atoms: O_4  and  C_24
REMARK    3  A    between atoms: C_8  and  C_9
REMARK    4  A    between atoms: C_10  and  C_20
REMARK    5  A    between atoms: C_24  and  C_25
REMARK                            x       y       z     vdW  Elec       q    Type
REMARK                         _______ _______ _______ _____ _____    ______ ____
ROOT
ATOM      1  S   UNL     1      -5.721 -15.417  14.792  0.00  0.00    +0.000 S 
ATOM      2  N   UNL     1      -4.535 -13.245  15.497  0.00  0.00    +0.000 N 
ATOM      3  N   UNL     1      -4.740 -13.273  13.279  0.00  0.00    +0.000 NA
ATOM      4  C   UNL     1      -4.105 -12.106  13.684  0.00  0.00    +0.000 A 
ATOM      5  C   UNL     1      -3.943 -12.078  15.079  0.00  0.00    +0.000 A 
ATOM      6  C   UNL     1      -4.965 -13.908  14.391  0.00  0.00    +0.000 A 
ATOM      7  C   UNL     1      -4.807 -13.890  16.690  0.00  0.00    +0.000 A 
ATOM      8  C   UNL     1      -5.413 -15.073  16.499  0.00  0.00    +0.000 A 
ENDROOT
BRANCH   4   9
ATOM      9  C   UNL     1      -3.624 -11.121  12.706  0.00  0.00    +0.000 A 
ATOM     10  C   UNL     1      -4.520 -10.311  11.931  0.00  0.00    +0.000 A 
ATOM     11  C   UNL     1      -3.973  -9.445  10.945  0.00  0.00    +0.000 A 
ATOM     12  C   UNL     1      -2.239 -11.035  12.467  0.00  0.00    +0.000 A 
ATOM     13  C   UNL     1      -5.935 -10.302  12.058  0.00  0.00    +0.000 A 
ATOM     14  C   UNL     1      -2.586  -9.373  10.762  0.00  0.00    +0.000 A 
ATOM     15  C   UNL     1      -1.724 -10.159  11.518  0.00  0.00    +0.000 A 
ATOM     16  C   UNL     1      -4.812  -8.661  10.133  0.00  0.00    +0.000 A 
ATOM     17  C   UNL     1      -6.759  -9.522  11.237  0.00  0.00    +0.000 A 
ATOM     18  C   UNL     1      -6.196  -8.705  10.270  0.00  0.00    +0.000 A 
ENDBRANCH   4   9
BRANCH   5  20
ATOM     19  N   UNL     1      -3.971 -10.167  16.623  0.00  0.00    +0.000 NA
ATOM     20  C   UNL     1      -3.349 -11.080  15.932  0.00  0.00    +0.000 C 
BRANCH  19  21
ATOM     21  O   UNL     1      -5.359 -10.360  16.603  0.00  0.00    +0.000 OA
BRANCH  21  22
ATOM     22  C   UNL     1      -5.853 -10.586  17.923  0.00  0.00    +0.000 C 
BRANCH  22  25
ATOM     23 CL   UNL     1      -9.746  -7.586  16.163  0.00  0.00    +0.000 Cl
ATOM     24 CL   UNL     1     -11.736  -9.207  18.161  0.00  0.00    +0.000 Cl
ATOM     25  C   UNL     1      -7.320 -10.233  17.927  0.00  0.00    +0.000 A 
ATOM     26  C   UNL     1      -7.830  -9.201  17.129  0.00  0.00    +0.000 A 
ATOM     27  C   UNL     1      -8.196 -10.935  18.769  0.00  0.00    +0.000 A 
ATOM     28  C   UNL     1      -9.191  -8.873  17.176  0.00  0.00    +0.000 A 
ATOM     29  C   UNL     1      -9.552 -10.612  18.816  0.00  0.00    +0.000 A 
ATOM     30  C   UNL     1     -10.054  -9.575  18.028  0.00  0.00    +0.000 A 
ENDBRANCH  22  25
ENDBRANCH  21  22
ENDBRANCH  19  21
ENDBRANCH   5  20
TORSDOF 5
ENDMDL
MODEL 2
REMARK VINA RESULT:      -6.3     24.845     27.388
REMARK  Name = 155269229
REMARK  5 active torsions:
REMARK  status: ('A' for Active; 'I' for Inactive)
REMARK    1  A    between atoms: O_4  and  N_7
REMARK    2  A    between atoms: O_4  and  C_24
REMARK    3  A    between atoms: C_8  and  C_9
REMARK    4  A    between atoms: C_10  and  C_20
REMARK    5  A    between atoms: C_24  and  C_25
REMARK                            x       y       z     vdW  Elec       q    Type
REMARK                         _______ _______ _______ _____ _____    ______ ____
ROOT
ATOM      1  S   UNL     1      15.280  10.488   6.317  0.00  0.00    +0.000 S 
ATOM      2  N   UNL     1      12.905  10.218   7.269  0.00  0.00    +0.000 N 
ATOM      3  N   UNL     1      13.524   8.305   6.311  0.00  0.00    +0.000 NA
ATOM      4  C   UNL     1      12.244   8.182   6.837  0.00  0.00    +0.000 A 
ATOM      5  C   UNL     1      11.823   9.386   7.425  0.00  0.00    +0.000 A 
ATOM      6  C   UNL     1      13.860   9.529   6.592  0.00  0.00    +0.000 A 
ATOM      7  C   UNL     1      13.268  11.508   7.612  0.00  0.00    +0.000 A 
ATOM      8  C   UNL     1      14.492  11.826   7.162  0.00  0.00    +0.000 A 
ENDROOT
BRANCH   4   9
ATOM      9  C   UNL     1      11.471   6.943   6.679  0.00  0.00    +0.000 A 
ATOM     10  C   UNL     1      11.294   6.308   5.404  0.00  0.00    +0.000 A 
ATOM     11  C   UNL     1      10.459   5.160   5.327  0.00  0.00    +0.000 A 
ATOM     12  C   UNL     1      10.816   6.413   7.808  0.00  0.00    +0.000 A 
ATOM     13  C   UNL     1      11.884   6.738   4.185  0.00  0.00    +0.000 A 
ATOM     14  C   UNL     1       9.849   4.653   6.482  0.00  0.00    +0.000 A 
ATOM     15  C   UNL     1      10.028   5.271   7.714  0.00  0.00    +0.000 A 
ATOM     16  C   UNL     1      10.221   4.527   4.094  0.00  0.00    +0.000 A 
ATOM     17  C   UNL     1      11.632   6.102   2.964  0.00  0.00    +0.000 A 
ATOM     18  C   UNL     1      10.796   4.999   2.917  0.00  0.00    +0.000 A 
ENDBRANCH   4   9
BRANCH   5  20
ATOM     19  N   UNL     1       9.425   9.911   7.533  0.00  0.00    +0.000 NA
ATOM     20  C   UNL     1      10.588   9.722   8.088  0.00  0.00    +0.000 C 
BRANCH  19  21
ATOM     21  O   UNL     1       9.439   9.568   6.175  0.00  0.00    +0.000 OA
BRANCH  21  22
ATOM     22  C   UNL     1       8.362   8.681   5.870  0.00  0.00    +0.000 C 
BRANCH  22  25
ATOM     23 CL   UNL     1       5.043  10.819   2.454  0.00  0.00    +0.000 Cl
ATOM     24 CL   UNL     1       6.807   9.464   0.080  0.00  0.00    +0.000 Cl
ATOM     25  C   UNL     1       7.959   8.928   4.438  0.00  0.00    +0.000 A 
ATOM     26  C   UNL     1       6.825   9.686   4.113  0.00  0.00    +0.000 A 
ATOM     27  C   UNL     1       8.719   8.369   3.400  0.00  0.00    +0.000 A 
ATOM     28  C   UNL     1       6.455   9.874   2.775  0.00  0.00    +0.000 A 
ATOM     29  C   UNL     1       8.355   8.556   2.067  0.00  0.00    +0.000 A 
ATOM     30  C   UNL     1       7.218   9.301   1.748  0.00  0.00    +0.000 A 
ENDBRANCH  22  25
ENDBRANCH  21  22
ENDBRANCH  19  21
ENDBRANCH   5  20
TORSDOF 5
ENDMDL
MODEL 3
REMARK VINA RESULT:      -6.3     17.069     21.179
REMARK  Name = 155269229
REMARK  5 active torsions:
REMARK  status: ('A' for Active; 'I' for Inactive)
REMARK    1  A    between atoms: O_4  and  N_7
REMARK    2  A    between atoms: O_4  and  C_24
REMARK    3  A    between atoms: C_8  and  C_9
REMARK    4  A    between atoms: C_10  and  C_20
REMARK    5  A    between atoms: C_24  and  C_25
REMARK                            x       y       z     vdW  Elec       q    Type
REMARK                         _______ _______ _______ _____ _____    ______ ____
ROOT
ATOM      1  S   UNL     1      -6.926 -16.098  38.722  0.00  0.00    +0.000 S 
ATOM      2  N   UNL     1      -7.039 -14.418  36.776  0.00  0.00    +0.000 N 
ATOM      3  N   UNL     1      -8.865 -14.196  38.034  0.00  0.00    +0.000 NA
ATOM      4  C   UNL     1      -8.902 -13.295  36.978  0.00  0.00    +0.000 A 
ATOM      5  C   UNL     1      -7.771 -13.434  36.156  0.00  0.00    +0.000 A 
ATOM      6  C   UNL     1      -7.746 -14.835  37.860  0.00  0.00    +0.000 A 
ATOM      7  C   UNL     1      -5.826 -15.060  36.605  0.00  0.00    +0.000 A 
ATOM      8  C   UNL     1      -5.616 -16.002  37.538  0.00  0.00    +0.000 A 
ENDROOT
BRANCH   4   9
ATOM      9  C   UNL     1     -10.053 -12.406  36.774  0.00  0.00    +0.000 A 
ATOM     10  C   UNL     1     -11.086 -12.696  35.821  0.00  0.00    +0.000 A 
ATOM     11  C   UNL     1     -12.119 -11.739  35.625  0.00  0.00    +0.000 A 
ATOM     12  C   UNL     1     -10.094 -11.189  37.484  0.00  0.00    +0.000 A 
ATOM     13  C   UNL     1     -11.164 -13.874  35.031  0.00  0.00    +0.000 A 
ATOM     14  C   UNL     1     -12.133 -10.554  36.374  0.00  0.00    +0.000 A 
ATOM     15  C   UNL     1     -11.131 -10.282  37.298  0.00  0.00    +0.000 A 
ATOM     16  C   UNL     1     -13.130 -11.958  34.673  0.00  0.00    +0.000 A 
ATOM     17  C   UNL     1     -12.173 -14.076  34.081  0.00  0.00    +0.000 A 
ATOM     18  C   UNL     1     -13.153 -13.114  33.898  0.00  0.00    +0.000 A 
ENDBRANCH   4   9
BRANCH   5  20
ATOM     19  N   UNL     1      -7.477 -13.140  33.734  0.00  0.00    +0.000 NA
ATOM     20  C   UNL     1      -7.386 -12.720  34.964  0.00  0.00    +0.000 C 
BRANCH  19  21
ATOM     21  O   UNL     1      -8.186 -14.346  33.651  0.00  0.00    +0.000 OA
BRANCH  21  22
ATOM     22  C   UNL     1      -7.501 -15.272  32.806  0.00  0.00    +0.000 C 
BRANCH  22  25
ATOM     23 CL   UNL     1     -12.016 -14.527  30.292  0.00  0.00    +0.000 Cl
ATOM     24 CL   UNL     1     -10.791 -16.267  27.831  0.00  0.00    +0.000 Cl
ATOM     25  C   UNL     1      -8.343 -15.469  31.570  0.00  0.00    +0.000 A 
ATOM     26  C   UNL     1      -9.645 -14.960  31.478  0.00  0.00    +0.000 A 
ATOM     27  C   UNL     1      -7.824 -16.200  30.491  0.00  0.00    +0.000 A 
ATOM     28  C   UNL     1     -10.417 -15.184  30.330  0.00  0.00    +0.000 A 
ATOM     29  C   UNL     1      -8.588 -16.423  29.346  0.00  0.00    +0.000 A 
ATOM     30  C   UNL     1      -9.890 -15.925  29.263  0.00  0.00    +0.000 A 
ENDBRANCH  22  25
ENDBRANCH  21  22
ENDBRANCH  19  21
ENDBRANCH   5  20
TORSDOF 5
ENDMDL
MODEL 4
REMARK VINA RESULT:      -6.2     25.486     27.603
REMARK  Name = 155269229
REMARK  5 active torsions:
REMARK  status: ('A' for Active; 'I' for Inactive)
REMARK    1  A    between atoms: O_4  and  N_7
REMARK    2  A    between atoms: O_4  and  C_24
REMARK    3  A    between atoms: C_8  and  C_9
REMARK    4  A    between atoms: C_10  and  C_20
REMARK    5  A    between atoms: C_24  and  C_25
REMARK                            x       y       z     vdW  Elec       q    Type
REMARK                         _______ _______ _______ _____ _____    ______ ____
ROOT
ATOM      1  S   UNL     1      13.244   9.059   6.534  0.00  0.00    +0.000 S 
ATOM      2  N   UNL     1      11.295   7.457   6.026  0.00  0.00    +0.000 N 
ATOM      3  N   UNL     1      10.860   9.441   5.112  0.00  0.00    +0.000 NA
ATOM      4  C   UNL     1       9.823   8.557   4.847  0.00  0.00    +0.000 A 
ATOM      5  C   UNL     1      10.064   7.305   5.436  0.00  0.00    +0.000 A 
ATOM      6  C   UNL     1      11.697   8.739   5.815  0.00  0.00    +0.000 A 
ATOM      7  C   UNL     1      12.198   6.686   6.737  0.00  0.00    +0.000 A 
ATOM      8  C   UNL     1      13.281   7.387   7.108  0.00  0.00    +0.000 A 
ENDROOT
BRANCH   4   9
ATOM      9  C   UNL     1       8.626   8.985   4.110  0.00  0.00    +0.000 A 
ATOM     10  C   UNL     1       8.538   8.906   2.680  0.00  0.00    +0.000 A 
ATOM     11  C   UNL     1       7.378   9.421   2.040  0.00  0.00    +0.000 A 
ATOM     12  C   UNL     1       7.566   9.568   4.832  0.00  0.00    +0.000 A 
ATOM     13  C   UNL     1       9.533   8.354   1.827  0.00  0.00    +0.000 A 
ATOM     14  C   UNL     1       6.337   9.967   2.802  0.00  0.00    +0.000 A 
ATOM     15  C   UNL     1       6.428  10.038   4.187  0.00  0.00    +0.000 A 
ATOM     16  C   UNL     1       7.264   9.404   0.639  0.00  0.00    +0.000 A 
ATOM     17  C   UNL     1       9.408   8.351   0.433  0.00  0.00    +0.000 A 
ATOM     18  C   UNL     1       8.275   8.881  -0.162  0.00  0.00    +0.000 A 
ENDBRANCH   4   9
BRANCH   5  20
ATOM     19  N   UNL     1       9.432   5.066   4.646  0.00  0.00    +0.000 NA
ATOM     20  C   UNL     1       9.276   6.098   5.425  0.00  0.00    +0.000 C 
BRANCH  19  21
ATOM     21  O   UNL     1      10.610   5.160   3.892  0.00  0.00    +0.000 OA
BRANCH  21  22
ATOM     22  C   UNL     1      10.911   3.909   3.273  0.00  0.00    +0.000 C 
BRANCH  22  25
ATOM     23 CL   UNL     1      14.408   4.132  -0.597  0.00  0.00    +0.000 Cl
ATOM     24 CL   UNL     1      12.013   5.175  -2.536  0.00  0.00    +0.000 Cl
ATOM     25  C   UNL     1      11.222   4.182   1.823  0.00  0.00    +0.000 A 
ATOM     26  C   UNL     1      12.517   4.039   1.308  0.00  0.00    +0.000 A 
ATOM     27  C   UNL     1      10.197   4.614   0.967  0.00  0.00    +0.000 A 
ATOM     28  C   UNL     1      12.784   4.330  -0.036  0.00  0.00    +0.000 A 
ATOM     29  C   UNL     1      10.459   4.901  -0.373  0.00  0.00    +0.000 A 
ATOM     30  C   UNL     1      11.754   4.770  -0.878  0.00  0.00    +0.000 A 
ENDBRANCH  22  25
ENDBRANCH  21  22
ENDBRANCH  19  21
ENDBRANCH   5  20
TORSDOF 5
ENDMDL
MODEL 5
REMARK VINA RESULT:      -6.2     22.382     25.196
REMARK  Name = 155269229
REMARK  5 active torsions:
REMARK  status: ('A' for Active; 'I' for Inactive)
REMARK    1  A    between atoms: O_4  and  N_7
REMARK    2  A    between atoms: O_4  and  C_24
REMARK    3  A    between atoms: C_8  and  C_9
REMARK    4  A    between atoms: C_10  and  C_20
REMARK    5  A    between atoms: C_24  and  C_25
REMARK                            x       y       z     vdW  Elec       q    Type
REMARK                         _______ _______ _______ _____ _____    ______ ____
ROOT
ATOM      1  S   UNL     1     -14.848   8.583  32.803  0.00  0.00    +0.000 S 
ATOM      2  N   UNL     1     -16.591   6.711  33.086  0.00  0.00    +0.000 N 
ATOM      3  N   UNL     1     -14.668   5.815  32.405  0.00  0.00    +0.000 NA
ATOM      4  C   UNL     1     -15.625   4.822  32.569  0.00  0.00    +0.000 A 
ATOM      5  C   UNL     1     -16.855   5.367  32.975  0.00  0.00    +0.000 A 
ATOM      6  C   UNL     1     -15.297   6.909  32.719  0.00  0.00    +0.000 A 
ATOM      7  C   UNL     1     -17.258   7.862  33.464  0.00  0.00    +0.000 A 
ATOM      8  C   UNL     1     -16.487   8.955  33.351  0.00  0.00    +0.000 A 
ENDROOT
BRANCH   4   9
ATOM      9  C   UNL     1     -15.328   3.418  32.255  0.00  0.00    +0.000 A 
ATOM     10  C   UNL     1     -15.435   2.891  30.925  0.00  0.00    +0.000 A 
ATOM     11  C   UNL     1     -15.213   1.502  30.724  0.00  0.00    +0.000 A 
ATOM     12  C   UNL     1     -15.009   2.547  33.316  0.00  0.00    +0.000 A 
ATOM     13  C   UNL     1     -15.758   3.649  29.767  0.00  0.00    +0.000 A 
ATOM     14  C   UNL     1     -14.871   0.679  31.805  0.00  0.00    +0.000 A 
ATOM     15  C   UNL     1     -14.767   1.196  33.091  0.00  0.00    +0.000 A 
ATOM     16  C   UNL     1     -15.346   0.931  29.446  0.00  0.00    +0.000 A 
ATOM     17  C   UNL     1     -15.895   3.066  28.501  0.00  0.00    +0.000 A 
ATOM     18  C   UNL     1     -15.694   1.705  28.342  0.00  0.00    +0.000 A 
ENDBRANCH   4   9
BRANCH   5  20
ATOM     19  N   UNL     1     -19.072   4.463  32.424  0.00  0.00    +0.000 NA
ATOM     20  C   UNL     1     -18.113   4.727  33.265  0.00  0.00    +0.000 C 
BRANCH  19  21
ATOM     21  O   UNL     1     -18.682   4.711  31.101  0.00  0.00    +0.000 OA
BRANCH  21  22
ATOM     22  C   UNL     1     -19.826   4.886  30.265  0.00  0.00    +0.000 C 
BRANCH  22  25
ATOM     23 CL   UNL     1     -19.294   0.342  27.749  0.00  0.00    +0.000 Cl
ATOM     24 CL   UNL     1     -18.643   2.050  25.057  0.00  0.00    +0.000 Cl
ATOM     25  C   UNL     1     -19.569   4.140  28.979  0.00  0.00    +0.000 A 
ATOM     26  C   UNL     1     -19.561   2.739  28.930  0.00  0.00    +0.000 A 
ATOM     27  C   UNL     1     -19.306   4.860  27.804  0.00  0.00    +0.000 A 
ATOM     28  C   UNL     1     -19.288   2.072  27.729  0.00  0.00    +0.000 A 
ATOM     29  C   UNL     1     -19.036   4.198  26.606  0.00  0.00    +0.000 A 
ATOM     30  C   UNL     1     -19.017   2.803  26.565  0.00  0.00    +0.000 A 
ENDBRANCH  22  25
ENDBRANCH  21  22
ENDBRANCH  19  21
ENDBRANCH   5  20
TORSDOF 5
ENDMDL
MODEL 6
REMARK VINA RESULT:      -6.1      3.149      4.982
REMARK  Name = 155269229
REMARK  5 active torsions:
REMARK  status: ('A' for Active; 'I' for Inactive)
REMARK    1  A    between atoms: O_4  and  N_7
REMARK    2  A    between atoms: O_4  and  C_24
REMARK    3  A    between atoms: C_8  and  C_9
REMARK    4  A    between atoms: C_10  and  C_20
REMARK    5  A    between atoms: C_24  and  C_25
REMARK                            x       y       z     vdW  Elec       q    Type
REMARK                         _______ _______ _______ _____ _____    ______ ____
ROOT
ATOM      1  S   UNL     1      -7.948 -14.277   9.317  0.00  0.00    +0.000 S 
ATOM      2  N   UNL     1      -7.626 -11.845  10.093  0.00  0.00    +0.000 N 
ATOM      3  N   UNL     1      -5.665 -12.900  10.179  0.00  0.00    +0.000 NA
ATOM      4  C   UNL     1      -5.515 -11.582  10.590  0.00  0.00    +0.000 A 
ATOM      5  C   UNL     1      -6.745 -10.903  10.567  0.00  0.00    +0.000 A 
ATOM      6  C   UNL     1      -6.932 -12.999   9.904  0.00  0.00    +0.000 A 
ATOM      7  C   UNL     1      -8.966 -11.925   9.761  0.00  0.00    +0.000 A 
ATOM      8  C   UNL     1      -9.314 -13.156   9.353  0.00  0.00    +0.000 A 
ENDROOT
BRANCH   4   9
ATOM      9  C   UNL     1      -4.218 -11.070  11.052  0.00  0.00    +0.000 A 
ATOM     10  C   UNL     1      -3.630 -11.484  12.294  0.00  0.00    +0.000 A 
ATOM     11  C   UNL     1      -2.414 -10.875  12.707  0.00  0.00    +0.000 A 
ATOM     12  C   UNL     1      -3.576 -10.079  10.285  0.00  0.00    +0.000 A 
ATOM     13  C   UNL     1      -4.171 -12.463  13.172  0.00  0.00    +0.000 A 
ATOM     14  C   UNL     1      -1.798  -9.912  11.897  0.00  0.00    +0.000 A 
ATOM     15  C   UNL     1      -2.371  -9.518  10.694  0.00  0.00    +0.000 A 
ATOM     16  C   UNL     1      -1.821 -11.216  13.935  0.00  0.00    +0.000 A 
ATOM     17  C   UNL     1      -3.573 -12.787  14.395  0.00  0.00    +0.000 A 
ATOM     18  C   UNL     1      -2.400 -12.159  14.780  0.00  0.00    +0.000 A 
ENDBRANCH   4   9
BRANCH   5  20
ATOM     19  N   UNL     1      -7.099  -9.009  12.092  0.00  0.00    +0.000 NA
ATOM     20  C   UNL     1      -7.068  -9.539  10.902  0.00  0.00    +0.000 C 
BRANCH  19  21
ATOM     21  O   UNL     1      -6.591  -9.885  13.061  0.00  0.00    +0.000 OA
BRANCH  21  22
ATOM     22  C   UNL     1      -7.501 -10.006  14.154  0.00  0.00    +0.000 C 
BRANCH  22  25
ATOM     23 CL   UNL     1      -7.103 -13.116  18.329  0.00  0.00    +0.000 Cl
ATOM     24 CL   UNL     1      -4.279 -11.647  19.001  0.00  0.00    +0.000 Cl
ATOM     25  C   UNL     1      -6.713 -10.469  15.354  0.00  0.00    +0.000 A 
ATOM     26  C   UNL     1      -7.188 -11.478  16.203  0.00  0.00    +0.000 A 
ATOM     27  C   UNL     1      -5.483  -9.860  15.649  0.00  0.00    +0.000 A 
ATOM     28  C   UNL     1      -6.450 -11.865  17.329  0.00  0.00    +0.000 A 
ATOM     29  C   UNL     1      -4.745 -10.246  16.767  0.00  0.00    +0.000 A 
ATOM     30  C   UNL     1      -5.228 -11.243  17.617  0.00  0.00    +0.000 A 
ENDBRANCH  22  25
ENDBRANCH  21  22
ENDBRANCH  19  21
ENDBRANCH   5  20
TORSDOF 5
ENDMDL
MODEL 7
REMARK VINA RESULT:      -6.1     23.199     26.692
REMARK  Name = 155269229
REMARK  5 active torsions:
REMARK  status: ('A' for Active; 'I' for Inactive)
REMARK    1  A    between atoms: O_4  and  N_7
REMARK    2  A    between atoms: O_4  and  C_24
REMARK    3  A    between atoms: C_8  and  C_9
REMARK    4  A    between atoms: C_10  and  C_20
REMARK    5  A    between atoms: C_24  and  C_25
REMARK                            x       y       z     vdW  Elec       q    Type
REMARK                         _______ _______ _______ _____ _____    ______ ____
ROOT
ATOM      1  S   UNL     1     -18.919   5.644  35.452  0.00  0.00    +0.000 S 
ATOM      2  N   UNL     1     -17.547   6.579  33.486  0.00  0.00    +0.000 N 
ATOM      3  N   UNL     1     -17.044   4.426  33.763  0.00  0.00    +0.000 NA
ATOM      4  C   UNL     1     -16.317   4.952  32.704  0.00  0.00    +0.000 A 
ATOM      5  C   UNL     1     -16.601   6.316  32.525  0.00  0.00    +0.000 A 
ATOM      6  C   UNL     1     -17.747   5.433  34.190  0.00  0.00    +0.000 A 
ATOM      7  C   UNL     1     -18.323   7.646  33.901  0.00  0.00    +0.000 A 
ATOM      8  C   UNL     1     -19.094   7.331  34.954  0.00  0.00    +0.000 A 
ENDROOT
BRANCH   4   9
ATOM      9  C   UNL     1     -15.338   4.137  31.971  0.00  0.00    +0.000 A 
ATOM     10  C   UNL     1     -15.707   3.325  30.847  0.00  0.00    +0.000 A 
ATOM     11  C   UNL     1     -14.714   2.501  30.250  0.00  0.00    +0.000 A 
ATOM     12  C   UNL     1     -14.013   4.094  32.446  0.00  0.00    +0.000 A 
ATOM     13  C   UNL     1     -17.004   3.262  30.271  0.00  0.00    +0.000 A 
ATOM     14  C   UNL     1     -13.402   2.511  30.739  0.00  0.00    +0.000 A 
ATOM     15  C   UNL     1     -13.052   3.302  31.827  0.00  0.00    +0.000 A 
ATOM     16  C   UNL     1     -15.036   1.656  29.173  0.00  0.00    +0.000 A 
ATOM     17  C   UNL     1     -17.312   2.411  29.203  0.00  0.00    +0.000 A 
ATOM     18  C   UNL     1     -16.328   1.603  28.657  0.00  0.00    +0.000 A 
ENDBRANCH   4   9
BRANCH   5  20
ATOM     19  N   UNL     1     -15.074   8.058  31.705  0.00  0.00    +0.000 NA
ATOM     20  C   UNL     1     -16.093   7.260  31.561  0.00  0.00    +0.000 C 
BRANCH  19  21
ATOM     21  O   UNL     1     -14.363   7.781  32.880  0.00  0.00    +0.000 OA
BRANCH  21  22
ATOM     22  C   UNL     1     -13.013   7.426  32.578  0.00  0.00    +0.000 C 
BRANCH  22  25
ATOM     23 CL   UNL     1     -11.151  11.152  29.431  0.00  0.00    +0.000 Cl
ATOM     24 CL   UNL     1      -9.740  12.482  32.044  0.00  0.00    +0.000 Cl
ATOM     25  C   UNL     1     -12.233   8.706  32.407  0.00  0.00    +0.000 A 
ATOM     26  C   UNL     1     -12.067   9.304  31.150  0.00  0.00    +0.000 A 
ATOM     27  C   UNL     1     -11.634   9.304  33.526  0.00  0.00    +0.000 A 
ATOM     28  C   UNL     1     -11.311  10.475  31.015  0.00  0.00    +0.000 A 
ATOM     29  C   UNL     1     -10.882  10.472  33.394  0.00  0.00    +0.000 A 
ATOM     30  C   UNL     1     -10.710  11.057  32.139  0.00  0.00    +0.000 A 
ENDBRANCH  22  25
ENDBRANCH  21  22
ENDBRANCH  19  21
ENDBRANCH   5  20
TORSDOF 5
ENDMDL
MODEL 8
REMARK VINA RESULT:      -6.1     23.286     26.563
REMARK  Name = 155269229
REMARK  5 active torsions:
REMARK  status: ('A' for Active; 'I' for Inactive)
REMARK    1  A    between atoms: O_4  and  N_7
REMARK    2  A    between atoms: O_4  and  C_24
REMARK    3  A    between atoms: C_8  and  C_9
REMARK    4  A    between atoms: C_10  and  C_20
REMARK    5  A    between atoms: C_24  and  C_25
REMARK                            x       y       z     vdW  Elec       q    Type
REMARK                         _______ _______ _______ _____ _____    ______ ____
ROOT
ATOM      1  S   UNL     1      -0.446  14.692   1.443  0.00  0.00    +0.000 S 
ATOM      2  N   UNL     1      -0.474  12.174   0.916  0.00  0.00    +0.000 N 
ATOM      3  N   UNL     1      -1.407  12.508   2.912  0.00  0.00    +0.000 NA
ATOM      4  C   UNL     1      -1.415  11.154   2.603  0.00  0.00    +0.000 A 
ATOM      5  C   UNL     1      -0.809  10.917   1.358  0.00  0.00    +0.000 A 
ATOM      6  C   UNL     1      -0.835  13.059   1.882  0.00  0.00    +0.000 A 
ATOM      7  C   UNL     1       0.095  12.753  -0.204  0.00  0.00    +0.000 A 
ATOM      8  C   UNL     1       0.210  14.085  -0.082  0.00  0.00    +0.000 A 
ENDROOT
BRANCH   4   9
ATOM      9  C   UNL     1      -1.934  10.159   3.551  0.00  0.00    +0.000 A 
ATOM     10  C   UNL     1      -3.292   9.696   3.507  0.00  0.00    +0.000 A 
ATOM     11  C   UNL     1      -3.736   8.797   4.515  0.00  0.00    +0.000 A 
ATOM     12  C   UNL     1      -1.088   9.712   4.585  0.00  0.00    +0.000 A 
ATOM     13  C   UNL     1      -4.255  10.070   2.532  0.00  0.00    +0.000 A 
ATOM     14  C   UNL     1      -2.850   8.359   5.508  0.00  0.00    +0.000 A 
ATOM     15  C   UNL     1      -1.536   8.809   5.543  0.00  0.00    +0.000 A 
ATOM     16  C   UNL     1      -5.068   8.347   4.540  0.00  0.00    +0.000 A 
ATOM     17  C   UNL     1      -5.580   9.620   2.573  0.00  0.00    +0.000 A 
ATOM     18  C   UNL     1      -5.988   8.762   3.581  0.00  0.00    +0.000 A 
ENDBRANCH   4   9
BRANCH   5  20
ATOM     19  N   UNL     1      -1.401   9.129  -0.221  0.00  0.00    +0.000 NA
ATOM     20  C   UNL     1      -0.596   9.685   0.640  0.00  0.00    +0.000 C 
BRANCH  19  21
ATOM     21  O   UNL     1      -2.477   9.969  -0.539  0.00  0.00    +0.000 OA
BRANCH  21  22
ATOM     22  C   UNL     1      -2.487  10.263  -1.937  0.00  0.00    +0.000 C 
BRANCH  22  25
ATOM     23 CL   UNL     1      -6.146  11.808  -5.325  0.00  0.00    +0.000 Cl
ATOM     24 CL   UNL     1      -8.305  10.116  -3.577  0.00  0.00    +0.000 Cl
ATOM     25  C   UNL     1      -3.922  10.225  -2.399  0.00  0.00    +0.000 A 
ATOM     26  C   UNL     1      -4.350  10.933  -3.531  0.00  0.00    +0.000 A 
ATOM     27  C   UNL     1      -4.864   9.485  -1.669  0.00  0.00    +0.000 A 
ATOM     28  C   UNL     1      -5.695  10.907  -3.920  0.00  0.00    +0.000 A 
ATOM     29  C   UNL     1      -6.204   9.454  -2.055  0.00  0.00    +0.000 A 
ATOM     30  C   UNL     1      -6.627  10.171  -3.176  0.00  0.00    +0.000 A 
ENDBRANCH  22  25
ENDBRANCH  21  22
ENDBRANCH  19  21
ENDBRANCH   5  20
TORSDOF 5
ENDMDL
MODEL 9
REMARK VINA RESULT:      -6.0     24.867     27.664
REMARK  Name = 155269229
REMARK  5 active torsions:
REMARK  status: ('A' for Active; 'I' for Inactive)
REMARK    1  A    between atoms: O_4  and  N_7
REMARK    2  A    between atoms: O_4  and  C_24
REMARK    3  A    between atoms: C_8  and  C_9
REMARK    4  A    between atoms: C_10  and  C_20
REMARK    5  A    between atoms: C_24  and  C_25
REMARK                            x       y       z     vdW  Elec       q    Type
REMARK                         _______ _______ _______ _____ _____    ______ ____
ROOT
ATOM      1  S   UNL     1       6.465   9.662   0.937  0.00  0.00    +0.000 S 
ATOM      2  N   UNL     1       8.832   9.084   1.764  0.00  0.00    +0.000 N 
ATOM      3  N   UNL     1       7.490   9.339   3.525  0.00  0.00    +0.000 NA
ATOM      4  C   UNL     1       8.775   9.022   3.946  0.00  0.00    +0.000 A 
ATOM      5  C   UNL     1       9.645   8.880   2.853  0.00  0.00    +0.000 A 
ATOM      6  C   UNL     1       7.586   9.367   2.228  0.00  0.00    +0.000 A 
ATOM      7  C   UNL     1       8.936   9.068   0.385  0.00  0.00    +0.000 A 
ATOM      8  C   UNL     1       7.776   9.378  -0.214  0.00  0.00    +0.000 A 
ENDROOT
BRANCH   4   9
ATOM      9  C   UNL     1       9.111   8.947   5.375  0.00  0.00    +0.000 A 
ATOM     10  C   UNL     1       9.300   7.696   6.052  0.00  0.00    +0.000 A 
ATOM     11  C   UNL     1       9.538   7.711   7.453  0.00  0.00    +0.000 A 
ATOM     12  C   UNL     1       9.167  10.144   6.114  0.00  0.00    +0.000 A 
ATOM     13  C   UNL     1       9.261   6.416   5.436  0.00  0.00    +0.000 A 
ATOM     14  C   UNL     1       9.612   8.928   8.143  0.00  0.00    +0.000 A 
ATOM     15  C   UNL     1       9.431  10.136   7.480  0.00  0.00    +0.000 A 
ATOM     16  C   UNL     1       9.688   6.510   8.169  0.00  0.00    +0.000 A 
ATOM     17  C   UNL     1       9.405   5.228   6.162  0.00  0.00    +0.000 A 
ATOM     18  C   UNL     1       9.614   5.275   7.531  0.00  0.00    +0.000 A 
ENDBRANCH   4   9
BRANCH   5  20
ATOM     19  N   UNL     1      11.578   7.380   2.636  0.00  0.00    +0.000 NA
ATOM     20  C   UNL     1      11.049   8.557   2.809  0.00  0.00    +0.000 C 
BRANCH  19  21
ATOM     21  O   UNL     1      10.611   6.423   2.300  0.00  0.00    +0.000 OA
BRANCH  21  22
ATOM     22  C   UNL     1      11.127   5.103   2.481  0.00  0.00    +0.000 C 
BRANCH  22  25
ATOM     23 CL   UNL     1       9.812   4.532  -2.539  0.00  0.00    +0.000 Cl
ATOM     24 CL   UNL     1      12.466   2.684  -2.897  0.00  0.00    +0.000 Cl
ATOM     25  C   UNL     1      11.442   4.546   1.115  0.00  0.00    +0.000 A 
ATOM     26  C   UNL     1      10.601   4.769   0.017  0.00  0.00    +0.000 A 
ATOM     27  C   UNL     1      12.593   3.763   0.937  0.00  0.00    +0.000 A 
ATOM     28  C   UNL     1      10.900   4.214  -1.233  0.00  0.00    +0.000 A 
ATOM     29  C   UNL     1      12.896   3.211  -0.307  0.00  0.00    +0.000 A 
ATOM     30  C   UNL     1      12.048   3.425  -1.395  0.00  0.00    +0.000 A 
ENDBRANCH  22  25
ENDBRANCH  21  22
ENDBRANCH  19  21
ENDBRANCH   5  20
TORSDOF 5
ENDMDL
MODEL 10
REMARK VINA RESULT:      -6.0     20.128     21.800
REMARK  Name = 155269229
REMARK  5 active torsions:
REMARK  status: ('A' for Active; 'I' for Inactive)
REMARK    1  A    between atoms: O_4  and  N_7
REMARK    2  A    between atoms: O_4  and  C_24
REMARK    3  A    between atoms: C_8  and  C_9
REMARK    4  A    between atoms: C_10  and  C_20
REMARK    5  A    between atoms: C_24  and  C_25
REMARK                            x       y       z     vdW  Elec       q    Type
REMARK                         _______ _______ _______ _____ _____    ______ ____
ROOT
ATOM      1  S   UNL     1     -20.660   5.125  27.074  0.00  0.00    +0.000 S 
ATOM      2  N   UNL     1     -19.395   3.380  25.668  0.00  0.00    +0.000 N 
ATOM      3  N   UNL     1     -19.104   5.392  24.759  0.00  0.00    +0.000 NA
ATOM      4  C   UNL     1     -18.426   4.433  24.019  0.00  0.00    +0.000 A 
ATOM      5  C   UNL     1     -18.615   3.151  24.560  0.00  0.00    +0.000 A 
ATOM      6  C   UNL     1     -19.662   4.712  25.716  0.00  0.00    +0.000 A 
ATOM      7  C   UNL     1     -19.946   2.650  26.706  0.00  0.00    +0.000 A 
ATOM      8  C   UNL     1     -20.673   3.418  27.534  0.00  0.00    +0.000 A 
ENDROOT
BRANCH   4   9
ATOM      9  C   UNL     1     -17.698   4.790  22.793  0.00  0.00    +0.000 A 
ATOM     10  C   UNL     1     -16.266   4.879  22.752  0.00  0.00    +0.000 A 
ATOM     11  C   UNL     1     -15.647   5.314  21.549  0.00  0.00    +0.000 A 
ATOM     12  C   UNL     1     -18.442   5.135  21.648  0.00  0.00    +0.000 A 
ATOM     13  C   UNL     1     -15.394   4.572  23.831  0.00  0.00    +0.000 A 
ATOM     14  C   UNL     1     -16.426   5.621  20.426  0.00  0.00    +0.000 A 
ATOM     15  C   UNL     1     -17.812   5.530  20.472  0.00  0.00    +0.000 A 
ATOM     16  C   UNL     1     -14.250   5.457  21.471  0.00  0.00    +0.000 A 
ATOM     17  C   UNL     1     -14.006   4.726  23.742  0.00  0.00    +0.000 A 
ATOM     18  C   UNL     1     -13.434   5.174  22.563  0.00  0.00    +0.000 A 
ENDBRANCH   4   9
BRANCH   5  20
ATOM     19  N   UNL     1     -17.098   1.219  24.636  0.00  0.00    +0.000 NA
ATOM     20  C   UNL     1     -18.109   1.871  24.134  0.00  0.00    +0.000 C 
BRANCH  19  21
ATOM     21  O   UNL     1     -16.626   1.823  25.810  0.00  0.00    +0.000 OA
BRANCH  21  22
ATOM     22  C   UNL     1     -16.753   0.932  26.918  0.00  0.00    +0.000 C 
BRANCH  22  25
ATOM     23 CL   UNL     1     -14.925   0.596  31.797  0.00  0.00    +0.000 Cl
ATOM     24 CL   UNL     1     -14.362   3.798  31.676  0.00  0.00    +0.000 Cl
ATOM     25  C   UNL     1     -16.124   1.602  28.115  0.00  0.00    +0.000 A 
ATOM     26  C   UNL     1     -15.822   0.889  29.283  0.00  0.00    +0.000 A 
ATOM     27  C   UNL     1     -15.856   2.979  28.074  0.00  0.00    +0.000 A 
ATOM     28  C   UNL     1     -15.268   1.543  30.391  0.00  0.00    +0.000 A 
ATOM     29  C   UNL     1     -15.303   3.632  29.175  0.00  0.00    +0.000 A 
ATOM     30  C   UNL     1     -15.015   2.920  30.340  0.00  0.00    +0.000 A 
ENDBRANCH  22  25
ENDBRANCH  21  22
ENDBRANCH  19  21
ENDBRANCH   5  20
TORSDOF 5
ENDMDL
