MODEL 1
REMARK VINA RESULT:      -5.1      0.000      0.000
REMARK  Name = 155269216
REMARK  6 active torsions:
REMARK  status: ('A' for Active; 'I' for Inactive)
REMARK    1  A    between atoms: O_4  and  N_7
REMARK    2  A    between atoms: O_4  and  C_17
REMARK    3  A    between atoms: C_8  and  C_13
REMARK    4  A    between atoms: C_9  and  C_10
REMARK    5  A    between atoms: C_10  and  C_14
REMARK    6  A    between atoms: C_16  and  C_17
REMARK                            x       y       z     vdW  Elec       q    Type
REMARK                         _______ _______ _______ _____ _____    ______ ____
ROOT
ATOM      1  N   UNL     1      -3.680   1.379 -54.380  0.00  0.00    +0.000 NA
ATOM      2  C   UNL     1      -3.720   0.158 -53.934  0.00  0.00    +0.000 C 
ENDROOT
BRANCH   2   6
ATOM      3  S   UNL     1      -7.723  -1.587 -51.397  0.00  0.00    +0.000 S 
ATOM      4  N   UNL     1      -5.744  -0.700 -52.774  0.00  0.00    +0.000 N 
ATOM      5  N   UNL     1      -5.059  -1.074 -50.685  0.00  0.00    +0.000 NA
ATOM      6  C   UNL     1      -4.415  -0.355 -52.783  0.00  0.00    +0.000 A 
ATOM      7  C   UNL     1      -4.023  -0.554 -51.451  0.00  0.00    +0.000 A 
ATOM      8  C   UNL     1      -6.050  -1.134 -51.523  0.00  0.00    +0.000 A 
ATOM      9  C   UNL     1      -6.794  -0.709 -53.670  0.00  0.00    +0.000 A 
ATOM     10  C   UNL     1      -7.930  -1.150 -53.101  0.00  0.00    +0.000 A 
BRANCH   7  11
ATOM     11  C   UNL     1      -2.721  -0.221 -50.791  0.00  0.00    +0.000 C 
ATOM     12  C   UNL     1      -2.480   1.275 -50.649  0.00  0.00    +0.000 C 
ENDBRANCH   7  11
ENDBRANCH   2   6
BRANCH   1  13
ATOM     13  O   UNL     1      -4.338   2.277 -53.527  0.00  0.00    +0.000 OA
BRANCH  13  14
ATOM     14  C   UNL     1      -5.385   2.948 -54.230  0.00  0.00    +0.000 C 
BRANCH  14  17
ATOM     15 CL   UNL     1      -3.583   5.035 -58.629  0.00  0.00    +0.000 Cl
ATOM     16 CL   UNL     1      -2.776   7.683 -56.916  0.00  0.00    +0.000 Cl
ATOM     17  C   UNL     1      -4.818   4.156 -54.928  0.00  0.00    +0.000 A 
ATOM     18  C   UNL     1      -4.533   4.106 -56.300  0.00  0.00    +0.000 A 
ATOM     19  C   UNL     1      -4.487   5.309 -54.204  0.00  0.00    +0.000 A 
ATOM     20  C   UNL     1      -3.916   5.186 -56.940  0.00  0.00    +0.000 A 
ATOM     21  C   UNL     1      -3.874   6.390 -54.841  0.00  0.00    +0.000 A 
ATOM     22  C   UNL     1      -3.578   6.327 -56.205  0.00  0.00    +0.000 A 
ENDBRANCH  14  17
ENDBRANCH  13  14
ENDBRANCH   1  13
TORSDOF 5
ENDMDL
MODEL 2
REMARK VINA RESULT:      -5.0     19.420     21.059
REMARK  Name = 155269216
REMARK  6 active torsions:
REMARK  status: ('A' for Active; 'I' for Inactive)
REMARK    1  A    between atoms: O_4  and  N_7
REMARK    2  A    between atoms: O_4  and  C_17
REMARK    3  A    between atoms: C_8  and  C_13
REMARK    4  A    between atoms: C_9  and  C_10
REMARK    5  A    between atoms: C_10  and  C_14
REMARK    6  A    between atoms: C_16  and  C_17
REMARK                            x       y       z     vdW  Elec       q    Type
REMARK                         _______ _______ _______ _____ _____    ______ ____
ROOT
ATOM      1  N   UNL     1     -11.415   7.436 -32.465  0.00  0.00    +0.000 NA
ATOM      2  C   UNL     1     -11.638   6.229 -32.034  0.00  0.00    +0.000 C 
ENDROOT
BRANCH   2   6
ATOM      3  S   UNL     1     -11.306   1.922 -34.649  0.00  0.00    +0.000 S 
ATOM      4  N   UNL     1     -11.373   4.108 -33.303  0.00  0.00    +0.000 N 
ATOM      5  N   UNL     1     -13.457   3.538 -33.854  0.00  0.00    +0.000 NA
ATOM      6  C   UNL     1     -12.154   5.097 -32.757  0.00  0.00    +0.000 A 
ATOM      7  C   UNL     1     -13.450   4.740 -33.158  0.00  0.00    +0.000 A 
ATOM      8  C   UNL     1     -12.199   3.217 -33.909  0.00  0.00    +0.000 A 
ATOM      9  C   UNL     1     -10.028   3.813 -33.390  0.00  0.00    +0.000 A 
ATOM     10  C   UNL     1      -9.810   2.680 -34.082  0.00  0.00    +0.000 A 
BRANCH   7  11
ATOM     11  C   UNL     1     -14.730   5.498 -32.993  0.00  0.00    +0.000 C 
ATOM     12  C   UNL     1     -15.501   5.119 -31.738  0.00  0.00    +0.000 C 
ENDBRANCH   7  11
ENDBRANCH   2   6
BRANCH   1  13
ATOM     13  O   UNL     1     -11.850   7.613 -33.787  0.00  0.00    +0.000 OA
BRANCH  13  14
ATOM     14  C   UNL     1     -10.827   8.240 -34.563  0.00  0.00    +0.000 C 
BRANCH  14  17
ATOM     15 CL   UNL     1     -11.068   4.132 -37.728  0.00  0.00    +0.000 Cl
ATOM     16 CL   UNL     1      -7.846   3.817 -37.390  0.00  0.00    +0.000 Cl
ATOM     17  C   UNL     1     -10.083   7.189 -35.344  0.00  0.00    +0.000 A 
ATOM     18  C   UNL     1     -10.790   6.271 -36.135  0.00  0.00    +0.000 A 
ATOM     19  C   UNL     1      -8.694   7.058 -35.224  0.00  0.00    +0.000 A 
ATOM     20  C   UNL     1     -10.121   5.230 -36.788  0.00  0.00    +0.000 A 
ATOM     21  C   UNL     1      -8.024   6.021 -35.876  0.00  0.00    +0.000 A 
ATOM     22  C   UNL     1      -8.735   5.101 -36.650  0.00  0.00    +0.000 A 
ENDBRANCH  14  17
ENDBRANCH  13  14
ENDBRANCH   1  13
TORSDOF 5
ENDMDL
MODEL 3
REMARK VINA RESULT:      -5.0      4.590      6.892
REMARK  Name = 155269216
REMARK  6 active torsions:
REMARK  status: ('A' for Active; 'I' for Inactive)
REMARK    1  A    between atoms: O_4  and  N_7
REMARK    2  A    between atoms: O_4  and  C_17
REMARK    3  A    between atoms: C_8  and  C_13
REMARK    4  A    between atoms: C_9  and  C_10
REMARK    5  A    between atoms: C_10  and  C_14
REMARK    6  A    between atoms: C_16  and  C_17
REMARK                            x       y       z     vdW  Elec       q    Type
REMARK                         _______ _______ _______ _____ _____    ______ ____
ROOT
ATOM      1  N   UNL     1      -4.546  -0.841 -56.615  0.00  0.00    +0.000 NA
ATOM      2  C   UNL     1      -3.885  -0.085 -55.788  0.00  0.00    +0.000 C 
ENDROOT
BRANCH   2   6
ATOM      3  S   UNL     1      -5.268   4.521 -54.248  0.00  0.00    +0.000 S 
ATOM      4  N   UNL     1      -4.550   2.217 -55.126  0.00  0.00    +0.000 N 
ATOM      5  N   UNL     1      -5.198   2.008 -53.003  0.00  0.00    +0.000 NA
ATOM      6  C   UNL     1      -4.395   0.880 -54.850  0.00  0.00    +0.000 A 
ATOM      7  C   UNL     1      -4.763   0.786 -53.500  0.00  0.00    +0.000 A 
ATOM      8  C   UNL     1      -5.045   2.814 -54.011  0.00  0.00    +0.000 A 
ATOM      9  C   UNL     1      -4.332   3.061 -56.196  0.00  0.00    +0.000 A 
ATOM     10  C   UNL     1      -4.657   4.333 -55.899  0.00  0.00    +0.000 A 
BRANCH   7  11
ATOM     11  C   UNL     1      -4.675  -0.390 -52.579  0.00  0.00    +0.000 C 
ATOM     12  C   UNL     1      -5.324  -0.147 -51.224  0.00  0.00    +0.000 C 
ENDBRANCH   7  11
ENDBRANCH   2   6
BRANCH   1  13
ATOM     13  O   UNL     1      -5.919  -0.558 -56.609  0.00  0.00    +0.000 OA
BRANCH  13  14
ATOM     14  C   UNL     1      -6.672  -1.766 -56.492  0.00  0.00    +0.000 C 
BRANCH  14  17
ATOM     15 CL   UNL     1      -6.312  -4.819 -52.308  0.00  0.00    +0.000 Cl
ATOM     16 CL   UNL     1      -8.401  -2.826 -50.806  0.00  0.00    +0.000 Cl
ATOM     17  C   UNL     1      -7.026  -1.992 -55.046  0.00  0.00    +0.000 A 
ATOM     18  C   UNL     1      -6.541  -3.122 -54.372  0.00  0.00    +0.000 A 
ATOM     19  C   UNL     1      -7.907  -1.128 -54.382  0.00  0.00    +0.000 A 
ATOM     20  C   UNL     1      -6.940  -3.395 -53.059  0.00  0.00    +0.000 A 
ATOM     21  C   UNL     1      -8.304  -1.396 -53.071  0.00  0.00    +0.000 A 
ATOM     22  C   UNL     1      -7.831  -2.533 -52.411  0.00  0.00    +0.000 A 
ENDBRANCH  14  17
ENDBRANCH  13  14
ENDBRANCH   1  13
TORSDOF 5
ENDMDL
MODEL 4
REMARK VINA RESULT:      -5.0     17.873     19.623
REMARK  Name = 155269216
REMARK  6 active torsions:
REMARK  status: ('A' for Active; 'I' for Inactive)
REMARK    1  A    between atoms: O_4  and  N_7
REMARK    2  A    between atoms: O_4  and  C_17
REMARK    3  A    between atoms: C_8  and  C_13
REMARK    4  A    between atoms: C_9  and  C_10
REMARK    5  A    between atoms: C_10  and  C_14
REMARK    6  A    between atoms: C_16  and  C_17
REMARK                            x       y       z     vdW  Elec       q    Type
REMARK                         _______ _______ _______ _____ _____    ______ ____
ROOT
ATOM      1  N   UNL     1      -8.794   3.663 -37.990  0.00  0.00    +0.000 NA
ATOM      2  C   UNL     1      -7.646   3.297 -37.502  0.00  0.00    +0.000 C 
ENDROOT
BRANCH   2   6
ATOM      3  S   UNL     1      -6.665   2.317 -32.646  0.00  0.00    +0.000 S 
ATOM      4  N   UNL     1      -7.205   2.721 -35.124  0.00  0.00    +0.000 N 
ATOM      5  N   UNL     1      -6.090   4.483 -34.333  0.00  0.00    +0.000 NA
ATOM      6  C   UNL     1      -7.096   3.568 -36.200  0.00  0.00    +0.000 A 
ATOM      7  C   UNL     1      -6.435   4.683 -35.664  0.00  0.00    +0.000 A 
ATOM      8  C   UNL     1      -6.576   3.306 -34.072  0.00  0.00    +0.000 A 
ATOM      9  C   UNL     1      -7.771   1.491 -34.858  0.00  0.00    +0.000 A 
ATOM     10  C   UNL     1      -7.583   1.123 -33.578  0.00  0.00    +0.000 A 
BRANCH   7  11
ATOM     11  C   UNL     1      -6.147   6.005 -36.304  0.00  0.00    +0.000 C 
ATOM     12  C   UNL     1      -4.932   5.983 -37.219  0.00  0.00    +0.000 C 
ENDBRANCH   7  11
ENDBRANCH   2   6
BRANCH   1  13
ATOM     13  O   UNL     1      -9.494   4.512 -37.119  0.00  0.00    +0.000 OA
BRANCH  13  14
ATOM     14  C   UNL     1     -10.897   4.441 -37.382  0.00  0.00    +0.000 C 
BRANCH  14  17
ATOM     15 CL   UNL     1     -11.553   9.199 -35.411  0.00  0.00    +0.000 Cl
ATOM     16 CL   UNL     1     -13.577   7.896 -33.220  0.00  0.00    +0.000 Cl
ATOM     17  C   UNL     1     -11.627   5.326 -36.407  0.00  0.00    +0.000 A 
ATOM     18  C   UNL     1     -11.357   6.702 -36.367  0.00  0.00    +0.000 A 
ATOM     19  C   UNL     1     -12.518   4.780 -35.474  0.00  0.00    +0.000 A 
ATOM     20  C   UNL     1     -11.955   7.519 -35.403  0.00  0.00    +0.000 A 
ATOM     21  C   UNL     1     -13.119   5.593 -34.512  0.00  0.00    +0.000 A 
ATOM     22  C   UNL     1     -12.833   6.960 -34.467  0.00  0.00    +0.000 A 
ENDBRANCH  14  17
ENDBRANCH  13  14
ENDBRANCH   1  13
TORSDOF 5
ENDMDL
MODEL 5
REMARK VINA RESULT:      -4.9      2.221      3.710
REMARK  Name = 155269216
REMARK  6 active torsions:
REMARK  status: ('A' for Active; 'I' for Inactive)
REMARK    1  A    between atoms: O_4  and  N_7
REMARK    2  A    between atoms: O_4  and  C_17
REMARK    3  A    between atoms: C_8  and  C_13
REMARK    4  A    between atoms: C_9  and  C_10
REMARK    5  A    between atoms: C_10  and  C_14
REMARK    6  A    between atoms: C_16  and  C_17
REMARK                            x       y       z     vdW  Elec       q    Type
REMARK                         _______ _______ _______ _____ _____    ______ ____
ROOT
ATOM      1  N   UNL     1      -4.979   1.441 -52.072  0.00  0.00    +0.000 NA
ATOM      2  C   UNL     1      -5.054   0.229 -52.537  0.00  0.00    +0.000 C 
ENDROOT
BRANCH   2   6
ATOM      3  S   UNL     1      -4.554  -0.845 -57.446  0.00  0.00    +0.000 S 
ATOM      4  N   UNL     1      -4.706  -0.282 -54.945  0.00  0.00    +0.000 N 
ATOM      5  N   UNL     1      -6.717  -0.925 -55.662  0.00  0.00    +0.000 NA
ATOM      6  C   UNL     1      -5.506  -0.210 -53.830  0.00  0.00    +0.000 A 
ATOM      7  C   UNL     1      -6.770  -0.573 -54.319  0.00  0.00    +0.000 A 
ATOM      8  C   UNL     1      -5.472  -0.729 -55.974  0.00  0.00    +0.000 A 
ATOM      9  C   UNL     1      -3.390  -0.020 -55.264  0.00  0.00    +0.000 A 
ATOM     10  C   UNL     1      -3.135  -0.261 -56.563  0.00  0.00    +0.000 A 
BRANCH   7  11
ATOM     11  C   UNL     1      -8.093  -0.552 -53.619  0.00  0.00    +0.000 C 
ATOM     12  C   UNL     1      -9.210   0.057 -54.454  0.00  0.00    +0.000 C 
ENDBRANCH   7  11
ENDBRANCH   2   6
BRANCH   1  13
ATOM     13  O   UNL     1      -5.517   2.384 -52.961  0.00  0.00    +0.000 OA
BRANCH  13  14
ATOM     14  C   UNL     1      -4.805   3.619 -52.861  0.00  0.00    +0.000 C 
BRANCH  14  17
ATOM     15 CL   UNL     1      -4.595   2.753 -57.976  0.00  0.00    +0.000 Cl
ATOM     16 CL   UNL     1      -3.632   5.839 -58.351  0.00  0.00    +0.000 Cl
ATOM     17  C   UNL     1      -4.603   4.185 -54.242  0.00  0.00    +0.000 A 
ATOM     18  C   UNL     1      -4.722   3.356 -55.367  0.00  0.00    +0.000 A 
ATOM     19  C   UNL     1      -4.210   5.519 -54.417  0.00  0.00    +0.000 A 
ATOM     20  C   UNL     1      -4.441   3.845 -56.646  0.00  0.00    +0.000 A 
ATOM     21  C   UNL     1      -3.931   6.011 -55.693  0.00  0.00    +0.000 A 
ATOM     22  C   UNL     1      -4.036   5.175 -56.808  0.00  0.00    +0.000 A 
ENDBRANCH  14  17
ENDBRANCH  13  14
ENDBRANCH   1  13
TORSDOF 5
ENDMDL
MODEL 6
REMARK VINA RESULT:      -4.8     19.206     21.038
REMARK  Name = 155269216
REMARK  6 active torsions:
REMARK  status: ('A' for Active; 'I' for Inactive)
REMARK    1  A    between atoms: O_4  and  N_7
REMARK    2  A    between atoms: O_4  and  C_17
REMARK    3  A    between atoms: C_8  and  C_13
REMARK    4  A    between atoms: C_9  and  C_10
REMARK    5  A    between atoms: C_10  and  C_14
REMARK    6  A    between atoms: C_16  and  C_17
REMARK                            x       y       z     vdW  Elec       q    Type
REMARK                         _______ _______ _______ _____ _____    ______ ____
ROOT
ATOM      1  N   UNL     1     -11.306   3.674 -36.184  0.00  0.00    +0.000 NA
ATOM      2  C   UNL     1     -10.768   4.617 -36.900  0.00  0.00    +0.000 C 
ENDROOT
BRANCH   2   6
ATOM      3  S   UNL     1      -5.917   5.981 -36.569  0.00  0.00    +0.000 S 
ATOM      4  N   UNL     1      -8.355   5.204 -36.791  0.00  0.00    +0.000 N 
ATOM      5  N   UNL     1      -8.322   7.193 -35.784  0.00  0.00    +0.000 NA
ATOM      6  C   UNL     1      -9.678   5.492 -36.558  0.00  0.00    +0.000 A 
ATOM      7  C   UNL     1      -9.625   6.721 -35.885  0.00  0.00    +0.000 A 
ATOM      8  C   UNL     1      -7.618   6.250 -36.335  0.00  0.00    +0.000 A 
ATOM      9  C   UNL     1      -7.626   4.167 -37.337  0.00  0.00    +0.000 A 
ATOM     10  C   UNL     1      -6.304   4.413 -37.295  0.00  0.00    +0.000 A 
BRANCH   7  11
ATOM     11  C   UNL     1     -10.734   7.492 -35.241  0.00  0.00    +0.000 C 
ATOM     12  C   UNL     1     -11.682   8.139 -36.240  0.00  0.00    +0.000 C 
ENDBRANCH   7  11
ENDBRANCH   2   6
BRANCH   1  13
ATOM     13  O   UNL     1     -10.773   3.622 -34.888  0.00  0.00    +0.000 OA
BRANCH  13  14
ATOM     14  C   UNL     1     -11.806   3.349 -33.939  0.00  0.00    +0.000 C 
BRANCH  14  17
ATOM     15 CL   UNL     1     -15.177   7.295 -34.053  0.00  0.00    +0.000 Cl
ATOM     16 CL   UNL     1     -13.431   8.715 -31.702  0.00  0.00    +0.000 Cl
ATOM     17  C   UNL     1     -12.272   4.644 -33.328  0.00  0.00    +0.000 A 
ATOM     18  C   UNL     1     -13.400   5.298 -33.844  0.00  0.00    +0.000 A 
ATOM     19  C   UNL     1     -11.541   5.253 -32.300  0.00  0.00    +0.000 A 
ATOM     20  C   UNL     1     -13.787   6.548 -33.350  0.00  0.00    +0.000 A 
ATOM     21  C   UNL     1     -11.925   6.500 -31.804  0.00  0.00    +0.000 A 
ATOM     22  C   UNL     1     -13.041   7.154 -32.333  0.00  0.00    +0.000 A 
ENDBRANCH  14  17
ENDBRANCH  13  14
ENDBRANCH   1  13
TORSDOF 5
ENDMDL
MODEL 7
REMARK VINA RESULT:      -4.8     20.770     22.142
REMARK  Name = 155269216
REMARK  6 active torsions:
REMARK  status: ('A' for Active; 'I' for Inactive)
REMARK    1  A    between atoms: O_4  and  N_7
REMARK    2  A    between atoms: O_4  and  C_17
REMARK    3  A    between atoms: C_8  and  C_13
REMARK    4  A    between atoms: C_9  and  C_10
REMARK    5  A    between atoms: C_10  and  C_14
REMARK    6  A    between atoms: C_16  and  C_17
REMARK                            x       y       z     vdW  Elec       q    Type
REMARK                         _______ _______ _______ _____ _____    ______ ____
ROOT
ATOM      1  N   UNL     1     -12.841   8.536 -35.626  0.00  0.00    +0.000 NA
ATOM      2  C   UNL     1     -11.628   8.367 -36.063  0.00  0.00    +0.000 C 
ENDROOT
BRANCH   2   6
ATOM      3  S   UNL     1      -9.385   3.843 -36.011  0.00  0.00    +0.000 S 
ATOM      4  N   UNL     1     -10.586   6.111 -36.115  0.00  0.00    +0.000 N 
ATOM      5  N   UNL     1      -8.933   6.239 -34.623  0.00  0.00    +0.000 NA
ATOM      6  C   UNL     1     -10.649   7.400 -35.644  0.00  0.00    +0.000 A 
ATOM      7  C   UNL     1      -9.633   7.439 -34.677  0.00  0.00    +0.000 A 
ATOM      8  C   UNL     1      -9.547   5.495 -35.494  0.00  0.00    +0.000 A 
ATOM      9  C   UNL     1     -11.284   5.326 -37.009  0.00  0.00    +0.000 A 
ATOM     10  C   UNL     1     -10.780   4.080 -37.075  0.00  0.00    +0.000 A 
BRANCH   7  11
ATOM     11  C   UNL     1      -9.291   8.530 -33.712  0.00  0.00    +0.000 C 
ATOM     12  C   UNL     1     -10.210   8.576 -32.500  0.00  0.00    +0.000 C 
ENDBRANCH   7  11
ENDBRANCH   2   6
BRANCH   1  13
ATOM     13  O   UNL     1     -13.134   7.700 -34.539  0.00  0.00    +0.000 OA
BRANCH  13  14
ATOM     14  C   UNL     1     -14.380   7.033 -34.751  0.00  0.00    +0.000 C 
BRANCH  14  17
ATOM     15 CL   UNL     1     -19.027   9.077 -35.835  0.00  0.00    +0.000 Cl
ATOM     16 CL   UNL     1     -18.705  10.945 -33.190  0.00  0.00    +0.000 Cl
ATOM     17  C   UNL     1     -15.504   7.939 -34.323  0.00  0.00    +0.000 A 
ATOM     18  C   UNL     1     -16.650   8.063 -35.122  0.00  0.00    +0.000 A 
ATOM     19  C   UNL     1     -15.386   8.731 -33.173  0.00  0.00    +0.000 A 
ATOM     20  C   UNL     1     -17.658   8.973 -34.787  0.00  0.00    +0.000 A 
ATOM     21  C   UNL     1     -16.391   9.639 -32.835  0.00  0.00    +0.000 A 
ATOM     22  C   UNL     1     -17.523   9.769 -33.644  0.00  0.00    +0.000 A 
ENDBRANCH  14  17
ENDBRANCH  13  14
ENDBRANCH   1  13
TORSDOF 5
ENDMDL
MODEL 8
REMARK VINA RESULT:      -4.8     18.754     20.916
REMARK  Name = 155269216
REMARK  6 active torsions:
REMARK  status: ('A' for Active; 'I' for Inactive)
REMARK    1  A    between atoms: O_4  and  N_7
REMARK    2  A    between atoms: O_4  and  C_17
REMARK    3  A    between atoms: C_8  and  C_13
REMARK    4  A    between atoms: C_9  and  C_10
REMARK    5  A    between atoms: C_10  and  C_14
REMARK    6  A    between atoms: C_16  and  C_17
REMARK                            x       y       z     vdW  Elec       q    Type
REMARK                         _______ _______ _______ _____ _____    ______ ____
ROOT
ATOM      1  N   UNL     1     -11.432   3.928 -34.783  0.00  0.00    +0.000 NA
ATOM      2  C   UNL     1     -11.160   4.831 -35.680  0.00  0.00    +0.000 C 
ENDROOT
BRANCH   2   6
ATOM      3  S   UNL     1      -6.461   5.673 -37.326  0.00  0.00    +0.000 S 
ATOM      4  N   UNL     1      -8.852   5.156 -36.542  0.00  0.00    +0.000 N 
ATOM      5  N   UNL     1      -8.263   7.167 -35.781  0.00  0.00    +0.000 NA
ATOM      6  C   UNL     1      -9.953   5.595 -35.847  0.00  0.00    +0.000 A 
ATOM      7  C   UNL     1      -9.539   6.836 -35.342  0.00  0.00    +0.000 A 
ATOM      8  C   UNL     1      -7.910   6.133 -36.483  0.00  0.00    +0.000 A 
ATOM      9  C   UNL     1      -8.482   4.027 -37.243  0.00  0.00    +0.000 A 
ATOM     10  C   UNL     1      -7.230   4.129 -37.726  0.00  0.00    +0.000 A 
BRANCH   7  11
ATOM     11  C   UNL     1     -10.244   7.747 -34.386  0.00  0.00    +0.000 C 
ATOM     12  C   UNL     1      -9.378   8.897 -33.896  0.00  0.00    +0.000 C 
ENDBRANCH   7  11
ENDBRANCH   2   6
BRANCH   1  13
ATOM     13  O   UNL     1     -10.411   3.805 -33.830  0.00  0.00    +0.000 OA
BRANCH  13  14
ATOM     14  C   UNL     1      -9.964   2.450 -33.757  0.00  0.00    +0.000 C 
BRANCH  14  17
ATOM     15 CL   UNL     1      -6.447   0.559 -30.439  0.00  0.00    +0.000 Cl
ATOM     16 CL   UNL     1      -4.291   2.643 -31.704  0.00  0.00    +0.000 Cl
ATOM     17  C   UNL     1      -8.530   2.425 -33.298  0.00  0.00    +0.000 A 
ATOM     18  C   UNL     1      -8.143   1.581 -32.248  0.00  0.00    +0.000 A 
ATOM     19  C   UNL     1      -7.587   3.302 -33.851  0.00  0.00    +0.000 A 
ATOM     20  C   UNL     1      -6.837   1.619 -31.747  0.00  0.00    +0.000 A 
ATOM     21  C   UNL     1      -6.283   3.341 -33.355  0.00  0.00    +0.000 A 
ATOM     22  C   UNL     1      -5.908   2.508 -32.297  0.00  0.00    +0.000 A 
ENDBRANCH  14  17
ENDBRANCH  13  14
ENDBRANCH   1  13
TORSDOF 5
ENDMDL
MODEL 9
REMARK VINA RESULT:      -4.7     12.324     13.641
REMARK  Name = 155269216
REMARK  6 active torsions:
REMARK  status: ('A' for Active; 'I' for Inactive)
REMARK    1  A    between atoms: O_4  and  N_7
REMARK    2  A    between atoms: O_4  and  C_17
REMARK    3  A    between atoms: C_8  and  C_13
REMARK    4  A    between atoms: C_9  and  C_10
REMARK    5  A    between atoms: C_10  and  C_14
REMARK    6  A    between atoms: C_16  and  C_17
REMARK                            x       y       z     vdW  Elec       q    Type
REMARK                         _______ _______ _______ _____ _____    ______ ____
ROOT
ATOM      1  N   UNL     1      -9.792  13.824 -58.109  0.00  0.00    +0.000 NA
ATOM      2  C   UNL     1     -10.127  12.697 -58.665  0.00  0.00    +0.000 C 
ENDROOT
BRANCH   2   6
ATOM      3  S   UNL     1     -14.765  11.094 -59.856  0.00  0.00    +0.000 S 
ATOM      4  N   UNL     1     -12.403  11.960 -59.340  0.00  0.00    +0.000 N 
ATOM      5  N   UNL     1     -13.026  10.560 -57.721  0.00  0.00    +0.000 NA
ATOM      6  C   UNL     1     -11.330  11.929 -58.483  0.00  0.00    +0.000 A 
ATOM      7  C   UNL     1     -11.766  11.081 -57.454  0.00  0.00    +0.000 A 
ATOM      8  C   UNL     1     -13.350  11.120 -58.848  0.00  0.00    +0.000 A 
ATOM      9  C   UNL     1     -12.744  12.605 -60.512  0.00  0.00    +0.000 A 
ATOM     10  C   UNL     1     -13.977  12.263 -60.928  0.00  0.00    +0.000 A 
BRANCH   7  11
ATOM     11  C   UNL     1     -11.100  10.756 -56.154  0.00  0.00    +0.000 C 
ATOM     12  C   UNL     1     -11.958  11.075 -54.938  0.00  0.00    +0.000 C 
ENDBRANCH   7  11
ENDBRANCH   2   6
BRANCH   1  13
ATOM     13  O   UNL     1     -10.724  14.238 -57.146  0.00  0.00    +0.000 OA
BRANCH  13  14
ATOM     14  C   UNL     1     -10.203  15.337 -56.396  0.00  0.00    +0.000 C 
BRANCH  14  17
ATOM     15 CL   UNL     1      -5.542  14.911 -54.151  0.00  0.00    +0.000 Cl
ATOM     16 CL   UNL     1      -6.892  12.904 -51.973  0.00  0.00    +0.000 Cl
ATOM     17  C   UNL     1      -9.387  14.808 -55.246  0.00  0.00    +0.000 A 
ATOM     18  C   UNL     1      -8.015  15.091 -55.170  0.00  0.00    +0.000 A 
ATOM     19  C   UNL     1      -9.963  13.961 -54.290  0.00  0.00    +0.000 A 
ATOM     20  C   UNL     1      -7.226  14.527 -54.162  0.00  0.00    +0.000 A 
ATOM     21  C   UNL     1      -9.178  13.399 -53.282  0.00  0.00    +0.000 A 
ATOM     22  C   UNL     1      -7.809  13.672 -53.221  0.00  0.00    +0.000 A 
ENDBRANCH  14  17
ENDBRANCH  13  14
ENDBRANCH   1  13
TORSDOF 5
ENDMDL
MODEL 10
REMARK VINA RESULT:      -4.6     18.093     19.739
REMARK  Name = 155269216
REMARK  6 active torsions:
REMARK  status: ('A' for Active; 'I' for Inactive)
REMARK    1  A    between atoms: O_4  and  N_7
REMARK    2  A    between atoms: O_4  and  C_17
REMARK    3  A    between atoms: C_8  and  C_13
REMARK    4  A    between atoms: C_9  and  C_10
REMARK    5  A    between atoms: C_10  and  C_14
REMARK    6  A    between atoms: C_16  and  C_17
REMARK                            x       y       z     vdW  Elec       q    Type
REMARK                         _______ _______ _______ _____ _____    ______ ____
ROOT
ATOM      1  N   UNL     1     -22.872   8.925 -55.043  0.00  0.00    +0.000 NA
ATOM      2  C   UNL     1     -22.627   8.876 -56.319  0.00  0.00    +0.000 C 
ENDROOT
BRANCH   2   6
ATOM      3  S   UNL     1     -22.519   4.466 -58.776  0.00  0.00    +0.000 S 
ATOM      4  N   UNL     1     -22.676   6.698 -57.516  0.00  0.00    +0.000 N 
ATOM      5  N   UNL     1     -20.573   6.402 -58.196  0.00  0.00    +0.000 NA
ATOM      6  C   UNL     1     -22.012   7.817 -57.076  0.00  0.00    +0.000 A 
ATOM      7  C   UNL     1     -20.688   7.583 -57.474  0.00  0.00    +0.000 A 
ATOM      8  C   UNL     1     -21.782   5.924 -58.183  0.00  0.00    +0.000 A 
ATOM      9  C   UNL     1     -23.956   6.188 -57.447  0.00  0.00    +0.000 A 
ATOM     10  C   UNL     1     -24.051   4.996 -58.064  0.00  0.00    +0.000 A 
BRANCH   7  11
ATOM     11  C   UNL     1     -19.456   8.374 -57.165  0.00  0.00    +0.000 C 
ATOM     12  C   UNL     1     -18.906   8.117 -55.770  0.00  0.00    +0.000 C 
ENDBRANCH   7  11
ENDBRANCH   2   6
BRANCH   1  13
ATOM     13  O   UNL     1     -22.358   7.812 -54.362  0.00  0.00    +0.000 OA
BRANCH  13  14
ATOM     14  C   UNL     1     -23.422   6.964 -53.927  0.00  0.00    +0.000 C 
BRANCH  14  17
ATOM     15 CL   UNL     1     -25.357   4.775 -49.635  0.00  0.00    +0.000 Cl
ATOM     16 CL   UNL     1     -23.518   6.819 -47.893  0.00  0.00    +0.000 Cl
ATOM     17  C   UNL     1     -23.387   6.857 -52.425  0.00  0.00    +0.000 A 
ATOM     18  C   UNL     1     -24.230   5.950 -51.766  0.00  0.00    +0.000 A 
ATOM     19  C   UNL     1     -22.583   7.716 -51.666  0.00  0.00    +0.000 A 
ATOM     20  C   UNL     1     -24.279   5.909 -50.369  0.00  0.00    +0.000 A 
ATOM     21  C   UNL     1     -22.628   7.676 -50.271  0.00  0.00    +0.000 A 
ATOM     22  C   UNL     1     -23.481   6.781 -49.620  0.00  0.00    +0.000 A 
ENDBRANCH  14  17
ENDBRANCH  13  14
ENDBRANCH   1  13
TORSDOF 5
ENDMDL
