MODEL 1
REMARK VINA RESULT:      -6.2      0.000      0.000
REMARK  Name = 155269229
REMARK  5 active torsions:
REMARK  status: ('A' for Active; 'I' for Inactive)
REMARK    1  A    between atoms: O_4  and  N_7
REMARK    2  A    between atoms: O_4  and  C_24
REMARK    3  A    between atoms: C_8  and  C_9
REMARK    4  A    between atoms: C_10  and  C_20
REMARK    5  A    between atoms: C_24  and  C_25
REMARK                            x       y       z     vdW  Elec       q    Type
REMARK                         _______ _______ _______ _____ _____    ______ ____
ROOT
ATOM      1  S   UNL     1     -25.444  11.037 -54.934  0.00  0.00    +0.000 S 
ATOM      2  N   UNL     1     -23.981   9.518 -53.460  0.00  0.00    +0.000 N 
ATOM      3  N   UNL     1     -23.397   9.240 -55.592  0.00  0.00    +0.000 NA
ATOM      4  C   UNL     1     -22.617   8.432 -54.776  0.00  0.00    +0.000 A 
ATOM      5  C   UNL     1     -22.984   8.573 -53.427  0.00  0.00    +0.000 A 
ATOM      6  C   UNL     1     -24.187   9.853 -54.762  0.00  0.00    +0.000 A 
ATOM      7  C   UNL     1     -24.786  10.196 -52.562  0.00  0.00    +0.000 A 
ATOM      8  C   UNL     1     -25.642  11.027 -53.177  0.00  0.00    +0.000 A 
ENDROOT
BRANCH   4   9
ATOM      9  C   UNL     1     -21.616   7.517 -55.341  0.00  0.00    +0.000 A 
ATOM     10  C   UNL     1     -21.926   6.157 -55.676  0.00  0.00    +0.000 A 
ATOM     11  C   UNL     1     -20.877   5.315 -56.137  0.00  0.00    +0.000 A 
ATOM     12  C   UNL     1     -20.291   7.975 -55.478  0.00  0.00    +0.000 A 
ATOM     13  C   UNL     1     -23.212   5.560 -55.578  0.00  0.00    +0.000 A 
ATOM     14  C   UNL     1     -19.579   5.821 -56.283  0.00  0.00    +0.000 A 
ATOM     15  C   UNL     1     -19.287   7.141 -55.959  0.00  0.00    +0.000 A 
ATOM     16  C   UNL     1     -21.121   3.963 -56.438  0.00  0.00    +0.000 A 
ATOM     17  C   UNL     1     -23.439   4.211 -55.875  0.00  0.00    +0.000 A 
ATOM     18  C   UNL     1     -22.391   3.411 -56.300  0.00  0.00    +0.000 A 
ENDBRANCH   4   9
BRANCH   5  20
ATOM     19  N   UNL     1     -22.966   6.933 -51.598  0.00  0.00    +0.000 NA
ATOM     20  C   UNL     1     -22.457   7.943 -52.243  0.00  0.00    +0.000 C 
BRANCH  19  21
ATOM     21  O   UNL     1     -24.039   6.363 -52.295  0.00  0.00    +0.000 OA
BRANCH  21  22
ATOM     22  C   UNL     1     -25.024   5.870 -51.385  0.00  0.00    +0.000 C 
BRANCH  22  25
ATOM     23 CL   UNL     1     -24.322   1.090 -49.406  0.00  0.00    +0.000 Cl
ATOM     24 CL   UNL     1     -25.240  -0.104 -52.290  0.00  0.00    +0.000 Cl
ATOM     25  C   UNL     1     -25.096   4.373 -51.558  0.00  0.00    +0.000 A 
ATOM     26  C   UNL     1     -24.737   3.495 -50.527  0.00  0.00    +0.000 A 
ATOM     27  C   UNL     1     -25.508   3.840 -52.789  0.00  0.00    +0.000 A 
ATOM     28  C   UNL     1     -24.783   2.109 -50.725  0.00  0.00    +0.000 A 
ATOM     29  C   UNL     1     -25.557   2.461 -52.989  0.00  0.00    +0.000 A 
ATOM     30  C   UNL     1     -25.187   1.590 -51.963  0.00  0.00    +0.000 A 
ENDBRANCH  22  25
ENDBRANCH  21  22
ENDBRANCH  19  21
ENDBRANCH   5  20
TORSDOF 5
ENDMDL
MODEL 2
REMARK VINA RESULT:      -6.1     18.177     20.835
REMARK  Name = 155269229
REMARK  5 active torsions:
REMARK  status: ('A' for Active; 'I' for Inactive)
REMARK    1  A    between atoms: O_4  and  N_7
REMARK    2  A    between atoms: O_4  and  C_24
REMARK    3  A    between atoms: C_8  and  C_9
REMARK    4  A    between atoms: C_10  and  C_20
REMARK    5  A    between atoms: C_24  and  C_25
REMARK                            x       y       z     vdW  Elec       q    Type
REMARK                         _______ _______ _______ _____ _____    ______ ____
ROOT
ATOM      1  S   UNL     1      -0.502  -1.205 -53.035  0.00  0.00    +0.000 S 
ATOM      2  N   UNL     1      -2.273   0.409 -52.096  0.00  0.00    +0.000 N 
ATOM      3  N   UNL     1      -3.301  -1.298 -53.092  0.00  0.00    +0.000 NA
ATOM      4  C   UNL     1      -4.239  -0.415 -52.573  0.00  0.00    +0.000 A 
ATOM      5  C   UNL     1      -3.612   0.683 -51.961  0.00  0.00    +0.000 A 
ATOM      6  C   UNL     1      -2.160  -0.758 -52.785  0.00  0.00    +0.000 A 
ATOM      7  C   UNL     1      -1.065   0.971 -51.725  0.00  0.00    +0.000 A 
ATOM      8  C   UNL     1      -0.017   0.256 -52.165  0.00  0.00    +0.000 A 
ENDROOT
BRANCH   4   9
ATOM      9  C   UNL     1      -5.679  -0.636 -52.759  0.00  0.00    +0.000 A 
ATOM     10  C   UNL     1      -6.402  -1.634 -52.024  0.00  0.00    +0.000 A 
ATOM     11  C   UNL     1      -7.775  -1.840 -52.328  0.00  0.00    +0.000 A 
ATOM     12  C   UNL     1      -6.348   0.106 -53.753  0.00  0.00    +0.000 A 
ATOM     13  C   UNL     1      -5.854  -2.459 -51.005  0.00  0.00    +0.000 A 
ATOM     14  C   UNL     1      -8.406  -1.060 -53.306  0.00  0.00    +0.000 A 
ATOM     15  C   UNL     1      -7.700  -0.093 -54.012  0.00  0.00    +0.000 A 
ATOM     16  C   UNL     1      -8.516  -2.835 -51.665  0.00  0.00    +0.000 A 
ATOM     17  C   UNL     1      -6.601  -3.451 -50.359  0.00  0.00    +0.000 A 
ATOM     18  C   UNL     1      -7.932  -3.642 -50.693  0.00  0.00    +0.000 A 
ENDBRANCH   4   9
BRANCH   5  20
ATOM     19  N   UNL     1      -4.520   2.964 -51.839  0.00  0.00    +0.000 NA
ATOM     20  C   UNL     1      -4.175   1.831 -51.295  0.00  0.00    +0.000 C 
BRANCH  19  21
ATOM     21  O   UNL     1      -4.457   2.905 -53.237  0.00  0.00    +0.000 OA
BRANCH  21  22
ATOM     22  C   UNL     1      -5.450   3.751 -53.820  0.00  0.00    +0.000 C 
BRANCH  22  25
ATOM     23 CL   UNL     1      -3.265   4.877 -58.426  0.00  0.00    +0.000 Cl
ATOM     24 CL   UNL     1      -2.485   7.790 -57.205  0.00  0.00    +0.000 Cl
ATOM     25  C   UNL     1      -4.739   4.742 -54.709  0.00  0.00    +0.000 A 
ATOM     26  C   UNL     1      -4.373   4.420 -56.023  0.00  0.00    +0.000 A 
ATOM     27  C   UNL     1      -4.412   6.010 -54.205  0.00  0.00    +0.000 A 
ATOM     28  C   UNL     1      -3.685   5.348 -56.816  0.00  0.00    +0.000 A 
ATOM     29  C   UNL     1      -3.730   6.936 -54.994  0.00  0.00    +0.000 A 
ATOM     30  C   UNL     1      -3.356   6.607 -56.298  0.00  0.00    +0.000 A 
ENDBRANCH  22  25
ENDBRANCH  21  22
ENDBRANCH  19  21
ENDBRANCH   5  20
TORSDOF 5
ENDMDL
MODEL 3
REMARK VINA RESULT:      -6.1     18.464     20.814
REMARK  Name = 155269229
REMARK  5 active torsions:
REMARK  status: ('A' for Active; 'I' for Inactive)
REMARK    1  A    between atoms: O_4  and  N_7
REMARK    2  A    between atoms: O_4  and  C_24
REMARK    3  A    between atoms: C_8  and  C_9
REMARK    4  A    between atoms: C_10  and  C_20
REMARK    5  A    between atoms: C_24  and  C_25
REMARK                            x       y       z     vdW  Elec       q    Type
REMARK                         _______ _______ _______ _____ _____    ______ ____
ROOT
ATOM      1  S   UNL     1      -0.415  -0.861 -50.879  0.00  0.00    +0.000 S 
ATOM      2  N   UNL     1      -2.417   0.755 -50.851  0.00  0.00    +0.000 N 
ATOM      3  N   UNL     1      -3.097  -1.230 -51.602  0.00  0.00    +0.000 NA
ATOM      4  C   UNL     1      -4.163  -0.341 -51.574  0.00  0.00    +0.000 A 
ATOM      5  C   UNL     1      -3.753   0.926 -51.126  0.00  0.00    +0.000 A 
ATOM      6  C   UNL     1      -2.092  -0.526 -51.170  0.00  0.00    +0.000 A 
ATOM      7  C   UNL     1      -1.367   1.501 -50.349  0.00  0.00    +0.000 A 
ATOM      8  C   UNL     1      -0.220   0.804 -50.318  0.00  0.00    +0.000 A 
ENDROOT
BRANCH   4   9
ATOM      9  C   UNL     1      -5.497  -0.735 -52.048  0.00  0.00    +0.000 A 
ATOM     10  C   UNL     1      -5.824  -0.799 -53.444  0.00  0.00    +0.000 A 
ATOM     11  C   UNL     1      -7.162  -1.105 -53.814  0.00  0.00    +0.000 A 
ATOM     12  C   UNL     1      -6.504  -0.975 -51.094  0.00  0.00    +0.000 A 
ATOM     13  C   UNL     1      -4.914  -0.571 -54.511  0.00  0.00    +0.000 A 
ATOM     14  C   UNL     1      -8.125  -1.363 -52.830  0.00  0.00    +0.000 A 
ATOM     15  C   UNL     1      -7.799  -1.301 -51.480  0.00  0.00    +0.000 A 
ATOM     16  C   UNL     1      -7.543  -1.139 -55.168  0.00  0.00    +0.000 A 
ATOM     17  C   UNL     1      -5.309  -0.601 -55.854  0.00  0.00    +0.000 A 
ATOM     18  C   UNL     1      -6.626  -0.880 -56.182  0.00  0.00    +0.000 A 
ENDBRANCH   4   9
BRANCH   5  20
ATOM     19  N   UNL     1      -4.757   3.056 -51.827  0.00  0.00    +0.000 NA
ATOM     20  C   UNL     1      -4.505   2.140 -50.935  0.00  0.00    +0.000 C 
BRANCH  19  21
ATOM     21  O   UNL     1      -4.362   2.652 -53.109  0.00  0.00    +0.000 OA
BRANCH  21  22
ATOM     22  C   UNL     1      -5.308   3.086 -54.086  0.00  0.00    +0.000 C 
BRANCH  22  25
ATOM     23 CL   UNL     1      -3.102   4.853 -58.476  0.00  0.00    +0.000 Cl
ATOM     24 CL   UNL     1      -2.691   7.710 -56.974  0.00  0.00    +0.000 Cl
ATOM     25  C   UNL     1      -4.681   4.223 -54.853  0.00  0.00    +0.000 A 
ATOM     26  C   UNL     1      -4.235   4.064 -56.173  0.00  0.00    +0.000 A 
ATOM     27  C   UNL     1      -4.513   5.468 -54.228  0.00  0.00    +0.000 A 
ATOM     28  C   UNL     1      -3.627   5.128 -56.851  0.00  0.00    +0.000 A 
ATOM     29  C   UNL     1      -3.911   6.530 -54.902  0.00  0.00    +0.000 A 
ATOM     30  C   UNL     1      -3.457   6.363 -56.212  0.00  0.00    +0.000 A 
ENDBRANCH  22  25
ENDBRANCH  21  22
ENDBRANCH  19  21
ENDBRANCH   5  20
TORSDOF 5
ENDMDL
MODEL 4
REMARK VINA RESULT:      -6.0      1.486      2.696
REMARK  Name = 155269229
REMARK  5 active torsions:
REMARK  status: ('A' for Active; 'I' for Inactive)
REMARK    1  A    between atoms: O_4  and  N_7
REMARK    2  A    between atoms: O_4  and  C_24
REMARK    3  A    between atoms: C_8  and  C_9
REMARK    4  A    between atoms: C_10  and  C_20
REMARK    5  A    between atoms: C_24  and  C_25
REMARK                            x       y       z     vdW  Elec       q    Type
REMARK                         _______ _______ _______ _____ _____    ______ ____
ROOT
ATOM      1  S   UNL     1     -26.839   9.337 -54.912  0.00  0.00    +0.000 S 
ATOM      2  N   UNL     1     -24.920   8.386 -53.485  0.00  0.00    +0.000 N 
ATOM      3  N   UNL     1     -24.736   7.603 -55.563  0.00  0.00    +0.000 NA
ATOM      4  C   UNL     1     -23.707   7.106 -54.774  0.00  0.00    +0.000 A 
ATOM      5  C   UNL     1     -23.816   7.568 -53.452  0.00  0.00    +0.000 A 
ATOM      6  C   UNL     1     -25.423   8.347 -54.748  0.00  0.00    +0.000 A 
ATOM      7  C   UNL     1     -25.616   9.210 -52.619  0.00  0.00    +0.000 A 
ATOM      8  C   UNL     1     -26.682   9.776 -53.207  0.00  0.00    +0.000 A 
ENDROOT
BRANCH   4   9
ATOM      9  C   UNL     1     -22.722   6.159 -55.313  0.00  0.00    +0.000 A 
ATOM     10  C   UNL     1     -21.368   6.541 -55.597  0.00  0.00    +0.000 A 
ATOM     11  C   UNL     1     -20.504   5.585 -56.199  0.00  0.00    +0.000 A 
ATOM     12  C   UNL     1     -23.151   4.857 -55.637  0.00  0.00    +0.000 A 
ATOM     13  C   UNL     1     -20.804   7.819 -55.334  0.00  0.00    +0.000 A 
ATOM     14  C   UNL     1     -20.968   4.293 -56.478  0.00  0.00    +0.000 A 
ATOM     15  C   UNL     1     -22.279   3.929 -56.197  0.00  0.00    +0.000 A 
ATOM     16  C   UNL     1     -19.181   5.924 -56.534  0.00  0.00    +0.000 A 
ATOM     17  C   UNL     1     -19.488   8.144 -55.681  0.00  0.00    +0.000 A 
ATOM     18  C   UNL     1     -18.677   7.198 -56.286  0.00  0.00    +0.000 A 
ENDBRANCH   4   9
BRANCH   5  20
ATOM     19  N   UNL     1     -23.287   6.610 -51.252  0.00  0.00    +0.000 NA
ATOM     20  C   UNL     1     -22.984   7.320 -52.301  0.00  0.00    +0.000 C 
BRANCH  19  21
ATOM     21  O   UNL     1     -24.496   5.922 -51.424  0.00  0.00    +0.000 OA
BRANCH  21  22
ATOM     22  C   UNL     1     -25.212   5.849 -50.191  0.00  0.00    +0.000 C 
BRANCH  22  25
ATOM     23 CL   UNL     1     -25.961   2.326 -46.412  0.00  0.00    +0.000 Cl
ATOM     24 CL   UNL     1     -24.980   0.044 -48.514  0.00  0.00    +0.000 Cl
ATOM     25  C   UNL     1     -25.200   4.409 -49.742  0.00  0.00    +0.000 A 
ATOM     26  C   UNL     1     -25.558   4.041 -48.438  0.00  0.00    +0.000 A 
ATOM     27  C   UNL     1     -24.799   3.409 -50.641  0.00  0.00    +0.000 A 
ATOM     28  C   UNL     1     -25.507   2.700 -48.038  0.00  0.00    +0.000 A 
ATOM     29  C   UNL     1     -24.750   2.072 -50.247  0.00  0.00    +0.000 A 
ATOM     30  C   UNL     1     -25.095   1.712 -48.943  0.00  0.00    +0.000 A 
ENDBRANCH  22  25
ENDBRANCH  21  22
ENDBRANCH  19  21
ENDBRANCH   5  20
TORSDOF 5
ENDMDL
MODEL 5
REMARK VINA RESULT:      -5.9     18.077     20.963
REMARK  Name = 155269229
REMARK  5 active torsions:
REMARK  status: ('A' for Active; 'I' for Inactive)
REMARK    1  A    between atoms: O_4  and  N_7
REMARK    2  A    between atoms: O_4  and  C_24
REMARK    3  A    between atoms: C_8  and  C_9
REMARK    4  A    between atoms: C_10  and  C_20
REMARK    5  A    between atoms: C_24  and  C_25
REMARK                            x       y       z     vdW  Elec       q    Type
REMARK                         _______ _______ _______ _____ _____    ______ ____
ROOT
ATOM      1  S   UNL     1      -7.102  -4.883 -48.048  0.00  0.00    +0.000 S 
ATOM      2  N   UNL     1      -6.369  -4.995 -50.512  0.00  0.00    +0.000 N 
ATOM      3  N   UNL     1      -7.195  -2.969 -50.093  0.00  0.00    +0.000 NA
ATOM      4  C   UNL     1      -6.789  -3.052 -51.418  0.00  0.00    +0.000 A 
ATOM      5  C   UNL     1      -6.286  -4.331 -51.712  0.00  0.00    +0.000 A 
ATOM      6  C   UNL     1      -6.929  -4.146 -49.610  0.00  0.00    +0.000 A 
ATOM      7  C   UNL     1      -6.040  -6.237 -49.999  0.00  0.00    +0.000 A 
ATOM      8  C   UNL     1      -6.384  -6.358 -48.707  0.00  0.00    +0.000 A 
ENDROOT
BRANCH   4   9
ATOM      9  C   UNL     1      -6.974  -1.927 -52.345  0.00  0.00    +0.000 A 
ATOM     10  C   UNL     1      -6.221  -0.711 -52.232  0.00  0.00    +0.000 A 
ATOM     11  C   UNL     1      -6.524   0.360 -53.116  0.00  0.00    +0.000 A 
ATOM     12  C   UNL     1      -7.984  -2.023 -53.322  0.00  0.00    +0.000 A 
ATOM     13  C   UNL     1      -5.184  -0.473 -51.290  0.00  0.00    +0.000 A 
ATOM     14  C   UNL     1      -7.519   0.210 -54.091  0.00  0.00    +0.000 A 
ATOM     15  C   UNL     1      -8.243  -0.973 -54.196  0.00  0.00    +0.000 A 
ATOM     16  C   UNL     1      -5.843   1.586 -53.019  0.00  0.00    +0.000 A 
ATOM     17  C   UNL     1      -4.520   0.756 -51.199  0.00  0.00    +0.000 A 
ATOM     18  C   UNL     1      -4.853   1.788 -52.061  0.00  0.00    +0.000 A 
ENDBRANCH   4   9
BRANCH   5  20
ATOM     19  N   UNL     1      -4.673  -4.490 -53.559  0.00  0.00    +0.000 NA
ATOM     20  C   UNL     1      -5.755  -4.868 -52.940  0.00  0.00    +0.000 C 
BRANCH  19  21
ATOM     21  O   UNL     1      -3.931  -3.581 -52.794  0.00  0.00    +0.000 OA
BRANCH  21  22
ATOM     22  C   UNL     1      -2.709  -3.250 -53.455  0.00  0.00    +0.000 C 
BRANCH  22  25
ATOM     23 CL   UNL     1      -5.077   0.019 -56.767  0.00  0.00    +0.000 Cl
ATOM     24 CL   UNL     1      -3.083   2.355 -55.693  0.00  0.00    +0.000 Cl
ATOM     25  C   UNL     1      -2.858  -1.857 -54.016  0.00  0.00    +0.000 A 
ATOM     26  C   UNL     1      -3.798  -1.562 -55.012  0.00  0.00    +0.000 A 
ATOM     27  C   UNL     1      -2.020  -0.832 -53.551  0.00  0.00    +0.000 A 
ATOM     28  C   UNL     1      -3.893  -0.267 -55.538  0.00  0.00    +0.000 A 
ATOM     29  C   UNL     1      -2.114   0.458 -54.071  0.00  0.00    +0.000 A 
ATOM     30  C   UNL     1      -3.044   0.745 -55.072  0.00  0.00    +0.000 A 
ENDBRANCH  22  25
ENDBRANCH  21  22
ENDBRANCH  19  21
ENDBRANCH   5  20
TORSDOF 5
ENDMDL
MODEL 6
REMARK VINA RESULT:      -5.9      3.542      4.929
REMARK  Name = 155269229
REMARK  5 active torsions:
REMARK  status: ('A' for Active; 'I' for Inactive)
REMARK    1  A    between atoms: O_4  and  N_7
REMARK    2  A    between atoms: O_4  and  C_24
REMARK    3  A    between atoms: C_8  and  C_9
REMARK    4  A    between atoms: C_10  and  C_20
REMARK    5  A    between atoms: C_24  and  C_25
REMARK                            x       y       z     vdW  Elec       q    Type
REMARK                         _______ _______ _______ _____ _____    ______ ____
ROOT
ATOM      1  S   UNL     1     -25.269  11.308 -53.591  0.00  0.00    +0.000 S 
ATOM      2  N   UNL     1     -23.760   9.558 -52.459  0.00  0.00    +0.000 N 
ATOM      3  N   UNL     1     -24.030   9.007 -54.601  0.00  0.00    +0.000 NA
ATOM      4  C   UNL     1     -23.214   8.078 -53.969  0.00  0.00    +0.000 A 
ATOM      5  C   UNL     1     -23.049   8.392 -52.610  0.00  0.00    +0.000 A 
ATOM      6  C   UNL     1     -24.326   9.853 -53.660  0.00  0.00    +0.000 A 
ATOM      7  C   UNL     1     -24.031  10.475 -51.460  0.00  0.00    +0.000 A 
ATOM      8  C   UNL     1     -24.841  11.459 -51.882  0.00  0.00    +0.000 A 
ENDROOT
BRANCH   4   9
ATOM      9  C   UNL     1     -22.700   6.902 -54.686  0.00  0.00    +0.000 A 
ATOM     10  C   UNL     1     -21.389   6.873 -55.268  0.00  0.00    +0.000 A 
ATOM     11  C   UNL     1     -21.004   5.729 -56.018  0.00  0.00    +0.000 A 
ATOM     12  C   UNL     1     -23.561   5.803 -54.875  0.00  0.00    +0.000 A 
ATOM     13  C   UNL     1     -20.424   7.911 -55.167  0.00  0.00    +0.000 A 
ATOM     14  C   UNL     1     -21.884   4.647 -56.156  0.00  0.00    +0.000 A 
ATOM     15  C   UNL     1     -23.152   4.682 -55.587  0.00  0.00    +0.000 A 
ATOM     16  C   UNL     1     -19.746   5.670 -56.643  0.00  0.00    +0.000 A 
ATOM     17  C   UNL     1     -19.177   7.842 -55.801  0.00  0.00    +0.000 A 
ATOM     18  C   UNL     1     -18.840   6.722 -56.543  0.00  0.00    +0.000 A 
ENDBRANCH   4   9
BRANCH   5  20
ATOM     19  N   UNL     1     -22.772   7.068 -50.558  0.00  0.00    +0.000 NA
ATOM     20  C   UNL     1     -22.296   7.723 -51.579  0.00  0.00    +0.000 C 
BRANCH  19  21
ATOM     21  O   UNL     1     -24.161   6.911 -50.648  0.00  0.00    +0.000 OA
BRANCH  21  22
ATOM     22  C   UNL     1     -24.668   6.256 -49.485  0.00  0.00    +0.000 C 
BRANCH  22  25
ATOM     23 CL   UNL     1     -25.051  11.123 -47.637  0.00  0.00    +0.000 Cl
ATOM     24 CL   UNL     1     -23.967   9.995 -44.785  0.00  0.00    +0.000 Cl
ATOM     25  C   UNL     1     -24.539   7.216 -48.328  0.00  0.00    +0.000 A 
ATOM     26  C   UNL     1     -24.832   8.579 -48.468  0.00  0.00    +0.000 A 
ATOM     27  C   UNL     1     -24.091   6.743 -47.085  0.00  0.00    +0.000 A 
ATOM     28  C   UNL     1     -24.672   9.455 -47.386  0.00  0.00    +0.000 A 
ATOM     29  C   UNL     1     -23.934   7.612 -46.006  0.00  0.00    +0.000 A 
ATOM     30  C   UNL     1     -24.215   8.971 -46.153  0.00  0.00    +0.000 A 
ENDBRANCH  22  25
ENDBRANCH  21  22
ENDBRANCH  19  21
ENDBRANCH   5  20
TORSDOF 5
ENDMDL
MODEL 7
REMARK VINA RESULT:      -5.8      1.503      2.554
REMARK  Name = 155269229
REMARK  5 active torsions:
REMARK  status: ('A' for Active; 'I' for Inactive)
REMARK    1  A    between atoms: O_4  and  N_7
REMARK    2  A    between atoms: O_4  and  C_24
REMARK    3  A    between atoms: C_8  and  C_9
REMARK    4  A    between atoms: C_10  and  C_20
REMARK    5  A    between atoms: C_24  and  C_25
REMARK                            x       y       z     vdW  Elec       q    Type
REMARK                         _______ _______ _______ _____ _____    ______ ____
ROOT
ATOM      1  S   UNL     1     -27.488   8.689 -54.898  0.00  0.00    +0.000 S 
ATOM      2  N   UNL     1     -25.495   7.922 -53.463  0.00  0.00    +0.000 N 
ATOM      3  N   UNL     1     -25.251   7.123 -55.528  0.00  0.00    +0.000 NA
ATOM      4  C   UNL     1     -24.184   6.725 -54.735  0.00  0.00    +0.000 A 
ATOM      5  C   UNL     1     -24.328   7.197 -53.420  0.00  0.00    +0.000 A 
ATOM      6  C   UNL     1     -25.995   7.822 -54.723  0.00  0.00    +0.000 A 
ATOM      7  C   UNL     1     -26.255   8.699 -52.608  0.00  0.00    +0.000 A 
ATOM      8  C   UNL     1     -27.365   9.167 -53.200  0.00  0.00    +0.000 A 
ENDROOT
BRANCH   4   9
ATOM      9  C   UNL     1     -23.125   5.853 -55.263  0.00  0.00    +0.000 A 
ATOM     10  C   UNL     1     -21.801   6.334 -55.533  0.00  0.00    +0.000 A 
ATOM     11  C   UNL     1     -20.862   5.445 -56.124  0.00  0.00    +0.000 A 
ATOM     12  C   UNL     1     -23.454   4.523 -55.590  0.00  0.00    +0.000 A 
ATOM     13  C   UNL     1     -21.336   7.650 -55.264  0.00  0.00    +0.000 A 
ATOM     14  C   UNL     1     -21.226   4.122 -56.407  0.00  0.00    +0.000 A 
ATOM     15  C   UNL     1     -22.510   3.662 -56.140  0.00  0.00    +0.000 A 
ATOM     16  C   UNL     1     -19.564   5.881 -56.445  0.00  0.00    +0.000 A 
ATOM     17  C   UNL     1     -20.043   8.072 -55.597  0.00  0.00    +0.000 A 
ATOM     18  C   UNL     1     -19.158   7.188 -56.192  0.00  0.00    +0.000 A 
ENDBRANCH   4   9
BRANCH   5  20
ATOM     19  N   UNL     1     -23.725   6.333 -51.200  0.00  0.00    +0.000 NA
ATOM     20  C   UNL     1     -23.476   7.035 -52.268  0.00  0.00    +0.000 C 
BRANCH  19  21
ATOM     21  O   UNL     1     -24.885   5.560 -51.348  0.00  0.00    +0.000 OA
BRANCH  21  22
ATOM     22  C   UNL     1     -24.858   4.440 -50.463  0.00  0.00    +0.000 C 
BRANCH  22  25
ATOM     23 CL   UNL     1     -24.418  -0.743 -50.914  0.00  0.00    +0.000 Cl
ATOM     24 CL   UNL     1     -25.434  -0.437 -53.990  0.00  0.00    +0.000 Cl
ATOM     25  C   UNL     1     -25.019   3.195 -51.298  0.00  0.00    +0.000 A 
ATOM     26  C   UNL     1     -24.702   1.925 -50.796  0.00  0.00    +0.000 A 
ATOM     27  C   UNL     1     -25.475   3.305 -52.621  0.00  0.00    +0.000 A 
ATOM     28  C   UNL     1     -24.831   0.789 -51.604  0.00  0.00    +0.000 A 
ATOM     29  C   UNL     1     -25.608   2.175 -53.427  0.00  0.00    +0.000 A 
ATOM     30  C   UNL     1     -25.278   0.914 -52.927  0.00  0.00    +0.000 A 
ENDBRANCH  22  25
ENDBRANCH  21  22
ENDBRANCH  19  21
ENDBRANCH   5  20
TORSDOF 5
ENDMDL
MODEL 8
REMARK VINA RESULT:      -5.8     18.015     20.259
REMARK  Name = 155269229
REMARK  5 active torsions:
REMARK  status: ('A' for Active; 'I' for Inactive)
REMARK    1  A    between atoms: O_4  and  N_7
REMARK    2  A    between atoms: O_4  and  C_24
REMARK    3  A    between atoms: C_8  and  C_9
REMARK    4  A    between atoms: C_10  and  C_20
REMARK    5  A    between atoms: C_24  and  C_25
REMARK                            x       y       z     vdW  Elec       q    Type
REMARK                         _______ _______ _______ _____ _____    ______ ____
ROOT
ATOM      1  S   UNL     1      -0.164  -0.896 -57.497  0.00  0.00    +0.000 S 
ATOM      2  N   UNL     1      -2.669  -0.466 -57.901  0.00  0.00    +0.000 N 
ATOM      3  N   UNL     1      -2.034   0.620 -56.062  0.00  0.00    +0.000 NA
ATOM      4  C   UNL     1      -3.383   0.840 -56.303  0.00  0.00    +0.000 A 
ATOM      5  C   UNL     1      -3.812   0.145 -57.446  0.00  0.00    +0.000 A 
ATOM      6  C   UNL     1      -1.667  -0.162 -57.033  0.00  0.00    +0.000 A 
ATOM      7  C   UNL     1      -2.281  -1.262 -58.964  0.00  0.00    +0.000 A 
ATOM      8  C   UNL     1      -0.985  -1.605 -58.893  0.00  0.00    +0.000 A 
ENDROOT
BRANCH   4   9
ATOM      9  C   UNL     1      -4.201   1.643 -55.384  0.00  0.00    +0.000 A 
ATOM     10  C   UNL     1      -4.129   3.076 -55.348  0.00  0.00    +0.000 A 
ATOM     11  C   UNL     1      -4.890   3.771 -54.369  0.00  0.00    +0.000 A 
ATOM     12  C   UNL     1      -5.017   0.973 -54.452  0.00  0.00    +0.000 A 
ATOM     13  C   UNL     1      -3.342   3.880 -56.217  0.00  0.00    +0.000 A 
ATOM     14  C   UNL     1      -5.710   3.063 -53.481  0.00  0.00    +0.000 A 
ATOM     15  C   UNL     1      -5.776   1.675 -53.523  0.00  0.00    +0.000 A 
ATOM     16  C   UNL     1      -4.822   5.171 -54.267  0.00  0.00    +0.000 A 
ATOM     17  C   UNL     1      -3.278   5.273 -56.100  0.00  0.00    +0.000 A 
ATOM     18  C   UNL     1      -4.015   5.919 -55.120  0.00  0.00    +0.000 A 
ENDBRANCH   4   9
BRANCH   5  20
ATOM     19  N   UNL     1      -6.017  -0.840 -57.901  0.00  0.00    +0.000 NA
ATOM     20  C   UNL     1      -5.110   0.079 -58.070  0.00  0.00    +0.000 C 
BRANCH  19  21
ATOM     21  O   UNL     1      -5.674  -1.719 -56.865  0.00  0.00    +0.000 OA
BRANCH  21  22
ATOM     22  C   UNL     1      -6.764  -2.594 -56.568  0.00  0.00    +0.000 C 
BRANCH  22  25
ATOM     23 CL   UNL     1      -6.562  -4.542 -51.728  0.00  0.00    +0.000 Cl
ATOM     24 CL   UNL     1      -8.216  -1.922 -50.736  0.00  0.00    +0.000 Cl
ATOM     25  C   UNL     1      -7.077  -2.449 -55.099  0.00  0.00    +0.000 A 
ATOM     26  C   UNL     1      -6.713  -3.431 -54.168  0.00  0.00    +0.000 A 
ATOM     27  C   UNL     1      -7.773  -1.316 -54.650  0.00  0.00    +0.000 A 
ATOM     28  C   UNL     1      -7.044  -3.287 -52.816  0.00  0.00    +0.000 A 
ATOM     29  C   UNL     1      -8.102  -1.168 -53.303  0.00  0.00    +0.000 A 
ATOM     30  C   UNL     1      -7.748  -2.155 -52.382  0.00  0.00    +0.000 A 
ENDBRANCH  22  25
ENDBRANCH  21  22
ENDBRANCH  19  21
ENDBRANCH   5  20
TORSDOF 5
ENDMDL
MODEL 9
REMARK VINA RESULT:      -5.6      3.734      6.930
REMARK  Name = 155269229
REMARK  5 active torsions:
REMARK  status: ('A' for Active; 'I' for Inactive)
REMARK    1  A    between atoms: O_4  and  N_7
REMARK    2  A    between atoms: O_4  and  C_24
REMARK    3  A    between atoms: C_8  and  C_9
REMARK    4  A    between atoms: C_10  and  C_20
REMARK    5  A    between atoms: C_24  and  C_25
REMARK                            x       y       z     vdW  Elec       q    Type
REMARK                         _______ _______ _______ _____ _____    ______ ____
ROOT
ATOM      1  S   UNL     1     -18.653   8.161 -56.592  0.00  0.00    +0.000 S 
ATOM      2  N   UNL     1     -21.099   8.921 -56.350  0.00  0.00    +0.000 N 
ATOM      3  N   UNL     1     -20.774   7.112 -55.091  0.00  0.00    +0.000 NA
ATOM      4  C   UNL     1     -22.088   7.544 -54.974  0.00  0.00    +0.000 A 
ATOM      5  C   UNL     1     -22.323   8.670 -55.779  0.00  0.00    +0.000 A 
ATOM      6  C   UNL     1     -20.240   7.959 -55.920  0.00  0.00    +0.000 A 
ATOM      7  C   UNL     1     -20.531   9.854 -57.199  0.00  0.00    +0.000 A 
ATOM      8  C   UNL     1     -19.241   9.588 -57.454  0.00  0.00    +0.000 A 
ENDROOT
BRANCH   4   9
ATOM      9  C   UNL     1     -23.062   6.808 -54.155  0.00  0.00    +0.000 A 
ATOM     10  C   UNL     1     -23.113   6.936 -52.727  0.00  0.00    +0.000 A 
ATOM     11  C   UNL     1     -24.029   6.123 -52.004  0.00  0.00    +0.000 A 
ATOM     12  C   UNL     1     -23.914   5.887 -54.794  0.00  0.00    +0.000 A 
ATOM     13  C   UNL     1     -22.308   7.814 -51.953  0.00  0.00    +0.000 A 
ATOM     14  C   UNL     1     -24.876   5.240 -52.685  0.00  0.00    +0.000 A 
ATOM     15  C   UNL     1     -24.823   5.123 -54.069  0.00  0.00    +0.000 A 
ATOM     16  C   UNL     1     -24.087   6.181 -50.601  0.00  0.00    +0.000 A 
ATOM     17  C   UNL     1     -22.372   7.857 -50.555  0.00  0.00    +0.000 A 
ATOM     18  C   UNL     1     -23.259   7.036 -49.878  0.00  0.00    +0.000 A 
ENDBRANCH   4   9
BRANCH   5  20
ATOM     19  N   UNL     1     -24.059  10.283 -55.127  0.00  0.00    +0.000 NA
ATOM     20  C   UNL     1     -23.520   9.450 -55.972  0.00  0.00    +0.000 C 
BRANCH  19  21
ATOM     21  O   UNL     1     -23.232  10.502 -54.018  0.00  0.00    +0.000 OA
BRANCH  21  22
ATOM     22  C   UNL     1     -23.173  11.893 -53.703  0.00  0.00    +0.000 C 
BRANCH  22  25
ATOM     23 CL   UNL     1     -25.349   9.844 -49.422  0.00  0.00    +0.000 Cl
ATOM     24 CL   UNL     1     -24.978  12.743 -47.994  0.00  0.00    +0.000 Cl
ATOM     25  C   UNL     1     -23.607  12.053 -52.267  0.00  0.00    +0.000 A 
ATOM     26  C   UNL     1     -24.201  11.002 -51.555  0.00  0.00    +0.000 A 
ATOM     27  C   UNL     1     -23.436  13.291 -51.628  0.00  0.00    +0.000 A 
ATOM     28  C   UNL     1     -24.623  11.188 -50.233  0.00  0.00    +0.000 A 
ATOM     29  C   UNL     1     -23.854  13.478 -50.310  0.00  0.00    +0.000 A 
ATOM     30  C   UNL     1     -24.456  12.432 -49.610  0.00  0.00    +0.000 A 
ENDBRANCH  22  25
ENDBRANCH  21  22
ENDBRANCH  19  21
ENDBRANCH   5  20
TORSDOF 5
ENDMDL
MODEL 10
REMARK VINA RESULT:      -5.5      2.102      3.134
REMARK  Name = 155269229
REMARK  5 active torsions:
REMARK  status: ('A' for Active; 'I' for Inactive)
REMARK    1  A    between atoms: O_4  and  N_7
REMARK    2  A    between atoms: O_4  and  C_24
REMARK    3  A    between atoms: C_8  and  C_9
REMARK    4  A    between atoms: C_10  and  C_20
REMARK    5  A    between atoms: C_24  and  C_25
REMARK                            x       y       z     vdW  Elec       q    Type
REMARK                         _______ _______ _______ _____ _____    ______ ____
ROOT
ATOM      1  S   UNL     1     -26.329  10.306 -53.036  0.00  0.00    +0.000 S 
ATOM      2  N   UNL     1     -24.534   8.729 -52.081  0.00  0.00    +0.000 N 
ATOM      3  N   UNL     1     -24.784   8.311 -54.255  0.00  0.00    +0.000 NA
ATOM      4  C   UNL     1     -23.815   7.474 -53.718  0.00  0.00    +0.000 A 
ATOM      5  C   UNL     1     -23.658   7.703 -52.341  0.00  0.00    +0.000 A 
ATOM      6  C   UNL     1     -25.176   9.025 -53.242  0.00  0.00    +0.000 A 
ATOM      7  C   UNL     1     -24.911   9.512 -51.005  0.00  0.00    +0.000 A 
ATOM      8  C   UNL     1     -25.875  10.387 -51.329  0.00  0.00    +0.000 A 
ENDROOT
BRANCH   4   9
ATOM      9  C   UNL     1     -23.150   6.452 -54.538  0.00  0.00    +0.000 A 
ATOM     10  C   UNL     1     -21.834   6.641 -55.078  0.00  0.00    +0.000 A 
ATOM     11  C   UNL     1     -21.300   5.638 -55.933  0.00  0.00    +0.000 A 
ATOM     12  C   UNL     1     -23.868   5.286 -54.869  0.00  0.00    +0.000 A 
ATOM     13  C   UNL     1     -21.004   7.769 -54.838  0.00  0.00    +0.000 A 
ATOM     14  C   UNL     1     -22.041   4.482 -56.212  0.00  0.00    +0.000 A 
ATOM     15  C   UNL     1     -23.314   4.305 -55.683  0.00  0.00    +0.000 A 
ATOM     16  C   UNL     1     -20.032   5.797 -56.520  0.00  0.00    +0.000 A 
ATOM     17  C   UNL     1     -19.746   7.916 -55.436  0.00  0.00    +0.000 A 
ATOM     18  C   UNL     1     -19.263   6.932 -56.281  0.00  0.00    +0.000 A 
ENDBRANCH   4   9
BRANCH   5  20
ATOM     19  N   UNL     1     -23.123   6.382 -50.339  0.00  0.00    +0.000 NA
ATOM     20  C   UNL     1     -22.779   7.081 -51.383  0.00  0.00    +0.000 C 
BRANCH  19  21
ATOM     21  O   UNL     1     -24.500   6.122 -50.323  0.00  0.00    +0.000 OA
BRANCH  21  22
ATOM     22  C   UNL     1     -24.746   4.716 -50.345  0.00  0.00    +0.000 C 
BRANCH  22  25
ATOM     23 CL   UNL     1     -28.243   6.242 -53.908  0.00  0.00    +0.000 Cl
ATOM     24 CL   UNL     1     -27.979   3.291 -55.253  0.00  0.00    +0.000 Cl
ATOM     25  C   UNL     1     -25.545   4.412 -51.588  0.00  0.00    +0.000 A 
ATOM     26  C   UNL     1     -26.424   5.351 -52.145  0.00  0.00    +0.000 A 
ATOM     27  C   UNL     1     -25.429   3.152 -52.193  0.00  0.00    +0.000 A 
ATOM     28  C   UNL     1     -27.179   5.032 -53.281  0.00  0.00    +0.000 A 
ATOM     29  C   UNL     1     -26.177   2.832 -53.326  0.00  0.00    +0.000 A 
ATOM     30  C   UNL     1     -27.061   3.766 -53.870  0.00  0.00    +0.000 A 
ENDBRANCH  22  25
ENDBRANCH  21  22
ENDBRANCH  19  21
ENDBRANCH   5  20
TORSDOF 5
ENDMDL
