MODEL 1
REMARK VINA RESULT:      -6.1      0.000      0.000
REMARK  Name = 155269219
REMARK  6 active torsions:
REMARK  status: ('A' for Active; 'I' for Inactive)
REMARK    1  A    between atoms: O_7  and  N_10
REMARK    2  A    between atoms: O_7  and  C_25
REMARK    3  A    between atoms: C_11  and  C_13
REMARK    4  A    between atoms: C_12  and  C_18
REMARK    5  A    between atoms: C_19  and  C_23
REMARK    6  A    between atoms: C_24  and  C_25
REMARK                            x       y       z     vdW  Elec       q    Type
REMARK                         _______ _______ _______ _____ _____    ______ ____
ROOT
ATOM      1  S   UNL     1       9.999  15.707  21.194  0.00  0.00    +0.000 S 
ATOM      2  N   UNL     1      10.520  13.618  22.597  0.00  0.00    +0.000 N 
ATOM      3  N   UNL     1      12.027  13.780  20.956  0.00  0.00    +0.000 NA
ATOM      4  C   UNL     1      12.269  12.655  21.732  0.00  0.00    +0.000 A 
ATOM      5  C   UNL     1      11.335  12.526  22.767  0.00  0.00    +0.000 A 
ATOM      6  C   UNL     1      10.961  14.293  21.499  0.00  0.00    +0.000 A 
ATOM      7  C   UNL     1       9.448  14.201  23.246  0.00  0.00    +0.000 A 
ATOM      8  C   UNL     1       9.029  15.313  22.621  0.00  0.00    +0.000 A 
ENDROOT
BRANCH   4   9
ATOM      9  C   UNL     1      13.406  11.778  21.471  0.00  0.00    +0.000 A 
ATOM     10  C   UNL     1      14.181  11.312  22.541  0.00  0.00    +0.000 A 
ATOM     11  C   UNL     1      13.749  11.376  20.173  0.00  0.00    +0.000 A 
ATOM     12  C   UNL     1      15.524   9.954  21.035  0.00  0.00    +0.000 A 
ATOM     13  C   UNL     1      15.229  10.407  22.328  0.00  0.00    +0.000 A 
ATOM     14  C   UNL     1      14.784  10.462  19.958  0.00  0.00    +0.000 A 
BRANCH  12  18
ATOM     15  F   UNL     1      17.844   9.465  20.618  0.00  0.00    +0.000 F 
ATOM     16  F   UNL     1      16.713   8.035  21.803  0.00  0.00    +0.000 F 
ATOM     17  F   UNL     1      16.364   8.188  19.663  0.00  0.00    +0.000 F 
ATOM     18  C   UNL     1      16.602   8.930  20.780  0.00  0.00    +0.000 C 
ENDBRANCH  12  18
ENDBRANCH   4   9
BRANCH   5  20
ATOM     19  N   UNL     1      10.842  10.340  23.772  0.00  0.00    +0.000 NA
ATOM     20  C   UNL     1      11.263  11.570  23.838  0.00  0.00    +0.000 C 
BRANCH  19  21
ATOM     21  O   UNL     1      10.589   9.949  22.451  0.00  0.00    +0.000 OA
BRANCH  21  22
ATOM     22  C   UNL     1      10.661   8.528  22.339  0.00  0.00    +0.000 C 
BRANCH  22  25
ATOM     23 CL   UNL     1      11.491   8.968  17.208  0.00  0.00    +0.000 Cl
ATOM     24 CL   UNL     1      14.088   7.044  17.585  0.00  0.00    +0.000 Cl
ATOM     25  C   UNL     1      11.510   8.207  21.134  0.00  0.00    +0.000 A 
ATOM     26  C   UNL     1      11.180   8.682  19.858  0.00  0.00    +0.000 A 
ATOM     27  C   UNL     1      12.643   7.395  21.283  0.00  0.00    +0.000 A 
ATOM     28  C   UNL     1      11.966   8.343  18.748  0.00  0.00    +0.000 A 
ATOM     29  C   UNL     1      13.429   7.057  20.181  0.00  0.00    +0.000 A 
ATOM     30  C   UNL     1      13.089   7.524  18.910  0.00  0.00    +0.000 A 
ENDBRANCH  22  25
ENDBRANCH  21  22
ENDBRANCH  19  21
ENDBRANCH   5  20
TORSDOF 6
ENDMDL
MODEL 2
REMARK VINA RESULT:      -6.1      2.367      4.054
REMARK  Name = 155269219
REMARK  6 active torsions:
REMARK  status: ('A' for Active; 'I' for Inactive)
REMARK    1  A    between atoms: O_7  and  N_10
REMARK    2  A    between atoms: O_7  and  C_25
REMARK    3  A    between atoms: C_11  and  C_13
REMARK    4  A    between atoms: C_12  and  C_18
REMARK    5  A    between atoms: C_19  and  C_23
REMARK    6  A    between atoms: C_24  and  C_25
REMARK                            x       y       z     vdW  Elec       q    Type
REMARK                         _______ _______ _______ _____ _____    ______ ____
ROOT
ATOM      1  S   UNL     1      10.305  15.893  22.163  0.00  0.00    +0.000 S 
ATOM      2  N   UNL     1      10.721  13.887  23.714  0.00  0.00    +0.000 N 
ATOM      3  N   UNL     1      10.784  13.185  21.595  0.00  0.00    +0.000 NA
ATOM      4  C   UNL     1      10.995  12.126  22.466  0.00  0.00    +0.000 A 
ATOM      5  C   UNL     1      10.956  12.537  23.804  0.00  0.00    +0.000 A 
ATOM      6  C   UNL     1      10.598  14.196  22.394  0.00  0.00    +0.000 A 
ATOM      7  C   UNL     1      10.624  14.964  24.575  0.00  0.00    +0.000 A 
ATOM      8  C   UNL     1      10.383  16.110  23.917  0.00  0.00    +0.000 A 
ENDROOT
BRANCH   4   9
ATOM      9  C   UNL     1      11.263  10.777  21.977  0.00  0.00    +0.000 A 
ATOM     10  C   UNL     1      11.815  10.600  20.701  0.00  0.00    +0.000 A 
ATOM     11  C   UNL     1      10.992   9.641  22.751  0.00  0.00    +0.000 A 
ATOM     12  C   UNL     1      11.947   8.196  21.044  0.00  0.00    +0.000 A 
ATOM     13  C   UNL     1      12.156   9.323  20.238  0.00  0.00    +0.000 A 
ATOM     14  C   UNL     1      11.346   8.368  22.298  0.00  0.00    +0.000 A 
BRANCH  12  18
ATOM     15  F   UNL     1      11.515   5.829  20.998  0.00  0.00    +0.000 F 
ATOM     16  F   UNL     1      12.446   6.713  19.244  0.00  0.00    +0.000 F 
ATOM     17  F   UNL     1      13.593   6.465  21.073  0.00  0.00    +0.000 F 
ATOM     18  C   UNL     1      12.365   6.816  20.601  0.00  0.00    +0.000 C 
ENDBRANCH  12  18
ENDBRANCH   4   9
BRANCH   5  20
ATOM     19  N   UNL     1      12.351  11.589  25.589  0.00  0.00    +0.000 NA
ATOM     20  C   UNL     1      11.203  11.795  25.010  0.00  0.00    +0.000 C 
BRANCH  19  21
ATOM     21  O   UNL     1      13.376  12.325  24.983  0.00  0.00    +0.000 OA
BRANCH  21  22
ATOM     22  C   UNL     1      14.511  11.488  24.755  0.00  0.00    +0.000 C 
BRANCH  22  25
ATOM     23 CL   UNL     1      15.844   8.782  20.500  0.00  0.00    +0.000 Cl
ATOM     24 CL   UNL     1      15.630  11.557  18.814  0.00  0.00    +0.000 Cl
ATOM     25  C   UNL     1      14.765  11.458  23.269  0.00  0.00    +0.000 A 
ATOM     26  C   UNL     1      15.132  10.276  22.612  0.00  0.00    +0.000 A 
ATOM     27  C   UNL     1      14.658  12.642  22.525  0.00  0.00    +0.000 A 
ATOM     28  C   UNL     1      15.396  10.281  21.235  0.00  0.00    +0.000 A 
ATOM     29  C   UNL     1      14.918  12.649  21.154  0.00  0.00    +0.000 A 
ATOM     30  C   UNL     1      15.294  11.471  20.507  0.00  0.00    +0.000 A 
ENDBRANCH  22  25
ENDBRANCH  21  22
ENDBRANCH  19  21
ENDBRANCH   5  20
TORSDOF 6
ENDMDL
MODEL 3
REMARK VINA RESULT:      -5.6     27.692     29.553
REMARK  Name = 155269219
REMARK  6 active torsions:
REMARK  status: ('A' for Active; 'I' for Inactive)
REMARK    1  A    between atoms: O_7  and  N_10
REMARK    2  A    between atoms: O_7  and  C_25
REMARK    3  A    between atoms: C_11  and  C_13
REMARK    4  A    between atoms: C_12  and  C_18
REMARK    5  A    between atoms: C_19  and  C_23
REMARK    6  A    between atoms: C_24  and  C_25
REMARK                            x       y       z     vdW  Elec       q    Type
REMARK                         _______ _______ _______ _____ _____    ______ ____
ROOT
ATOM      1  S   UNL     1     -10.880  -9.468  12.928  0.00  0.00    +0.000 S 
ATOM      2  N   UNL     1      -9.719  -9.429  15.220  0.00  0.00    +0.000 N 
ATOM      3  N   UNL     1      -8.192  -9.845  13.644  0.00  0.00    +0.000 NA
ATOM      4  C   UNL     1      -7.603  -9.827  14.900  0.00  0.00    +0.000 A 
ATOM      5  C   UNL     1      -8.541  -9.573  15.910  0.00  0.00    +0.000 A 
ATOM      6  C   UNL     1      -9.450  -9.633  13.900  0.00  0.00    +0.000 A 
ATOM      7  C   UNL     1     -11.032  -9.106  15.502  0.00  0.00    +0.000 A 
ATOM      8  C   UNL     1     -11.795  -9.102  14.397  0.00  0.00    +0.000 A 
ENDROOT
BRANCH   4   9
ATOM      9  C   UNL     1      -6.166 -10.013  15.073  0.00  0.00    +0.000 A 
ATOM     10  C   UNL     1      -5.589  -9.815  16.335  0.00  0.00    +0.000 A 
ATOM     11  C   UNL     1      -5.336 -10.396  14.012  0.00  0.00    +0.000 A 
ATOM     12  C   UNL     1      -3.414 -10.512  15.498  0.00  0.00    +0.000 A 
ATOM     13  C   UNL     1      -4.227 -10.063  16.548  0.00  0.00    +0.000 A 
ATOM     14  C   UNL     1      -3.980 -10.659  14.224  0.00  0.00    +0.000 A 
BRANCH  12  18
ATOM     15  F   UNL     1      -1.579 -12.027  15.136  0.00  0.00    +0.000 F 
ATOM     16  F   UNL     1      -1.129  -9.900  15.197  0.00  0.00    +0.000 F 
ATOM     17  F   UNL     1      -1.634 -10.956  17.029  0.00  0.00    +0.000 F 
ATOM     18  C   UNL     1      -1.960 -10.852  15.710  0.00  0.00    +0.000 C 
ENDBRANCH  12  18
ENDBRANCH   4   9
BRANCH   5  20
ATOM     19  N   UNL     1      -8.639 -10.228  18.274  0.00  0.00    +0.000 NA
ATOM     20  C   UNL     1      -8.354  -9.386  17.323  0.00  0.00    +0.000 C 
BRANCH  19  21
ATOM     21  O   UNL     1      -9.027 -11.473  17.766  0.00  0.00    +0.000 OA
BRANCH  21  22
ATOM     22  C   UNL     1      -8.301 -12.516  18.417  0.00  0.00    +0.000 C 
BRANCH  22  25
ATOM     23 CL   UNL     1      -6.801 -14.010  13.649  0.00  0.00    +0.000 Cl
ATOM     24 CL   UNL     1      -3.798 -14.391  14.845  0.00  0.00    +0.000 Cl
ATOM     25  C   UNL     1      -7.197 -12.954  17.487  0.00  0.00    +0.000 A 
ATOM     26  C   UNL     1      -7.447 -13.240  16.137  0.00  0.00    +0.000 A 
ATOM     27  C   UNL     1      -5.894 -13.104  17.982  0.00  0.00    +0.000 A 
ATOM     28  C   UNL     1      -6.411 -13.677  15.300  0.00  0.00    +0.000 A 
ATOM     29  C   UNL     1      -4.861 -13.538  17.151  0.00  0.00    +0.000 A 
ATOM     30  C   UNL     1      -5.117 -13.832  15.810  0.00  0.00    +0.000 A 
ENDBRANCH  22  25
ENDBRANCH  21  22
ENDBRANCH  19  21
ENDBRANCH   5  20
TORSDOF 6
ENDMDL
MODEL 4
REMARK VINA RESULT:      -5.5     28.047     29.581
REMARK  Name = 155269219
REMARK  6 active torsions:
REMARK  status: ('A' for Active; 'I' for Inactive)
REMARK    1  A    between atoms: O_7  and  N_10
REMARK    2  A    between atoms: O_7  and  C_25
REMARK    3  A    between atoms: C_11  and  C_13
REMARK    4  A    between atoms: C_12  and  C_18
REMARK    5  A    between atoms: C_19  and  C_23
REMARK    6  A    between atoms: C_24  and  C_25
REMARK                            x       y       z     vdW  Elec       q    Type
REMARK                         _______ _______ _______ _____ _____    ______ ____
ROOT
ATOM      1  S   UNL     1      -5.356  -9.618  10.232  0.00  0.00    +0.000 S 
ATOM      2  N   UNL     1      -3.639 -10.231  12.042  0.00  0.00    +0.000 N 
ATOM      3  N   UNL     1      -5.659 -10.087  12.984  0.00  0.00    +0.000 NA
ATOM      4  C   UNL     1      -4.700 -10.407  13.934  0.00  0.00    +0.000 A 
ATOM      5  C   UNL     1      -3.421 -10.499  13.371  0.00  0.00    +0.000 A 
ATOM      6  C   UNL     1      -4.966  -9.966  11.889  0.00  0.00    +0.000 A 
ATOM      7  C   UNL     1      -2.901 -10.203  10.874  0.00  0.00    +0.000 A 
ATOM      8  C   UNL     1      -3.656  -9.873   9.814  0.00  0.00    +0.000 A 
ENDROOT
BRANCH   4   9
ATOM      9  C   UNL     1      -5.058 -10.650  15.328  0.00  0.00    +0.000 A 
ATOM     10  C   UNL     1      -4.570 -11.790  15.980  0.00  0.00    +0.000 A 
ATOM     11  C   UNL     1      -5.874  -9.767  16.047  0.00  0.00    +0.000 A 
ATOM     12  C   UNL     1      -5.592 -11.086  18.071  0.00  0.00    +0.000 A 
ATOM     13  C   UNL     1      -4.832 -12.007  17.338  0.00  0.00    +0.000 A 
ATOM     14  C   UNL     1      -6.125  -9.972  17.406  0.00  0.00    +0.000 A 
BRANCH  12  18
ATOM     15  F   UNL     1      -6.780 -12.191  19.849  0.00  0.00    +0.000 F 
ATOM     16  F   UNL     1      -4.709 -11.639  20.216  0.00  0.00    +0.000 F 
ATOM     17  F   UNL     1      -6.246 -10.104  20.149  0.00  0.00    +0.000 F 
ATOM     18  C   UNL     1      -5.836 -11.257  19.550  0.00  0.00    +0.000 C 
ENDBRANCH  12  18
ENDBRANCH   4   9
BRANCH   5  20
ATOM     19  N   UNL     1      -1.672 -12.084  14.050  0.00  0.00    +0.000 NA
ATOM     20  C   UNL     1      -2.170 -10.885  13.967  0.00  0.00    +0.000 C 
BRANCH  19  21
ATOM     21  O   UNL     1      -2.433 -13.013  13.329  0.00  0.00    +0.000 OA
BRANCH  21  22
ATOM     22  C   UNL     1      -1.751 -14.266  13.273  0.00  0.00    +0.000 C 
BRANCH  22  25
ATOM     23 CL   UNL     1      -5.797 -15.414  16.358  0.00  0.00    +0.000 Cl
ATOM     24 CL   UNL     1      -4.053 -17.904  17.517  0.00  0.00    +0.000 Cl
ATOM     25  C   UNL     1      -2.372 -15.171  14.308  0.00  0.00    +0.000 A 
ATOM     26  C   UNL     1      -3.661 -14.936  14.808  0.00  0.00    +0.000 A 
ATOM     27  C   UNL     1      -1.641 -16.260  14.803  0.00  0.00    +0.000 A 
ATOM     28  C   UNL     1      -4.204 -15.772  15.793  0.00  0.00    +0.000 A 
ATOM     29  C   UNL     1      -2.180 -17.095  15.782  0.00  0.00    +0.000 A 
ATOM     30  C   UNL     1      -3.459 -16.849  16.285  0.00  0.00    +0.000 A 
ENDBRANCH  22  25
ENDBRANCH  21  22
ENDBRANCH  19  21
ENDBRANCH   5  20
TORSDOF 6
ENDMDL
MODEL 5
REMARK VINA RESULT:      -5.5     28.050     29.696
REMARK  Name = 155269219
REMARK  6 active torsions:
REMARK  status: ('A' for Active; 'I' for Inactive)
REMARK    1  A    between atoms: O_7  and  N_10
REMARK    2  A    between atoms: O_7  and  C_25
REMARK    3  A    between atoms: C_11  and  C_13
REMARK    4  A    between atoms: C_12  and  C_18
REMARK    5  A    between atoms: C_19  and  C_23
REMARK    6  A    between atoms: C_24  and  C_25
REMARK                            x       y       z     vdW  Elec       q    Type
REMARK                         _______ _______ _______ _____ _____    ______ ____
ROOT
ATOM      1  S   UNL     1      -6.250  -9.390   9.856  0.00  0.00    +0.000 S 
ATOM      2  N   UNL     1      -4.076  -9.969  11.096  0.00  0.00    +0.000 N 
ATOM      3  N   UNL     1      -5.779 -10.077  12.536  0.00  0.00    +0.000 NA
ATOM      4  C   UNL     1      -4.583 -10.374  13.173  0.00  0.00    +0.000 A 
ATOM      5  C   UNL     1      -3.495 -10.309  12.293  0.00  0.00    +0.000 A 
ATOM      6  C   UNL     1      -5.411  -9.816  11.315  0.00  0.00    +0.000 A 
ATOM      7  C   UNL     1      -3.678  -9.792   9.784  0.00  0.00    +0.000 A 
ATOM      8  C   UNL     1      -4.709  -9.458   8.990  0.00  0.00    +0.000 A 
ENDROOT
BRANCH   4   9
ATOM      9  C   UNL     1      -4.540 -10.745  14.584  0.00  0.00    +0.000 A 
ATOM     10  C   UNL     1      -5.690 -11.255  15.201  0.00  0.00    +0.000 A 
ATOM     11  C   UNL     1      -3.373 -10.615  15.349  0.00  0.00    +0.000 A 
ATOM     12  C   UNL     1      -4.468 -11.624  17.271  0.00  0.00    +0.000 A 
ATOM     13  C   UNL     1      -5.656 -11.692  16.531  0.00  0.00    +0.000 A 
ATOM     14  C   UNL     1      -3.332 -11.065  16.671  0.00  0.00    +0.000 A 
BRANCH  12  18
ATOM     15  F   UNL     1      -5.414 -11.757  19.481  0.00  0.00    +0.000 F 
ATOM     16  F   UNL     1      -4.376 -13.511  18.726  0.00  0.00    +0.000 F 
ATOM     17  F   UNL     1      -3.245 -11.753  19.319  0.00  0.00    +0.000 F 
ATOM     18  C   UNL     1      -4.382 -12.149  18.683  0.00  0.00    +0.000 C 
ENDBRANCH  12  18
ENDBRANCH   4   9
BRANCH   5  20
ATOM     19  N   UNL     1      -1.560 -11.799  12.551  0.00  0.00    +0.000 NA
ATOM     20  C   UNL     1      -2.108 -10.619  12.507  0.00  0.00    +0.000 C 
BRANCH  19  21
ATOM     21  O   UNL     1      -2.468 -12.805  12.198  0.00  0.00    +0.000 OA
BRANCH  21  22
ATOM     22  C   UNL     1      -2.359 -13.903  13.104  0.00  0.00    +0.000 C 
BRANCH  22  25
ATOM     23 CL   UNL     1      -5.458 -15.843  16.824  0.00  0.00    +0.000 Cl
ATOM     24 CL   UNL     1      -7.976 -15.321  14.830  0.00  0.00    +0.000 Cl
ATOM     25  C   UNL     1      -3.749 -14.240  13.584  0.00  0.00    +0.000 A 
ATOM     26  C   UNL     1      -3.971 -14.809  14.845  0.00  0.00    +0.000 A 
ATOM     27  C   UNL     1      -4.847 -14.002  12.744  0.00  0.00    +0.000 A 
ATOM     28  C   UNL     1      -5.269 -15.143  15.255  0.00  0.00    +0.000 A 
ATOM     29  C   UNL     1      -6.140 -14.332  13.150  0.00  0.00    +0.000 A 
ATOM     30  C   UNL     1      -6.354 -14.910  14.403  0.00  0.00    +0.000 A 
ENDBRANCH  22  25
ENDBRANCH  21  22
ENDBRANCH  19  21
ENDBRANCH   5  20
TORSDOF 6
ENDMDL
MODEL 6
REMARK VINA RESULT:      -5.4     23.831     25.368
REMARK  Name = 155269219
REMARK  6 active torsions:
REMARK  status: ('A' for Active; 'I' for Inactive)
REMARK    1  A    between atoms: O_7  and  N_10
REMARK    2  A    between atoms: O_7  and  C_25
REMARK    3  A    between atoms: C_11  and  C_13
REMARK    4  A    between atoms: C_12  and  C_18
REMARK    5  A    between atoms: C_19  and  C_23
REMARK    6  A    between atoms: C_24  and  C_25
REMARK                            x       y       z     vdW  Elec       q    Type
REMARK                         _______ _______ _______ _____ _____    ______ ____
ROOT
ATOM      1  S   UNL     1     -12.831  16.362  18.898  0.00  0.00    +0.000 S 
ATOM      2  N   UNL     1     -11.146  14.650  17.985  0.00  0.00    +0.000 N 
ATOM      3  N   UNL     1     -12.493  13.629  19.444  0.00  0.00    +0.000 NA
ATOM      4  C   UNL     1     -11.560  12.736  18.935  0.00  0.00    +0.000 A 
ATOM      5  C   UNL     1     -10.698  13.353  18.019  0.00  0.00    +0.000 A 
ATOM      6  C   UNL     1     -12.179  14.752  18.867  0.00  0.00    +0.000 A 
ATOM      7  C   UNL     1     -10.860  15.809  17.288  0.00  0.00    +0.000 A 
ATOM      8  C   UNL     1     -11.650  16.827  17.666  0.00  0.00    +0.000 A 
ENDROOT
BRANCH   4   9
ATOM      9  C   UNL     1     -11.562  11.328  19.318  0.00  0.00    +0.000 A 
ATOM     10  C   UNL     1     -12.593  10.831  20.127  0.00  0.00    +0.000 A 
ATOM     11  C   UNL     1     -10.561  10.445  18.894  0.00  0.00    +0.000 A 
ATOM     12  C   UNL     1     -11.697   8.577  19.960  0.00  0.00    +0.000 A 
ATOM     13  C   UNL     1     -12.663   9.469  20.444  0.00  0.00    +0.000 A 
ATOM     14  C   UNL     1     -10.636   9.082  19.196  0.00  0.00    +0.000 A 
BRANCH  12  18
ATOM     15  F   UNL     1     -11.343   6.322  19.195  0.00  0.00    +0.000 F 
ATOM     16  F   UNL     1     -11.038   6.725  21.310  0.00  0.00    +0.000 F 
ATOM     17  F   UNL     1     -13.051   6.682  20.493  0.00  0.00    +0.000 F 
ATOM     18  C   UNL     1     -11.781   7.094  20.228  0.00  0.00    +0.000 C 
ENDBRANCH  12  18
ENDBRANCH   4   9
BRANCH   5  20
ATOM     19  N   UNL     1      -9.783  12.222  16.040  0.00  0.00    +0.000 NA
ATOM     20  C   UNL     1      -9.655  12.791  17.204  0.00  0.00    +0.000 C 
BRANCH  19  21
ATOM     21  O   UNL     1     -11.087  12.343  15.544  0.00  0.00    +0.000 OA
BRANCH  21  22
ATOM     22  C   UNL     1     -11.445  11.168  14.816  0.00  0.00    +0.000 C 
BRANCH  22  25
ATOM     23 CL   UNL     1     -15.709  11.165  17.821  0.00  0.00    +0.000 Cl
ATOM     24 CL   UNL     1     -15.265   7.968  18.239  0.00  0.00    +0.000 Cl
ATOM     25  C   UNL     1     -12.439  10.399  15.651  0.00  0.00    +0.000 A 
ATOM     26  C   UNL     1     -13.516  11.036  16.280  0.00  0.00    +0.000 A 
ATOM     27  C   UNL     1     -12.272   9.017  15.824  0.00  0.00    +0.000 A 
ATOM     28  C   UNL     1     -14.407  10.305  17.078  0.00  0.00    +0.000 A 
ATOM     29  C   UNL     1     -13.159   8.286  16.616  0.00  0.00    +0.000 A 
ATOM     30  C   UNL     1     -14.224   8.928  17.250  0.00  0.00    +0.000 A 
ENDBRANCH  22  25
ENDBRANCH  21  22
ENDBRANCH  19  21
ENDBRANCH   5  20
TORSDOF 6
ENDMDL
MODEL 7
REMARK VINA RESULT:      -5.3     33.957     36.061
REMARK  Name = 155269219
REMARK  6 active torsions:
REMARK  status: ('A' for Active; 'I' for Inactive)
REMARK    1  A    between atoms: O_7  and  N_10
REMARK    2  A    between atoms: O_7  and  C_25
REMARK    3  A    between atoms: C_11  and  C_13
REMARK    4  A    between atoms: C_12  and  C_18
REMARK    5  A    between atoms: C_19  and  C_23
REMARK    6  A    between atoms: C_24  and  C_25
REMARK                            x       y       z     vdW  Elec       q    Type
REMARK                         _______ _______ _______ _____ _____    ______ ____
ROOT
ATOM      1  S   UNL     1       5.146 -19.205  -1.981  0.00  0.00    +0.000 S 
ATOM      2  N   UNL     1       5.102 -16.745  -1.240  0.00  0.00    +0.000 N 
ATOM      3  N   UNL     1       3.822 -16.974  -3.055  0.00  0.00    +0.000 NA
ATOM      4  C   UNL     1       3.832 -15.654  -2.630  0.00  0.00    +0.000 A 
ATOM      5  C   UNL     1       4.633 -15.480  -1.493  0.00  0.00    +0.000 A 
ATOM      6  C   UNL     1       4.616 -17.567  -2.211  0.00  0.00    +0.000 A 
ATOM      7  C   UNL     1       5.869 -17.374  -0.277  0.00  0.00    +0.000 A 
ATOM      8  C   UNL     1       6.011 -18.685  -0.529  0.00  0.00    +0.000 A 
ENDROOT
BRANCH   4   9
ATOM      9  C   UNL     1       3.044 -14.627  -3.305  0.00  0.00    +0.000 A 
ATOM     10  C   UNL     1       2.151 -13.842  -2.565  0.00  0.00    +0.000 A 
ATOM     11  C   UNL     1       3.158 -14.393  -4.682  0.00  0.00    +0.000 A 
ATOM     12  C   UNL     1       1.610 -12.523  -4.536  0.00  0.00    +0.000 A 
ATOM     13  C   UNL     1       1.441 -12.798  -3.172  0.00  0.00    +0.000 A 
ATOM     14  C   UNL     1       2.463 -13.343  -5.287  0.00  0.00    +0.000 A 
BRANCH  12  18
ATOM     15  F   UNL     1       1.255 -11.194  -6.511  0.00  0.00    +0.000 F 
ATOM     16  F   UNL     1      -0.445 -11.506  -5.192  0.00  0.00    +0.000 F 
ATOM     17  F   UNL     1       1.166 -10.176  -4.590  0.00  0.00    +0.000 F 
ATOM     18  C   UNL     1       0.911 -11.365  -5.204  0.00  0.00    +0.000 C 
ENDBRANCH  12  18
ENDBRANCH   4   9
BRANCH   5  20
ATOM     19  N   UNL     1       4.116 -13.875   0.292  0.00  0.00    +0.000 NA
ATOM     20  C   UNL     1       4.856 -14.312  -0.686  0.00  0.00    +0.000 C 
BRANCH  19  21
ATOM     21  O   UNL     1       3.096 -14.778   0.613  0.00  0.00    +0.000 OA
BRANCH  21  22
ATOM     22  C   UNL     1       2.550 -14.465   1.895  0.00  0.00    +0.000 C 
BRANCH  22  25
ATOM     23 CL   UNL     1      -2.060 -15.601   4.054  0.00  0.00    +0.000 Cl
ATOM     24 CL   UNL     1      -3.451 -14.775   1.230  0.00  0.00    +0.000 Cl
ATOM     25  C   UNL     1       1.047 -14.524   1.779  0.00  0.00    +0.000 A 
ATOM     26  C   UNL     1       0.247 -14.966   2.842  0.00  0.00    +0.000 A 
ATOM     27  C   UNL     1       0.431 -14.153   0.575  0.00  0.00    +0.000 A 
ATOM     28  C   UNL     1      -1.145 -15.044   2.698  0.00  0.00    +0.000 A 
ATOM     29  C   UNL     1      -0.954 -14.227   0.430  0.00  0.00    +0.000 A 
ATOM     30  C   UNL     1      -1.745 -14.680   1.488  0.00  0.00    +0.000 A 
ENDBRANCH  22  25
ENDBRANCH  21  22
ENDBRANCH  19  21
ENDBRANCH   5  20
TORSDOF 6
ENDMDL
MODEL 8
REMARK VINA RESULT:      -5.3      4.765      6.377
REMARK  Name = 155269219
REMARK  6 active torsions:
REMARK  status: ('A' for Active; 'I' for Inactive)
REMARK    1  A    between atoms: O_7  and  N_10
REMARK    2  A    between atoms: O_7  and  C_25
REMARK    3  A    between atoms: C_11  and  C_13
REMARK    4  A    between atoms: C_12  and  C_18
REMARK    5  A    between atoms: C_19  and  C_23
REMARK    6  A    between atoms: C_24  and  C_25
REMARK                            x       y       z     vdW  Elec       q    Type
REMARK                         _______ _______ _______ _____ _____    ______ ____
ROOT
ATOM      1  S   UNL     1      16.064  15.044  23.487  0.00  0.00    +0.000 S 
ATOM      2  N   UNL     1      14.063  13.948  24.669  0.00  0.00    +0.000 N 
ATOM      3  N   UNL     1      13.307  15.195  22.978  0.00  0.00    +0.000 NA
ATOM      4  C   UNL     1      12.252  14.594  23.649  0.00  0.00    +0.000 A 
ATOM      5  C   UNL     1      12.698  13.808  24.720  0.00  0.00    +0.000 A 
ATOM      6  C   UNL     1      14.352  14.799  23.646  0.00  0.00    +0.000 A 
ATOM      7  C   UNL     1      15.165  13.440  25.330  0.00  0.00    +0.000 A 
ATOM      8  C   UNL     1      16.314  13.935  24.842  0.00  0.00    +0.000 A 
ENDROOT
BRANCH   4   9
ATOM      9  C   UNL     1      10.871  14.765  23.212  0.00  0.00    +0.000 A 
ATOM     10  C   UNL     1       9.981  15.507  24.001  0.00  0.00    +0.000 A 
ATOM     11  C   UNL     1      10.400  14.215  22.012  0.00  0.00    +0.000 A 
ATOM     12  C   UNL     1       8.227  15.260  22.335  0.00  0.00    +0.000 A 
ATOM     13  C   UNL     1       8.673  15.754  23.568  0.00  0.00    +0.000 A 
ATOM     14  C   UNL     1       9.100  14.473  21.570  0.00  0.00    +0.000 A 
BRANCH  12  18
ATOM     15  F   UNL     1       5.849  15.312  22.702  0.00  0.00    +0.000 F 
ATOM     16  F   UNL     1       6.708  16.875  21.458  0.00  0.00    +0.000 F 
ATOM     17  F   UNL     1       6.541  14.847  20.693  0.00  0.00    +0.000 F 
ATOM     18  C   UNL     1       6.846  15.565  21.810  0.00  0.00    +0.000 C 
ENDBRANCH  12  18
ENDBRANCH   4   9
BRANCH   5  20
ATOM     19  N   UNL     1      11.453  11.787  25.352  0.00  0.00    +0.000 NA
ATOM     20  C   UNL     1      11.963  12.956  25.615  0.00  0.00    +0.000 C 
BRANCH  19  21
ATOM     21  O   UNL     1      11.833  11.329  24.084  0.00  0.00    +0.000 OA
BRANCH  21  22
ATOM     22  C   UNL     1      10.685  10.893  23.357  0.00  0.00    +0.000 C 
BRANCH  22  25
ATOM     23 CL   UNL     1      11.004   5.974  21.650  0.00  0.00    +0.000 Cl
ATOM     24 CL   UNL     1      12.745   7.087  19.135  0.00  0.00    +0.000 Cl
ATOM     25  C   UNL     1      11.153   9.916  22.307  0.00  0.00    +0.000 A 
ATOM     26  C   UNL     1      10.892   8.543  22.415  0.00  0.00    +0.000 A 
ATOM     27  C   UNL     1      11.888  10.382  21.207  0.00  0.00    +0.000 A 
ATOM     28  C   UNL     1      11.366   7.652  21.443  0.00  0.00    +0.000 A 
ATOM     29  C   UNL     1      12.359   9.497  20.237  0.00  0.00    +0.000 A 
ATOM     30  C   UNL     1      12.107   8.129  20.356  0.00  0.00    +0.000 A 
ENDBRANCH  22  25
ENDBRANCH  21  22
ENDBRANCH  19  21
ENDBRANCH   5  20
TORSDOF 6
ENDMDL
MODEL 9
REMARK VINA RESULT:      -5.3     33.997     35.691
REMARK  Name = 155269219
REMARK  6 active torsions:
REMARK  status: ('A' for Active; 'I' for Inactive)
REMARK    1  A    between atoms: O_7  and  N_10
REMARK    2  A    between atoms: O_7  and  C_25
REMARK    3  A    between atoms: C_11  and  C_13
REMARK    4  A    between atoms: C_12  and  C_18
REMARK    5  A    between atoms: C_19  and  C_23
REMARK    6  A    between atoms: C_24  and  C_25
REMARK                            x       y       z     vdW  Elec       q    Type
REMARK                         _______ _______ _______ _____ _____    ______ ____
ROOT
ATOM      1  S   UNL     1       5.080 -22.941   2.787  0.00  0.00    +0.000 S 
ATOM      2  N   UNL     1       4.819 -20.638   3.895  0.00  0.00    +0.000 N 
ATOM      3  N   UNL     1       5.164 -20.351   1.708  0.00  0.00    +0.000 NA
ATOM      4  C   UNL     1       5.028 -19.126   2.344  0.00  0.00    +0.000 A 
ATOM      5  C   UNL     1       4.815 -19.276   3.720  0.00  0.00    +0.000 A 
ATOM      6  C   UNL     1       5.061 -21.207   2.682  0.00  0.00    +0.000 A 
ATOM      7  C   UNL     1       4.609 -21.533   4.927  0.00  0.00    +0.000 A 
ATOM      8  C   UNL     1       4.732 -22.806   4.517  0.00  0.00    +0.000 A 
ENDROOT
BRANCH   4   9
ATOM      9  C   UNL     1       5.068 -17.870   1.601  0.00  0.00    +0.000 A 
ATOM     10  C   UNL     1       5.219 -17.894   0.208  0.00  0.00    +0.000 A 
ATOM     11  C   UNL     1       4.952 -16.628   2.239  0.00  0.00    +0.000 A 
ATOM     12  C   UNL     1       4.995 -15.475   0.098  0.00  0.00    +0.000 A 
ATOM     13  C   UNL     1       5.181 -16.710  -0.539  0.00  0.00    +0.000 A 
ATOM     14  C   UNL     1       4.898 -15.446   1.496  0.00  0.00    +0.000 A 
BRANCH  12  18
ATOM     15  F   UNL     1       4.456 -14.358  -1.965  0.00  0.00    +0.000 F 
ATOM     16  F   UNL     1       4.007 -13.315  -0.112  0.00  0.00    +0.000 F 
ATOM     17  F   UNL     1       6.068 -13.524  -0.767  0.00  0.00    +0.000 F 
ATOM     18  C   UNL     1       4.883 -14.189  -0.683  0.00  0.00    +0.000 C 
ENDBRANCH  12  18
ENDBRANCH   4   9
BRANCH   5  20
ATOM     19  N   UNL     1       3.377 -17.904   5.164  0.00  0.00    +0.000 NA
ATOM     20  C   UNL     1       4.543 -18.289   4.730  0.00  0.00    +0.000 C 
BRANCH  19  21
ATOM     21  O   UNL     1       2.344 -18.690   4.639  0.00  0.00    +0.000 OA
BRANCH  21  22
ATOM     22  C   UNL     1       1.195 -17.881   4.384  0.00  0.00    +0.000 C 
BRANCH  22  25
ATOM     23 CL   UNL     1       1.231 -13.822   1.107  0.00  0.00    +0.000 Cl
ATOM     24 CL   UNL     1       1.534 -15.950  -1.335  0.00  0.00    +0.000 Cl
ATOM     25  C   UNL     1       1.310 -17.358   2.973  0.00  0.00    +0.000 A 
ATOM     26  C   UNL     1       1.245 -15.987   2.692  0.00  0.00    +0.000 A 
ATOM     27  C   UNL     1       1.460 -18.262   1.911  0.00  0.00    +0.000 A 
ATOM     28  C   UNL     1       1.320 -15.528   1.370  0.00  0.00    +0.000 A 
ATOM     29  C   UNL     1       1.538 -17.808   0.594  0.00  0.00    +0.000 A 
ATOM     30  C   UNL     1       1.461 -16.441   0.319  0.00  0.00    +0.000 A 
ENDBRANCH  22  25
ENDBRANCH  21  22
ENDBRANCH  19  21
ENDBRANCH   5  20
TORSDOF 6
ENDMDL
MODEL 10
REMARK VINA RESULT:      -5.3     23.446     24.864
REMARK  Name = 155269219
REMARK  6 active torsions:
REMARK  status: ('A' for Active; 'I' for Inactive)
REMARK    1  A    between atoms: O_7  and  N_10
REMARK    2  A    between atoms: O_7  and  C_25
REMARK    3  A    between atoms: C_11  and  C_13
REMARK    4  A    between atoms: C_12  and  C_18
REMARK    5  A    between atoms: C_19  and  C_23
REMARK    6  A    between atoms: C_24  and  C_25
REMARK                            x       y       z     vdW  Elec       q    Type
REMARK                         _______ _______ _______ _____ _____    ______ ____
ROOT
ATOM      1  S   UNL     1      -8.205  14.709  14.351  0.00  0.00    +0.000 S 
ATOM      2  N   UNL     1      -9.767  14.513  16.382  0.00  0.00    +0.000 N 
ATOM      3  N   UNL     1      -9.076  12.469  15.803  0.00  0.00    +0.000 NA
ATOM      4  C   UNL     1      -9.933  12.403  16.892  0.00  0.00    +0.000 A 
ATOM      5  C   UNL     1     -10.386  13.673  17.275  0.00  0.00    +0.000 A 
ATOM      6  C   UNL     1      -9.041  13.741  15.526  0.00  0.00    +0.000 A 
ATOM      7  C   UNL     1      -9.665  15.874  16.166  0.00  0.00    +0.000 A 
ATOM      8  C   UNL     1      -8.886  16.155  15.108  0.00  0.00    +0.000 A 
ENDROOT
BRANCH   4   9
ATOM      9  C   UNL     1     -10.246  11.135  17.542  0.00  0.00    +0.000 A 
ATOM     10  C   UNL     1     -10.776  11.134  18.840  0.00  0.00    +0.000 A 
ATOM     11  C   UNL     1     -10.040   9.905  16.904  0.00  0.00    +0.000 A 
ATOM     12  C   UNL     1     -11.015   8.714  18.787  0.00  0.00    +0.000 A 
ATOM     13  C   UNL     1     -11.159   9.937  19.457  0.00  0.00    +0.000 A 
ATOM     14  C   UNL     1     -10.435   8.710  17.510  0.00  0.00    +0.000 A 
BRANCH  12  18
ATOM     15  F   UNL     1     -11.061   6.308  18.723  0.00  0.00    +0.000 F 
ATOM     16  F   UNL     1     -11.036   7.261  20.677  0.00  0.00    +0.000 F 
ATOM     17  F   UNL     1     -12.836   7.324  19.462  0.00  0.00    +0.000 F 
ATOM     18  C   UNL     1     -11.479   7.415  19.397  0.00  0.00    +0.000 C 
ENDBRANCH  12  18
ENDBRANCH   4   9
BRANCH   5  20
ATOM     19  N   UNL     1     -12.499  14.224  18.397  0.00  0.00    +0.000 NA
ATOM     20  C   UNL     1     -11.207  14.069  18.386  0.00  0.00    +0.000 C 
BRANCH  19  21
ATOM     21  O   UNL     1     -13.082  13.800  17.197  0.00  0.00    +0.000 OA
BRANCH  21  22
ATOM     22  C   UNL     1     -14.110  12.846  17.463  0.00  0.00    +0.000 C 
BRANCH  22  25
ATOM     23 CL   UNL     1     -12.143  10.688  13.140  0.00  0.00    +0.000 Cl
ATOM     24 CL   UNL     1     -13.052   7.793  14.316  0.00  0.00    +0.000 Cl
ATOM     25  C   UNL     1     -13.799  11.605  16.663  0.00  0.00    +0.000 A 
ATOM     26  C   UNL     1     -13.170  11.678  15.412  0.00  0.00    +0.000 A 
ATOM     27  C   UNL     1     -14.167  10.348  17.165  0.00  0.00    +0.000 A 
ATOM     28  C   UNL     1     -12.921  10.513  14.674  0.00  0.00    +0.000 A 
ATOM     29  C   UNL     1     -13.918   9.187  16.432  0.00  0.00    +0.000 A 
ATOM     30  C   UNL     1     -13.302   9.267  15.182  0.00  0.00    +0.000 A 
ENDBRANCH  22  25
ENDBRANCH  21  22
ENDBRANCH  19  21
ENDBRANCH   5  20
TORSDOF 6
ENDMDL
