MODEL 1
REMARK VINA RESULT:      -6.4      0.000      0.000
REMARK  Name = 155269227
REMARK  5 active torsions:
REMARK  status: ('A' for Active; 'I' for Inactive)
REMARK    1  A    between atoms: O_4  and  N_7
REMARK    2  A    between atoms: O_4  and  C_24
REMARK    3  A    between atoms: C_8  and  C_9
REMARK    4  A    between atoms: C_10  and  C_18
REMARK    5  A    between atoms: C_24  and  C_25
REMARK                            x       y       z     vdW  Elec       q    Type
REMARK                         _______ _______ _______ _____ _____    ______ ____
ROOT
ATOM      1  S   UNL     1       9.738  15.930  22.070  0.00  0.00    +0.000 S 
ATOM      2  N   UNL     1      10.440  14.080  23.712  0.00  0.00    +0.000 N 
ATOM      3  N   UNL     1      10.642  13.311  21.627  0.00  0.00    +0.000 NA
ATOM      4  C   UNL     1      10.959  12.318  22.542  0.00  0.00    +0.000 A 
ATOM      5  C   UNL     1      10.855  12.772  23.863  0.00  0.00    +0.000 A 
ATOM      6  C   UNL     1      10.305  14.316  22.379  0.00  0.00    +0.000 A 
ATOM      7  C   UNL     1      10.144  15.159  24.521  0.00  0.00    +0.000 A 
ATOM      8  C   UNL     1       9.730  16.219  23.811  0.00  0.00    +0.000 A 
ENDROOT
BRANCH   4   9
ATOM      9  C   UNL     1      11.299  10.972  22.101  0.00  0.00    +0.000 A 
ATOM     10  C   UNL     1      12.168   9.490  20.357  0.00  0.00    +0.000 A 
ATOM     11  C   UNL     1      11.893  10.782  20.844  0.00  0.00    +0.000 A 
ATOM     12  C   UNL     1      11.845   8.363  21.151  0.00  0.00    +0.000 A 
ATOM     13  C   UNL     1      10.974   9.841  22.867  0.00  0.00    +0.000 A 
ATOM     14  C   UNL     1      11.259   8.558  22.405  0.00  0.00    +0.000 A 
ATOM     15  C   UNL     1      12.753   9.287  19.095  0.00  0.00    +0.000 A 
ATOM     16  C   UNL     1      12.103   7.075  20.664  0.00  0.00    +0.000 A 
ATOM     17  C   UNL     1      13.004   7.993  18.619  0.00  0.00    +0.000 A 
ATOM     18  C   UNL     1      12.676   6.890  19.403  0.00  0.00    +0.000 A 
ENDBRANCH   4   9
BRANCH   5  20
ATOM     19  N   UNL     1      12.319  11.811  25.593  0.00  0.00    +0.000 NA
ATOM     20  C   UNL     1      11.147  12.102  25.101  0.00  0.00    +0.000 C 
BRANCH  19  21
ATOM     21  O   UNL     1      13.344  12.399  24.848  0.00  0.00    +0.000 OA
BRANCH  21  22
ATOM     22  C   UNL     1      14.434  11.494  24.680  0.00  0.00    +0.000 C 
BRANCH  22  25
ATOM     23 CL   UNL     1      16.088   8.867  20.488  0.00  0.00    +0.000 Cl
ATOM     24 CL   UNL     1      15.970  11.669  18.839  0.00  0.00    +0.000 Cl
ATOM     25  C   UNL     1      14.769  11.481  23.210  0.00  0.00    +0.000 A 
ATOM     26  C   UNL     1      15.192  10.313  22.563  0.00  0.00    +0.000 A 
ATOM     27  C   UNL     1      14.682  12.672  22.473  0.00  0.00    +0.000 A 
ATOM     28  C   UNL     1      15.555  10.343  21.209  0.00  0.00    +0.000 A 
ATOM     29  C   UNL     1      15.041  12.705  21.126  0.00  0.00    +0.000 A 
ATOM     30  C   UNL     1      15.491  11.545  20.494  0.00  0.00    +0.000 A 
ENDBRANCH  22  25
ENDBRANCH  21  22
ENDBRANCH  19  21
ENDBRANCH   5  20
TORSDOF 5
ENDMDL
MODEL 2
REMARK VINA RESULT:      -5.8      3.129      7.097
REMARK  Name = 155269227
REMARK  5 active torsions:
REMARK  status: ('A' for Active; 'I' for Inactive)
REMARK    1  A    between atoms: O_4  and  N_7
REMARK    2  A    between atoms: O_4  and  C_24
REMARK    3  A    between atoms: C_8  and  C_9
REMARK    4  A    between atoms: C_10  and  C_18
REMARK    5  A    between atoms: C_24  and  C_25
REMARK                            x       y       z     vdW  Elec       q    Type
REMARK                         _______ _______ _______ _____ _____    ______ ____
ROOT
ATOM      1  S   UNL     1      13.027  15.984  20.703  0.00  0.00    +0.000 S 
ATOM      2  N   UNL     1      11.831  15.178  22.833  0.00  0.00    +0.000 N 
ATOM      3  N   UNL     1      10.352  16.213  21.521  0.00  0.00    +0.000 NA
ATOM      4  C   UNL     1       9.752  15.814  22.706  0.00  0.00    +0.000 A 
ATOM      5  C   UNL     1      10.652  15.149  23.548  0.00  0.00    +0.000 A 
ATOM      6  C   UNL     1      11.589  15.844  21.671  0.00  0.00    +0.000 A 
ATOM      7  C   UNL     1      13.128  14.727  22.978  0.00  0.00    +0.000 A 
ATOM      8  C   UNL     1      13.905  15.091  21.947  0.00  0.00    +0.000 A 
ENDROOT
BRANCH   4   9
ATOM      9  C   UNL     1       8.359  16.136  22.987  0.00  0.00    +0.000 A 
ATOM     10  C   UNL     1       6.719  17.557  24.120  0.00  0.00    +0.000 A 
ATOM     11  C   UNL     1       8.050  17.259  23.770  0.00  0.00    +0.000 A 
ATOM     12  C   UNL     1       5.675  16.715  23.668  0.00  0.00    +0.000 A 
ATOM     13  C   UNL     1       7.310  15.306  22.560  0.00  0.00    +0.000 A 
ATOM     14  C   UNL     1       5.988  15.601  22.883  0.00  0.00    +0.000 A 
ATOM     15  C   UNL     1       6.397  18.672  24.912  0.00  0.00    +0.000 A 
ATOM     16  C   UNL     1       4.351  16.999  24.027  0.00  0.00    +0.000 A 
ATOM     17  C   UNL     1       5.069  18.944  25.266  0.00  0.00    +0.000 A 
ATOM     18  C   UNL     1       4.049  18.106  24.824  0.00  0.00    +0.000 A 
ENDBRANCH   4   9
BRANCH   5  20
ATOM     19  N   UNL     1      10.199  13.267  25.069  0.00  0.00    +0.000 NA
ATOM     20  C   UNL     1      10.439  14.525  24.826  0.00  0.00    +0.000 C 
BRANCH  19  21
ATOM     21  O   UNL     1      10.348  12.489  23.918  0.00  0.00    +0.000 OA
BRANCH  21  22
ATOM     22  C   UNL     1      11.479  11.628  24.028  0.00  0.00    +0.000 C 
BRANCH  22  25
ATOM     23 CL   UNL     1      10.448   7.063  21.725  0.00  0.00    +0.000 Cl
ATOM     24 CL   UNL     1      11.858   8.240  19.040  0.00  0.00    +0.000 Cl
ATOM     25  C   UNL     1      11.499  10.770  22.789  0.00  0.00    +0.000 A 
ATOM     26  C   UNL     1      10.991   9.465  22.790  0.00  0.00    +0.000 A 
ATOM     27  C   UNL     1      12.066  11.278  21.609  0.00  0.00    +0.000 A 
ATOM     28  C   UNL     1      11.077   8.669  21.639  0.00  0.00    +0.000 A 
ATOM     29  C   UNL     1      12.152  10.489  20.463  0.00  0.00    +0.000 A 
ATOM     30  C   UNL     1      11.670   9.179  20.478  0.00  0.00    +0.000 A 
ENDBRANCH  22  25
ENDBRANCH  21  22
ENDBRANCH  19  21
ENDBRANCH   5  20
TORSDOF 5
ENDMDL
MODEL 3
REMARK VINA RESULT:      -5.4     25.110     26.600
REMARK  Name = 155269227
REMARK  5 active torsions:
REMARK  status: ('A' for Active; 'I' for Inactive)
REMARK    1  A    between atoms: O_4  and  N_7
REMARK    2  A    between atoms: O_4  and  C_24
REMARK    3  A    between atoms: C_8  and  C_9
REMARK    4  A    between atoms: C_10  and  C_18
REMARK    5  A    between atoms: C_24  and  C_25
REMARK                            x       y       z     vdW  Elec       q    Type
REMARK                         _______ _______ _______ _____ _____    ______ ____
ROOT
ATOM      1  S   UNL     1     -11.564  13.790  18.675  0.00  0.00    +0.000 S 
ATOM      2  N   UNL     1     -10.727  11.464  17.966  0.00  0.00    +0.000 N 
ATOM      3  N   UNL     1     -12.275  11.222  19.555  0.00  0.00    +0.000 NA
ATOM      4  C   UNL     1     -11.761   9.987  19.188  0.00  0.00    +0.000 A 
ATOM      5  C   UNL     1     -10.794  10.102  18.181  0.00  0.00    +0.000 A 
ATOM      6  C   UNL     1     -11.598  12.058  18.826  0.00  0.00    +0.000 A 
ATOM      7  C   UNL     1     -10.045  12.337  17.143  0.00  0.00    +0.000 A 
ATOM      8  C   UNL     1     -10.351  13.617  17.404  0.00  0.00    +0.000 A 
ENDROOT
BRANCH   4   9
ATOM      9  C   UNL     1     -12.191   8.766  19.858  0.00  0.00    +0.000 A 
ATOM     10  C   UNL     1     -13.993   7.431  20.838  0.00  0.00    +0.000 A 
ATOM     11  C   UNL     1     -13.552   8.565  20.129  0.00  0.00    +0.000 A 
ATOM     12  C   UNL     1     -13.048   6.475  21.279  0.00  0.00    +0.000 A 
ATOM     13  C   UNL     1     -11.267   7.812  20.315  0.00  0.00    +0.000 A 
ATOM     14  C   UNL     1     -11.693   6.677  21.000  0.00  0.00    +0.000 A 
ATOM     15  C   UNL     1     -15.353   7.225  21.125  0.00  0.00    +0.000 A 
ATOM     16  C   UNL     1     -13.480   5.354  21.998  0.00  0.00    +0.000 A 
ATOM     17  C   UNL     1     -15.772   6.100  21.847  0.00  0.00    +0.000 A 
ATOM     18  C   UNL     1     -14.835   5.168  22.284  0.00  0.00    +0.000 A 
ENDBRANCH   4   9
BRANCH   5  20
ATOM     19  N   UNL     1     -10.529   8.204  16.637  0.00  0.00    +0.000 NA
ATOM     20  C   UNL     1     -10.062   9.085  17.476  0.00  0.00    +0.000 C 
BRANCH  19  21
ATOM     21  O   UNL     1     -11.867   8.457  16.324  0.00  0.00    +0.000 OA
BRANCH  21  22
ATOM     22  C   UNL     1     -12.026   8.699  14.928  0.00  0.00    +0.000 C 
BRANCH  22  25
ATOM     23 CL   UNL     1     -16.887   7.117  15.970  0.00  0.00    +0.000 Cl
ATOM     24 CL   UNL     1     -16.835   5.507  13.143  0.00  0.00    +0.000 Cl
ATOM     25  C   UNL     1     -13.268   7.964  14.495  0.00  0.00    +0.000 A 
ATOM     26  C   UNL     1     -14.408   7.904  15.306  0.00  0.00    +0.000 A 
ATOM     27  C   UNL     1     -13.279   7.299  13.259  0.00  0.00    +0.000 A 
ATOM     28  C   UNL     1     -15.528   7.162  14.904  0.00  0.00    +0.000 A 
ATOM     29  C   UNL     1     -14.391   6.562  12.855  0.00  0.00    +0.000 A 
ATOM     30  C   UNL     1     -15.514   6.480  13.681  0.00  0.00    +0.000 A 
ENDBRANCH  22  25
ENDBRANCH  21  22
ENDBRANCH  19  21
ENDBRANCH   5  20
TORSDOF 5
ENDMDL
MODEL 4
REMARK VINA RESULT:      -5.3     15.649     18.102
REMARK  Name = 155269227
REMARK  5 active torsions:
REMARK  status: ('A' for Active; 'I' for Inactive)
REMARK    1  A    between atoms: O_4  and  N_7
REMARK    2  A    between atoms: O_4  and  C_24
REMARK    3  A    between atoms: C_8  and  C_9
REMARK    4  A    between atoms: C_10  and  C_18
REMARK    5  A    between atoms: C_24  and  C_25
REMARK                            x       y       z     vdW  Elec       q    Type
REMARK                         _______ _______ _______ _____ _____    ______ ____
ROOT
ATOM      1  S   UNL     1      21.188  -6.125  30.244  0.00  0.00    +0.000 S 
ATOM      2  N   UNL     1      19.984  -3.853  30.274  0.00  0.00    +0.000 N 
ATOM      3  N   UNL     1      19.998  -4.636  28.184  0.00  0.00    +0.000 NA
ATOM      4  C   UNL     1      19.405  -3.383  28.228  0.00  0.00    +0.000 A 
ATOM      5  C   UNL     1      19.369  -2.867  29.529  0.00  0.00    +0.000 A 
ATOM      6  C   UNL     1      20.355  -4.843  29.417  0.00  0.00    +0.000 A 
ATOM      7  C   UNL     1      20.304  -4.087  31.597  0.00  0.00    +0.000 A 
ATOM      8  C   UNL     1      20.969  -5.241  31.756  0.00  0.00    +0.000 A 
ENDROOT
BRANCH   4   9
ATOM      9  C   UNL     1      18.949  -2.727  27.010  0.00  0.00    +0.000 A 
ATOM     10  C   UNL     1      17.382  -2.640  25.131  0.00  0.00    +0.000 A 
ATOM     11  C   UNL     1      17.808  -3.205  26.348  0.00  0.00    +0.000 A 
ATOM     12  C   UNL     1      18.113  -1.567  24.569  0.00  0.00    +0.000 A 
ATOM     13  C   UNL     1      19.668  -1.670  26.428  0.00  0.00    +0.000 A 
ATOM     14  C   UNL     1      19.245  -1.089  25.235  0.00  0.00    +0.000 A 
ATOM     15  C   UNL     1      16.246  -3.118  24.454  0.00  0.00    +0.000 A 
ATOM     16  C   UNL     1      17.702  -1.011  23.350  0.00  0.00    +0.000 A 
ATOM     17  C   UNL     1      15.847  -2.555  23.235  0.00  0.00    +0.000 A 
ATOM     18  C   UNL     1      16.577  -1.504  22.685  0.00  0.00    +0.000 A 
ENDBRANCH   4   9
BRANCH   5  20
ATOM     19  N   UNL     1      17.555  -1.421  30.354  0.00  0.00    +0.000 NA
ATOM     20  C   UNL     1      18.797  -1.646  30.029  0.00  0.00    +0.000 C 
BRANCH  19  21
ATOM     21  O   UNL     1      16.804  -2.600  30.340  0.00  0.00    +0.000 OA
BRANCH  21  22
ATOM     22  C   UNL     1      16.033  -2.725  31.532  0.00  0.00    +0.000 C 
BRANCH  22  25
ATOM     23 CL   UNL     1      14.796  -7.018  28.840  0.00  0.00    +0.000 Cl
ATOM     24 CL   UNL     1      12.241  -7.374  30.822  0.00  0.00    +0.000 Cl
ATOM     25  C   UNL     1      15.146  -3.931  31.356  0.00  0.00    +0.000 A 
ATOM     26  C   UNL     1      15.358  -4.855  30.325  0.00  0.00    +0.000 A 
ATOM     27  C   UNL     1      14.064  -4.124  32.229  0.00  0.00    +0.000 A 
ATOM     28  C   UNL     1      14.482  -5.935  30.148  0.00  0.00    +0.000 A 
ATOM     29  C   UNL     1      13.192  -5.198  32.057  0.00  0.00    +0.000 A 
ATOM     30  C   UNL     1      13.390  -6.099  31.009  0.00  0.00    +0.000 A 
ENDBRANCH  22  25
ENDBRANCH  21  22
ENDBRANCH  19  21
ENDBRANCH   5  20
TORSDOF 5
ENDMDL
MODEL 5
REMARK VINA RESULT:      -5.2      3.493      7.178
REMARK  Name = 155269227
REMARK  5 active torsions:
REMARK  status: ('A' for Active; 'I' for Inactive)
REMARK    1  A    between atoms: O_4  and  N_7
REMARK    2  A    between atoms: O_4  and  C_24
REMARK    3  A    between atoms: C_8  and  C_9
REMARK    4  A    between atoms: C_10  and  C_18
REMARK    5  A    between atoms: C_24  and  C_25
REMARK                            x       y       z     vdW  Elec       q    Type
REMARK                         _______ _______ _______ _____ _____    ______ ____
ROOT
ATOM      1  S   UNL     1      12.504  19.258  22.140  0.00  0.00    +0.000 S 
ATOM      2  N   UNL     1      11.591  17.360  23.616  0.00  0.00    +0.000 N 
ATOM      3  N   UNL     1       9.940  18.134  22.331  0.00  0.00    +0.000 NA
ATOM      4  C   UNL     1       9.469  17.146  23.182  0.00  0.00    +0.000 A 
ATOM      5  C   UNL     1      10.484  16.629  23.995  0.00  0.00    +0.000 A 
ATOM      6  C   UNL     1      11.192  18.244  22.662  0.00  0.00    +0.000 A 
ATOM      7  C   UNL     1      12.934  17.424  23.934  0.00  0.00    +0.000 A 
ATOM      8  C   UNL     1      13.564  18.396  23.258  0.00  0.00    +0.000 A 
ENDROOT
BRANCH   4   9
ATOM      9  C   UNL     1       8.057  16.785  23.203  0.00  0.00    +0.000 A 
ATOM     10  C   UNL     1       5.789  17.221  24.014  0.00  0.00    +0.000 A 
ATOM     11  C   UNL     1       7.146  17.581  23.914  0.00  0.00    +0.000 A 
ATOM     12  C   UNL     1       5.333  16.040  23.381  0.00  0.00    +0.000 A 
ATOM     13  C   UNL     1       7.588  15.610  22.593  0.00  0.00    +0.000 A 
ATOM     14  C   UNL     1       6.243  15.254  22.669  0.00  0.00    +0.000 A 
ATOM     15  C   UNL     1       4.870  18.005  24.732  0.00  0.00    +0.000 A 
ATOM     16  C   UNL     1       3.987  15.670  23.491  0.00  0.00    +0.000 A 
ATOM     17  C   UNL     1       3.526  17.623  24.836  0.00  0.00    +0.000 A 
ATOM     18  C   UNL     1       3.088  16.455  24.217  0.00  0.00    +0.000 A 
ENDBRANCH   4   9
BRANCH   5  20
ATOM     19  N   UNL     1      10.561  14.285  24.744  0.00  0.00    +0.000 NA
ATOM     20  C   UNL     1      10.449  15.565  24.962  0.00  0.00    +0.000 C 
BRANCH  19  21
ATOM     21  O   UNL     1      10.916  14.024  23.417  0.00  0.00    +0.000 OA
BRANCH  21  22
ATOM     22  C   UNL     1      12.165  13.339  23.351  0.00  0.00    +0.000 C 
BRANCH  22  25
ATOM     23 CL   UNL     1      12.920  10.278  19.195  0.00  0.00    +0.000 Cl
ATOM     24 CL   UNL     1      10.852   8.156  20.539  0.00  0.00    +0.000 Cl
ATOM     25  C   UNL     1      11.911  12.033  22.643  0.00  0.00    +0.000 A 
ATOM     26  C   UNL     1      12.488  11.747  21.399  0.00  0.00    +0.000 A 
ATOM     27  C   UNL     1      11.056  11.087  23.228  0.00  0.00    +0.000 A 
ATOM     28  C   UNL     1      12.187  10.549  20.736  0.00  0.00    +0.000 A 
ATOM     29  C   UNL     1      10.755   9.895  22.572  0.00  0.00    +0.000 A 
ATOM     30  C   UNL     1      11.309   9.627  21.319  0.00  0.00    +0.000 A 
ENDBRANCH  22  25
ENDBRANCH  21  22
ENDBRANCH  19  21
ENDBRANCH   5  20
TORSDOF 5
ENDMDL
MODEL 6
REMARK VINA RESULT:      -5.2     35.188     37.000
REMARK  Name = 155269227
REMARK  5 active torsions:
REMARK  status: ('A' for Active; 'I' for Inactive)
REMARK    1  A    between atoms: O_4  and  N_7
REMARK    2  A    between atoms: O_4  and  C_24
REMARK    3  A    between atoms: C_8  and  C_9
REMARK    4  A    between atoms: C_10  and  C_18
REMARK    5  A    between atoms: C_24  and  C_25
REMARK                            x       y       z     vdW  Elec       q    Type
REMARK                         _______ _______ _______ _____ _____    ______ ____
ROOT
ATOM      1  S   UNL     1      -0.317 -16.583   1.475  0.00  0.00    +0.000 S 
ATOM      2  N   UNL     1       1.893 -15.399   0.903  0.00  0.00    +0.000 N 
ATOM      3  N   UNL     1       0.610 -15.456  -0.922  0.00  0.00    +0.000 NA
ATOM      4  C   UNL     1       1.835 -14.873  -1.209  0.00  0.00    +0.000 A 
ATOM      5  C   UNL     1       2.661 -14.810  -0.081  0.00  0.00    +0.000 A 
ATOM      6  C   UNL     1       0.719 -15.781   0.331  0.00  0.00    +0.000 A 
ATOM      7  C   UNL     1       1.998 -15.684   2.250  0.00  0.00    +0.000 A 
ATOM      8  C   UNL     1       0.920 -16.335   2.710  0.00  0.00    +0.000 A 
ENDROOT
BRANCH   4   9
ATOM      9  C   UNL     1       2.166 -14.452  -2.565  0.00  0.00    +0.000 A 
ATOM     10  C   UNL     1       1.967 -12.796  -4.357  0.00  0.00    +0.000 A 
ATOM     11  C   UNL     1       1.727 -13.203  -3.031  0.00  0.00    +0.000 A 
ATOM     12  C   UNL     1       2.668 -13.658  -5.234  0.00  0.00    +0.000 A 
ATOM     13  C   UNL     1       2.848 -15.298  -3.454  0.00  0.00    +0.000 A 
ATOM     14  C   UNL     1       3.108 -14.899  -4.763  0.00  0.00    +0.000 A 
ATOM     15  C   UNL     1       1.524 -11.552  -4.838  0.00  0.00    +0.000 A 
ATOM     16  C   UNL     1       2.896 -13.264  -6.559  0.00  0.00    +0.000 A 
ATOM     17  C   UNL     1       1.756 -11.171  -6.166  0.00  0.00    +0.000 A 
ATOM     18  C   UNL     1       2.440 -12.029  -7.024  0.00  0.00    +0.000 A 
ENDBRANCH   4   9
BRANCH   5  20
ATOM     19  N   UNL     1       5.120 -14.849   0.033  0.00  0.00    +0.000 NA
ATOM     20  C   UNL     1       3.970 -14.237   0.081  0.00  0.00    +0.000 C 
BRANCH  19  21
ATOM     21  O   UNL     1       4.975 -16.172  -0.392  0.00  0.00    +0.000 OA
BRANCH  21  22
ATOM     22  C   UNL     1       6.090 -16.962   0.014  0.00  0.00    +0.000 C 
BRANCH  22  25
ATOM     23 CL   UNL     1       4.142 -17.628   4.807  0.00  0.00    +0.000 Cl
ATOM     24 CL   UNL     1       4.386 -20.837   4.325  0.00  0.00    +0.000 Cl
ATOM     25  C   UNL     1       5.599 -17.893   1.093  0.00  0.00    +0.000 A 
ATOM     26  C   UNL     1       5.108 -17.410   2.313  0.00  0.00    +0.000 A 
ATOM     27  C   UNL     1       5.657 -19.279   0.886  0.00  0.00    +0.000 A 
ATOM     28  C   UNL     1       4.715 -18.300   3.322  0.00  0.00    +0.000 A 
ATOM     29  C   UNL     1       5.265 -20.167   1.887  0.00  0.00    +0.000 A 
ATOM     30  C   UNL     1       4.805 -19.681   3.112  0.00  0.00    +0.000 A 
ENDBRANCH  22  25
ENDBRANCH  21  22
ENDBRANCH  19  21
ENDBRANCH   5  20
TORSDOF 5
ENDMDL
MODEL 7
REMARK VINA RESULT:      -5.1     16.246     18.855
REMARK  Name = 155269227
REMARK  5 active torsions:
REMARK  status: ('A' for Active; 'I' for Inactive)
REMARK    1  A    between atoms: O_4  and  N_7
REMARK    2  A    between atoms: O_4  and  C_24
REMARK    3  A    between atoms: C_8  and  C_9
REMARK    4  A    between atoms: C_10  and  C_18
REMARK    5  A    between atoms: C_24  and  C_25
REMARK                            x       y       z     vdW  Elec       q    Type
REMARK                         _______ _______ _______ _____ _____    ______ ____
ROOT
ATOM      1  S   UNL     1      15.214  -8.575  29.284  0.00  0.00    +0.000 S 
ATOM      2  N   UNL     1      17.376  -8.307  27.917  0.00  0.00    +0.000 N 
ATOM      3  N   UNL     1      15.958  -6.678  27.354  0.00  0.00    +0.000 NA
ATOM      4  C   UNL     1      17.116  -6.598  26.594  0.00  0.00    +0.000 A 
ATOM      5  C   UNL     1      18.034  -7.599  26.932  0.00  0.00    +0.000 A 
ATOM      6  C   UNL     1      16.155  -7.731  28.090  0.00  0.00    +0.000 A 
ATOM      7  C   UNL     1      17.623  -9.391  28.737  0.00  0.00    +0.000 A 
ATOM      8  C   UNL     1      16.568  -9.685  29.511  0.00  0.00    +0.000 A 
ENDROOT
BRANCH   4   9
ATOM      9  C   UNL     1      17.258  -5.591  25.550  0.00  0.00    +0.000 A 
ATOM     10  C   UNL     1      17.288  -3.233  24.895  0.00  0.00    +0.000 A 
ATOM     11  C   UNL     1      17.226  -4.230  25.887  0.00  0.00    +0.000 A 
ATOM     12  C   UNL     1      17.392  -3.609  23.535  0.00  0.00    +0.000 A 
ATOM     13  C   UNL     1      17.348  -5.944  24.193  0.00  0.00    +0.000 A 
ATOM     14  C   UNL     1      17.430  -4.967  23.204  0.00  0.00    +0.000 A 
ATOM     15  C   UNL     1      17.246  -1.866  25.220  0.00  0.00    +0.000 A 
ATOM     16  C   UNL     1      17.438  -2.621  22.543  0.00  0.00    +0.000 A 
ATOM     17  C   UNL     1      17.291  -0.888  24.219  0.00  0.00    +0.000 A 
ATOM     18  C   UNL     1      17.385  -1.267  22.883  0.00  0.00    +0.000 A 
ENDBRANCH   4   9
BRANCH   5  20
ATOM     19  N   UNL     1      20.482  -7.343  26.890  0.00  0.00    +0.000 NA
ATOM     20  C   UNL     1      19.364  -7.843  26.443  0.00  0.00    +0.000 C 
BRANCH  19  21
ATOM     21  O   UNL     1      20.284  -6.635  28.079  0.00  0.00    +0.000 OA
BRANCH  21  22
ATOM     22  C   UNL     1      20.715  -5.283  27.943  0.00  0.00    +0.000 C 
BRANCH  22  25
ATOM     23 CL   UNL     1      16.438  -4.900  30.906  0.00  0.00    +0.000 Cl
ATOM     24 CL   UNL     1      16.422  -1.713  30.252  0.00  0.00    +0.000 Cl
ATOM     25  C   UNL     1      19.660  -4.420  28.588  0.00  0.00    +0.000 A 
ATOM     26  C   UNL     1      18.657  -4.967  29.398  0.00  0.00    +0.000 A 
ATOM     27  C   UNL     1      19.663  -3.037  28.351  0.00  0.00    +0.000 A 
ATOM     28  C   UNL     1      17.653  -4.148  29.935  0.00  0.00    +0.000 A 
ATOM     29  C   UNL     1      18.668  -2.220  28.885  0.00  0.00    +0.000 A 
ATOM     30  C   UNL     1      17.653  -2.774  29.667  0.00  0.00    +0.000 A 
ENDBRANCH  22  25
ENDBRANCH  21  22
ENDBRANCH  19  21
ENDBRANCH   5  20
TORSDOF 5
ENDMDL
MODEL 8
REMARK VINA RESULT:      -5.1     30.332     32.112
REMARK  Name = 155269227
REMARK  5 active torsions:
REMARK  status: ('A' for Active; 'I' for Inactive)
REMARK    1  A    between atoms: O_4  and  N_7
REMARK    2  A    between atoms: O_4  and  C_24
REMARK    3  A    between atoms: C_8  and  C_9
REMARK    4  A    between atoms: C_10  and  C_18
REMARK    5  A    between atoms: C_24  and  C_25
REMARK                            x       y       z     vdW  Elec       q    Type
REMARK                         _______ _______ _______ _____ _____    ______ ____
ROOT
ATOM      1  S   UNL     1     -16.735   5.290  23.496  0.00  0.00    +0.000 S 
ATOM      2  N   UNL     1     -17.023   2.879  24.341  0.00  0.00    +0.000 N 
ATOM      3  N   UNL     1     -16.401   4.174  26.049  0.00  0.00    +0.000 NA
ATOM      4  C   UNL     1     -16.511   2.853  26.458  0.00  0.00    +0.000 A 
ATOM      5  C   UNL     1     -16.912   2.014  25.411  0.00  0.00    +0.000 A 
ATOM      6  C   UNL     1     -16.678   4.120  24.780  0.00  0.00    +0.000 A 
ATOM      7  C   UNL     1     -17.378   2.817  23.008  0.00  0.00    +0.000 A 
ATOM      8  C   UNL     1     -17.258   4.008  22.402  0.00  0.00    +0.000 A 
ENDROOT
BRANCH   4   9
ATOM      9  C   UNL     1     -16.177   2.460  27.821  0.00  0.00    +0.000 A 
ATOM     10  C   UNL     1     -15.257   3.049  30.011  0.00  0.00    +0.000 A 
ATOM     11  C   UNL     1     -15.656   3.411  28.710  0.00  0.00    +0.000 A 
ATOM     12  C   UNL     1     -15.388   1.704  30.430  0.00  0.00    +0.000 A 
ATOM     13  C   UNL     1     -16.287   1.128  28.251  0.00  0.00    +0.000 A 
ATOM     14  C   UNL     1     -15.913   0.761  29.542  0.00  0.00    +0.000 A 
ATOM     15  C   UNL     1     -14.724   3.991  30.908  0.00  0.00    +0.000 A 
ATOM     16  C   UNL     1     -14.977   1.335  31.718  0.00  0.00    +0.000 A 
ATOM     17  C   UNL     1     -14.315   3.610  32.192  0.00  0.00    +0.000 A 
ATOM     18  C   UNL     1     -14.440   2.282  32.594  0.00  0.00    +0.000 A 
ENDBRANCH   4   9
BRANCH   5  20
ATOM     19  N   UNL     1     -18.362   0.030  25.569  0.00  0.00    +0.000 NA
ATOM     20  C   UNL     1     -17.203   0.606  25.410  0.00  0.00    +0.000 C 
BRANCH  19  21
ATOM     21  O   UNL     1     -19.399   0.967  25.570  0.00  0.00    +0.000 OA
BRANCH  21  22
ATOM     22  C   UNL     1     -20.089   0.962  26.818  0.00  0.00    +0.000 C 
BRANCH  22  25
ATOM     23 CL   UNL     1     -19.825   6.131  26.168  0.00  0.00    +0.000 Cl
ATOM     24 CL   UNL     1     -19.150   6.371  29.341  0.00  0.00    +0.000 Cl
ATOM     25  C   UNL     1     -19.920   2.335  27.417  0.00  0.00    +0.000 A 
ATOM     26  C   UNL     1     -19.979   3.493  26.632  0.00  0.00    +0.000 A 
ATOM     27  C   UNL     1     -19.670   2.459  28.793  0.00  0.00    +0.000 A 
ATOM     28  C   UNL     1     -19.758   4.752  27.206  0.00  0.00    +0.000 A 
ATOM     29  C   UNL     1     -19.452   3.711  29.367  0.00  0.00    +0.000 A 
ATOM     30  C   UNL     1     -19.482   4.859  28.574  0.00  0.00    +0.000 A 
ENDBRANCH  22  25
ENDBRANCH  21  22
ENDBRANCH  19  21
ENDBRANCH   5  20
TORSDOF 5
ENDMDL
MODEL 9
REMARK VINA RESULT:      -5.0      8.065     10.883
REMARK  Name = 155269227
REMARK  5 active torsions:
REMARK  status: ('A' for Active; 'I' for Inactive)
REMARK    1  A    between atoms: O_4  and  N_7
REMARK    2  A    between atoms: O_4  and  C_24
REMARK    3  A    between atoms: C_8  and  C_9
REMARK    4  A    between atoms: C_10  and  C_18
REMARK    5  A    between atoms: C_24  and  C_25
REMARK                            x       y       z     vdW  Elec       q    Type
REMARK                         _______ _______ _______ _____ _____    ______ ____
ROOT
ATOM      1  S   UNL     1       8.308  17.372  17.420  0.00  0.00    +0.000 S 
ATOM      2  N   UNL     1       8.449  16.655  19.886  0.00  0.00    +0.000 N 
ATOM      3  N   UNL     1       6.314  16.601  19.238  0.00  0.00    +0.000 NA
ATOM      4  C   UNL     1       6.421  16.274  20.582  0.00  0.00    +0.000 A 
ATOM      5  C   UNL     1       7.752  16.286  21.018  0.00  0.00    +0.000 A 
ATOM      6  C   UNL     1       7.541  16.854  18.892  0.00  0.00    +0.000 A 
ATOM      7  C   UNL     1       9.763  16.862  19.515  0.00  0.00    +0.000 A 
ATOM      8  C   UNL     1       9.867  17.272  18.242  0.00  0.00    +0.000 A 
ENDROOT
BRANCH   4   9
ATOM      9  C   UNL     1       5.235  16.014  21.387  0.00  0.00    +0.000 A 
ATOM     10  C   UNL     1       2.803  16.134  21.645  0.00  0.00    +0.000 A 
ATOM     11  C   UNL     1       3.965  16.306  20.867  0.00  0.00    +0.000 A 
ATOM     12  C   UNL     1       2.919  15.654  22.971  0.00  0.00    +0.000 A 
ATOM     13  C   UNL     1       5.329  15.551  22.710  0.00  0.00    +0.000 A 
ATOM     14  C   UNL     1       4.186  15.359  23.482  0.00  0.00    +0.000 A 
ATOM     15  C   UNL     1       1.527  16.433  21.138  0.00  0.00    +0.000 A 
ATOM     16  C   UNL     1       1.767  15.497  23.754  0.00  0.00    +0.000 A 
ATOM     17  C   UNL     1       0.384  16.273  21.932  0.00  0.00    +0.000 A 
ATOM     18  C   UNL     1       0.507  15.807  23.239  0.00  0.00    +0.000 A 
ENDBRANCH   4   9
BRANCH   5  20
ATOM     19  N   UNL     1       8.518  16.750  23.311  0.00  0.00    +0.000 NA
ATOM     20  C   UNL     1       8.312  15.953  22.300  0.00  0.00    +0.000 C 
BRANCH  19  21
ATOM     21  O   UNL     1       7.950  18.008  23.092  0.00  0.00    +0.000 OA
BRANCH  21  22
ATOM     22  C   UNL     1       7.459  18.563  24.310  0.00  0.00    +0.000 C 
BRANCH  22  25
ATOM     23 CL   UNL     1       2.585  18.257  26.145  0.00  0.00    +0.000 Cl
ATOM     24 CL   UNL     1       1.566  19.398  23.274  0.00  0.00    +0.000 Cl
ATOM     25  C   UNL     1       5.985  18.811  24.115  0.00  0.00    +0.000 A 
ATOM     26  C   UNL     1       5.049  18.500  25.110  0.00  0.00    +0.000 A 
ATOM     27  C   UNL     1       5.531  19.343  22.898  0.00  0.00    +0.000 A 
ATOM     28  C   UNL     1       3.679  18.685  24.878  0.00  0.00    +0.000 A 
ATOM     29  C   UNL     1       4.169  19.530  22.666  0.00  0.00    +0.000 A 
ATOM     30  C   UNL     1       3.238  19.190  23.649  0.00  0.00    +0.000 A 
ENDBRANCH  22  25
ENDBRANCH  21  22
ENDBRANCH  19  21
ENDBRANCH   5  20
TORSDOF 5
ENDMDL
MODEL 10
REMARK VINA RESULT:      -5.0     28.421     31.124
REMARK  Name = 155269227
REMARK  5 active torsions:
REMARK  status: ('A' for Active; 'I' for Inactive)
REMARK    1  A    between atoms: O_4  and  N_7
REMARK    2  A    between atoms: O_4  and  C_24
REMARK    3  A    between atoms: C_8  and  C_9
REMARK    4  A    between atoms: C_10  and  C_18
REMARK    5  A    between atoms: C_24  and  C_25
REMARK                            x       y       z     vdW  Elec       q    Type
REMARK                         _______ _______ _______ _____ _____    ______ ____
ROOT
ATOM      1  S   UNL     1      -7.960 -11.066  12.454  0.00  0.00    +0.000 S 
ATOM      2  N   UNL     1      -6.036  -9.924  11.185  0.00  0.00    +0.000 N 
ATOM      3  N   UNL     1      -7.043 -11.374   9.819  0.00  0.00    +0.000 NA
ATOM      4  C   UNL     1      -5.963 -10.780   9.184  0.00  0.00    +0.000 A 
ATOM      5  C   UNL     1      -5.315  -9.853  10.010  0.00  0.00    +0.000 A 
ATOM      6  C   UNL     1      -7.012 -10.857  11.011  0.00  0.00    +0.000 A 
ATOM      7  C   UNL     1      -6.030  -9.322  12.427  0.00  0.00    +0.000 A 
ATOM      8  C   UNL     1      -6.972  -9.829  13.236  0.00  0.00    +0.000 A 
ENDROOT
BRANCH   4   9
ATOM      9  C   UNL     1      -5.581 -11.170   7.833  0.00  0.00    +0.000 A 
ATOM     10  C   UNL     1      -4.077 -12.408   6.350  0.00  0.00    +0.000 A 
ATOM     11  C   UNL     1      -4.518 -12.066   7.643  0.00  0.00    +0.000 A 
ATOM     12  C   UNL     1      -4.721 -11.844   5.223  0.00  0.00    +0.000 A 
ATOM     13  C   UNL     1      -6.198 -10.611   6.702  0.00  0.00    +0.000 A 
ATOM     14  C   UNL     1      -5.783 -10.956   5.418  0.00  0.00    +0.000 A 
ATOM     15  C   UNL     1      -3.007 -13.296   6.147  0.00  0.00    +0.000 A 
ATOM     16  C   UNL     1      -4.276 -12.168   3.935  0.00  0.00    +0.000 A 
ATOM     17  C   UNL     1      -2.570 -13.611   4.854  0.00  0.00    +0.000 A 
ATOM     18  C   UNL     1      -3.204 -13.045   3.751  0.00  0.00    +0.000 A 
ENDBRANCH   4   9
BRANCH   5  20
ATOM     19  N   UNL     1      -2.961  -9.138  10.088  0.00  0.00    +0.000 NA
ATOM     20  C   UNL     1      -4.206  -8.980   9.736  0.00  0.00    +0.000 C 
BRANCH  19  21
ATOM     21  O   UNL     1      -2.746 -10.402  10.645  0.00  0.00    +0.000 OA
BRANCH  21  22
ATOM     22  C   UNL     1      -2.036 -10.301  11.877  0.00  0.00    +0.000 C 
BRANCH  22  25
ATOM     23 CL   UNL     1      -3.436 -10.906  16.865  0.00  0.00    +0.000 Cl
ATOM     24 CL   UNL     1      -5.167 -13.499  15.935  0.00  0.00    +0.000 Cl
ATOM     25  C   UNL     1      -2.849 -11.034  12.913  0.00  0.00    +0.000 A 
ATOM     26  C   UNL     1      -2.820 -10.668  14.265  0.00  0.00    +0.000 A 
ATOM     27  C   UNL     1      -3.636 -12.129  12.522  0.00  0.00    +0.000 A 
ATOM     28  C   UNL     1      -3.539 -11.406  15.215  0.00  0.00    +0.000 A 
ATOM     29  C   UNL     1      -4.353 -12.864  13.465  0.00  0.00    +0.000 A 
ATOM     30  C   UNL     1      -4.297 -12.513  14.815  0.00  0.00    +0.000 A 
ENDBRANCH  22  25
ENDBRANCH  21  22
ENDBRANCH  19  21
ENDBRANCH   5  20
TORSDOF 5
ENDMDL
