MODEL 1
REMARK VINA RESULT:      -5.5      0.000      0.000
REMARK  Name = 155269231
REMARK  6 active torsions:
REMARK  status: ('A' for Active; 'I' for Inactive)
REMARK    1  A    between atoms: N_7  and  C_10
REMARK    2  A    between atoms: N_7  and  C_12
REMARK    3  A    between atoms: C_9  and  C_10
REMARK    4  A    between atoms: C_11  and  C_15
REMARK    5  A    between atoms: C_12  and  C_14
REMARK    6  A    between atoms: C_14  and  C_17
REMARK                            x       y       z     vdW  Elec       q    Type
REMARK                         _______ _______ _______ _____ _____    ______ ____
ROOT
ATOM      1  S   UNL     1       3.361  17.438  14.799  0.00  0.00    +0.000 S 
ATOM      2  N   UNL     1       4.313  16.277  16.911  0.00  0.00    +0.000 N 
ATOM      3  N   UNL     1       2.220  16.987  17.300  0.00  0.00    +0.000 NA
ATOM      4  C   UNL     1       4.069  15.961  18.235  0.00  0.00    +0.000 A 
ATOM      5  C   UNL     1       2.726  16.338  18.398  0.00  0.00    +0.000 A 
ATOM      6  C   UNL     1       3.202  16.935  16.452  0.00  0.00    +0.000 A 
ATOM      7  C   UNL     1       5.285  16.109  15.944  0.00  0.00    +0.000 A 
ATOM      8  C   UNL     1       4.940  16.654  14.761  0.00  0.00    +0.000 A 
ENDROOT
BRANCH   5  10
ATOM      9 CL   UNL     1      -0.400  15.614  23.438  0.00  0.00    +0.000 Cl
ATOM     10  C   UNL     1       1.913  16.148  19.595  0.00  0.00    +0.000 A 
ATOM     11  C   UNL     1       1.337  14.912  19.913  0.00  0.00    +0.000 A 
ATOM     12  C   UNL     1       1.692  17.238  20.445  0.00  0.00    +0.000 A 
ATOM     13  C   UNL     1       0.635  14.740  21.106  0.00  0.00    +0.000 A 
ATOM     14  C   UNL     1       0.966  17.078  21.629  0.00  0.00    +0.000 A 
ATOM     15  C   UNL     1       0.454  15.824  21.962  0.00  0.00    +0.000 A 
ENDBRANCH   5  10
BRANCH   4  16
ATOM     16  C   UNL     1       4.976  15.345  19.268  0.00  0.00    +0.000 C 
BRANCH  16  18
ATOM     17 CL   UNL     1       5.639  17.885  19.872  0.00  0.00    +0.000 Cl
ATOM     18  N   UNL     1       5.448  16.184  20.378  0.00  0.00    +0.000 NA
BRANCH  18  19
ATOM     19  C   UNL     1       6.744  15.675  20.923  0.00  0.00    +0.000 C 
BRANCH  19  20
ATOM     20  C   UNL     1       6.525  15.221  22.375  0.00  0.00    +0.000 C 
BRANCH  20  23
ATOM     21 CL   UNL     1       5.481  19.385  25.449  0.00  0.00    +0.000 Cl
ATOM     22 CL   UNL     1       2.448  18.239  25.699  0.00  0.00    +0.000 Cl
ATOM     23  C   UNL     1       5.602  16.020  23.275  0.00  0.00    +0.000 A 
ATOM     24  C   UNL     1       5.945  17.216  23.918  0.00  0.00    +0.000 A 
ATOM     25  C   UNL     1       4.271  15.572  23.373  0.00  0.00    +0.000 A 
ATOM     26  C   UNL     1       4.985  17.919  24.676  0.00  0.00    +0.000 A 
ATOM     27  C   UNL     1       3.318  16.264  24.119  0.00  0.00    +0.000 A 
ATOM     28  C   UNL     1       3.674  17.439  24.781  0.00  0.00    +0.000 A 
ENDBRANCH  20  23
ENDBRANCH  19  20
ENDBRANCH  18  19
ENDBRANCH  16  18
ENDBRANCH   4  16
TORSDOF 6
ENDMDL
MODEL 2
REMARK VINA RESULT:      -5.2      7.521     10.658
REMARK  Name = 155269231
REMARK  6 active torsions:
REMARK  status: ('A' for Active; 'I' for Inactive)
REMARK    1  A    between atoms: N_7  and  C_10
REMARK    2  A    between atoms: N_7  and  C_12
REMARK    3  A    between atoms: C_9  and  C_10
REMARK    4  A    between atoms: C_11  and  C_15
REMARK    5  A    between atoms: C_12  and  C_14
REMARK    6  A    between atoms: C_14  and  C_17
REMARK                            x       y       z     vdW  Elec       q    Type
REMARK                         _______ _______ _______ _____ _____    ______ ____
ROOT
ATOM      1  S   UNL     1      12.153  17.320  26.965  0.00  0.00    +0.000 S 
ATOM      2  N   UNL     1      11.506  15.018  25.965  0.00  0.00    +0.000 N 
ATOM      3  N   UNL     1      10.544  16.667  24.787  0.00  0.00    +0.000 NA
ATOM      4  C   UNL     1      10.740  14.374  25.011  0.00  0.00    +0.000 A 
ATOM      5  C   UNL     1      10.239  15.443  24.249  0.00  0.00    +0.000 A 
ATOM      6  C   UNL     1      11.285  16.361  25.808  0.00  0.00    +0.000 A 
ATOM      7  C   UNL     1      12.412  14.729  26.968  0.00  0.00    +0.000 A 
ATOM      8  C   UNL     1      12.863  15.834  27.593  0.00  0.00    +0.000 A 
ENDROOT
BRANCH   5  10
ATOM      9 CL   UNL     1       6.974  15.248  19.249  0.00  0.00    +0.000 Cl
ATOM     10  C   UNL     1       9.427  15.337  23.040  0.00  0.00    +0.000 A 
ATOM     11  C   UNL     1       8.047  15.107  23.091  0.00  0.00    +0.000 A 
ATOM     12  C   UNL     1      10.050  15.457  21.792  0.00  0.00    +0.000 A 
ATOM     13  C   UNL     1       7.284  15.094  21.923  0.00  0.00    +0.000 A 
ATOM     14  C   UNL     1       9.294  15.418  20.617  0.00  0.00    +0.000 A 
ATOM     15  C   UNL     1       7.911  15.253  20.689  0.00  0.00    +0.000 A 
ENDBRANCH   5  10
BRANCH   4  16
ATOM     16  C   UNL     1      10.498  12.904  24.792  0.00  0.00    +0.000 C 
BRANCH  16  18
ATOM     17 CL   UNL     1      12.963  12.005  25.397  0.00  0.00    +0.000 Cl
ATOM     18  N   UNL     1      11.593  12.084  24.257  0.00  0.00    +0.000 NA
BRANCH  18  19
ATOM     19  C   UNL     1      12.066  12.612  22.940  0.00  0.00    +0.000 C 
BRANCH  19  20
ATOM     20  C   UNL     1      11.239  11.961  21.821  0.00  0.00    +0.000 C 
BRANCH  20  23
ATOM     21 CL   UNL     1      13.296   7.720  19.441  0.00  0.00    +0.000 Cl
ATOM     22 CL   UNL     1      11.469   5.913  21.435  0.00  0.00    +0.000 Cl
ATOM     23  C   UNL     1      11.328  10.463  21.603  0.00  0.00    +0.000 A 
ATOM     24  C   UNL     1      12.175   9.835  20.680  0.00  0.00    +0.000 A 
ATOM     25  C   UNL     1      10.580   9.651  22.475  0.00  0.00    +0.000 A 
ATOM     26  C   UNL     1      12.234   8.427  20.609  0.00  0.00    +0.000 A 
ATOM     27  C   UNL     1      10.635   8.259  22.410  0.00  0.00    +0.000 A 
ATOM     28  C   UNL     1      11.458   7.641  21.470  0.00  0.00    +0.000 A 
ENDBRANCH  20  23
ENDBRANCH  19  20
ENDBRANCH  18  19
ENDBRANCH  16  18
ENDBRANCH   4  16
TORSDOF 6
ENDMDL
MODEL 3
REMARK VINA RESULT:      -5.2      3.897      5.734
REMARK  Name = 155269231
REMARK  6 active torsions:
REMARK  status: ('A' for Active; 'I' for Inactive)
REMARK    1  A    between atoms: N_7  and  C_10
REMARK    2  A    between atoms: N_7  and  C_12
REMARK    3  A    between atoms: C_9  and  C_10
REMARK    4  A    between atoms: C_11  and  C_15
REMARK    5  A    between atoms: C_12  and  C_14
REMARK    6  A    between atoms: C_14  and  C_17
REMARK                            x       y       z     vdW  Elec       q    Type
REMARK                         _______ _______ _______ _____ _____    ______ ____
ROOT
ATOM      1  S   UNL     1       9.608  15.126  23.219  0.00  0.00    +0.000 S 
ATOM      2  N   UNL     1       7.944  17.087  22.898  0.00  0.00    +0.000 N 
ATOM      3  N   UNL     1       6.852  15.129  22.816  0.00  0.00    +0.000 NA
ATOM      4  C   UNL     1       6.630  17.423  22.630  0.00  0.00    +0.000 A 
ATOM      5  C   UNL     1       5.979  16.179  22.682  0.00  0.00    +0.000 A 
ATOM      6  C   UNL     1       8.003  15.718  22.928  0.00  0.00    +0.000 A 
ATOM      7  C   UNL     1       9.159  17.690  23.163  0.00  0.00    +0.000 A 
ATOM      8  C   UNL     1      10.147  16.798  23.368  0.00  0.00    +0.000 A 
ENDROOT
BRANCH   5  10
ATOM      9 CL   UNL     1       0.073  15.478  22.113  0.00  0.00    +0.000 Cl
ATOM     10  C   UNL     1       4.543  15.948  22.556  0.00  0.00    +0.000 A 
ATOM     11  C   UNL     1       3.766  15.499  23.630  0.00  0.00    +0.000 A 
ATOM     12  C   UNL     1       3.928  16.170  21.318  0.00  0.00    +0.000 A 
ATOM     13  C   UNL     1       2.383  15.368  23.501  0.00  0.00    +0.000 A 
ATOM     14  C   UNL     1       2.546  16.014  21.176  0.00  0.00    +0.000 A 
ATOM     15  C   UNL     1       1.777  15.628  22.274  0.00  0.00    +0.000 A 
ENDBRANCH   5  10
BRANCH   4  16
ATOM     16  C   UNL     1       6.007  18.769  22.368  0.00  0.00    +0.000 C 
BRANCH  16  18
ATOM     17 CL   UNL     1       5.660  18.793  25.039  0.00  0.00    +0.000 Cl
ATOM     18  N   UNL     1       5.812  19.684  23.500  0.00  0.00    +0.000 NA
BRANCH  18  19
ATOM     19  C   UNL     1       4.604  20.542  23.297  0.00  0.00    +0.000 C 
BRANCH  19  20
ATOM     20  C   UNL     1       3.619  19.799  22.381  0.00  0.00    +0.000 C 
BRANCH  20  23
ATOM     21 CL   UNL     1      -1.531  18.850  21.705  0.00  0.00    +0.000 Cl
ATOM     22 CL   UNL     1      -1.627  18.012  24.845  0.00  0.00    +0.000 Cl
ATOM     23  C   UNL     1       2.248  19.422  22.911  0.00  0.00    +0.000 A 
ATOM     24  C   UNL     1       1.082  19.346  22.138  0.00  0.00    +0.000 A 
ATOM     25  C   UNL     1       2.180  19.016  24.256  0.00  0.00    +0.000 A 
ATOM     26  C   UNL     1      -0.130  18.913  22.716  0.00  0.00    +0.000 A 
ATOM     27  C   UNL     1       0.985  18.587  24.833  0.00  0.00    +0.000 A 
ATOM     28  C   UNL     1      -0.178  18.541  24.065  0.00  0.00    +0.000 A 
ENDBRANCH  20  23
ENDBRANCH  19  20
ENDBRANCH  18  19
ENDBRANCH  16  18
ENDBRANCH   4  16
TORSDOF 6
ENDMDL
MODEL 4
REMARK VINA RESULT:      -5.1      8.353     11.855
REMARK  Name = 155269231
REMARK  6 active torsions:
REMARK  status: ('A' for Active; 'I' for Inactive)
REMARK    1  A    between atoms: N_7  and  C_10
REMARK    2  A    between atoms: N_7  and  C_12
REMARK    3  A    between atoms: C_9  and  C_10
REMARK    4  A    between atoms: C_11  and  C_15
REMARK    5  A    between atoms: C_12  and  C_14
REMARK    6  A    between atoms: C_14  and  C_17
REMARK                            x       y       z     vdW  Elec       q    Type
REMARK                         _______ _______ _______ _____ _____    ______ ____
ROOT
ATOM      1  S   UNL     1       8.420  15.522  20.781  0.00  0.00    +0.000 S 
ATOM      2  N   UNL     1      10.046  14.282  22.372  0.00  0.00    +0.000 N 
ATOM      3  N   UNL     1      10.932  14.412  20.314  0.00  0.00    +0.000 NA
ATOM      4  C   UNL     1      11.245  13.597  22.456  0.00  0.00    +0.000 A 
ATOM      5  C   UNL     1      11.796  13.788  21.178  0.00  0.00    +0.000 A 
ATOM      6  C   UNL     1       9.906  14.673  21.066  0.00  0.00    +0.000 A 
ATOM      7  C   UNL     1       9.006  14.699  23.180  0.00  0.00    +0.000 A 
ATOM      8  C   UNL     1       8.063  15.380  22.501  0.00  0.00    +0.000 A 
ENDROOT
BRANCH   5  10
ATOM      9 CL   UNL     1      17.218  12.203  19.231  0.00  0.00    +0.000 Cl
ATOM     10  C   UNL     1      13.114  13.346  20.730  0.00  0.00    +0.000 A 
ATOM     11  C   UNL     1      13.277  12.262  19.860  0.00  0.00    +0.000 A 
ATOM     12  C   UNL     1      14.249  14.021  21.194  0.00  0.00    +0.000 A 
ATOM     13  C   UNL     1      14.541  11.916  19.383  0.00  0.00    +0.000 A 
ATOM     14  C   UNL     1      15.521  13.660  20.741  0.00  0.00    +0.000 A 
ATOM     15  C   UNL     1      15.660  12.619  19.824  0.00  0.00    +0.000 A 
ENDBRANCH   5  10
BRANCH   4  16
ATOM     16  C   UNL     1      11.854  12.846  23.611  0.00  0.00    +0.000 C 
BRANCH  16  18
ATOM     17 CL   UNL     1      13.699  10.925  23.211  0.00  0.00    +0.000 Cl
ATOM     18  N   UNL     1      12.000  11.389  23.501  0.00  0.00    +0.000 NA
BRANCH  18  19
ATOM     19  C   UNL     1      11.138  10.843  22.408  0.00  0.00    +0.000 C 
BRANCH  19  20
ATOM     20  C   UNL     1      11.481   9.359  22.202  0.00  0.00    +0.000 C 
BRANCH  20  23
ATOM     21 CL   UNL     1      10.896   8.500  17.025  0.00  0.00    +0.000 Cl
ATOM     22 CL   UNL     1      14.034   7.651  16.973  0.00  0.00    +0.000 Cl
ATOM     23  C   UNL     1      12.005   8.894  20.857  0.00  0.00    +0.000 A 
ATOM     24  C   UNL     1      11.264   8.882  19.668  0.00  0.00    +0.000 A 
ATOM     25  C   UNL     1      13.369   8.557  20.792  0.00  0.00    +0.000 A 
ATOM     26  C   UNL     1      11.872   8.499  18.453  0.00  0.00    +0.000 A 
ATOM     27  C   UNL     1      13.975   8.178  19.594  0.00  0.00    +0.000 A 
ATOM     28  C   UNL     1      13.225   8.141  18.420  0.00  0.00    +0.000 A 
ENDBRANCH  20  23
ENDBRANCH  19  20
ENDBRANCH  18  19
ENDBRANCH  16  18
ENDBRANCH   4  16
TORSDOF 6
ENDMDL
MODEL 5
REMARK VINA RESULT:      -5.1     15.777     18.775
REMARK  Name = 155269231
REMARK  6 active torsions:
REMARK  status: ('A' for Active; 'I' for Inactive)
REMARK    1  A    between atoms: N_7  and  C_10
REMARK    2  A    between atoms: N_7  and  C_12
REMARK    3  A    between atoms: C_9  and  C_10
REMARK    4  A    between atoms: C_11  and  C_15
REMARK    5  A    between atoms: C_12  and  C_14
REMARK    6  A    between atoms: C_14  and  C_17
REMARK                            x       y       z     vdW  Elec       q    Type
REMARK                         _______ _______ _______ _____ _____    ______ ____
ROOT
ATOM      1  S   UNL     1      -8.956   4.983   4.481  0.00  0.00    +0.000 S 
ATOM      2  N   UNL     1      -8.412   7.466   4.985  0.00  0.00    +0.000 N 
ATOM      3  N   UNL     1      -6.533   6.356   4.464  0.00  0.00    +0.000 NA
ATOM      4  C   UNL     1      -7.399   8.396   5.126  0.00  0.00    +0.000 A 
ATOM      5  C   UNL     1      -6.267   7.682   4.700  0.00  0.00    +0.000 A 
ATOM      6  C   UNL     1      -7.814   6.277   4.658  0.00  0.00    +0.000 A 
ATOM      7  C   UNL     1      -9.790   7.384   5.044  0.00  0.00    +0.000 A 
ATOM      8  C   UNL     1     -10.248   6.143   4.792  0.00  0.00    +0.000 A 
ENDROOT
BRANCH   5  10
ATOM      9 CL   UNL     1      -0.723   9.756   3.887  0.00  0.00    +0.000 Cl
ATOM     10  C   UNL     1      -4.913   8.210   4.559  0.00  0.00    +0.000 A 
ATOM     11  C   UNL     1      -3.849   7.745   5.341  0.00  0.00    +0.000 A 
ATOM     12  C   UNL     1      -4.675   9.221   3.621  0.00  0.00    +0.000 A 
ATOM     13  C   UNL     1      -2.551   8.209   5.125  0.00  0.00    +0.000 A 
ATOM     14  C   UNL     1      -3.381   9.710   3.420  0.00  0.00    +0.000 A 
ATOM     15  C   UNL     1      -2.321   9.189   4.163  0.00  0.00    +0.000 A 
ENDBRANCH   5  10
BRANCH   4  16
ATOM     16  C   UNL     1      -7.454   9.829   5.588  0.00  0.00    +0.000 C 
BRANCH  16  18
ATOM     17 CL   UNL     1      -7.968  10.609   8.114  0.00  0.00    +0.000 Cl
ATOM     18  N   UNL     1      -6.786  10.186   6.846  0.00  0.00    +0.000 NA
BRANCH  18  19
ATOM     19  C   UNL     1      -5.837  11.325   6.646  0.00  0.00    +0.000 C 
BRANCH  19  20
ATOM     20  C   UNL     1      -4.428  10.872   7.060  0.00  0.00    +0.000 C 
BRANCH  20  23
ATOM     21 CL   UNL     1      -3.872  13.218  11.757  0.00  0.00    +0.000 Cl
ATOM     22 CL   UNL     1      -0.856  14.005  10.829  0.00  0.00    +0.000 Cl
ATOM     23  C   UNL     1      -3.639  11.704   8.053  0.00  0.00    +0.000 A 
ATOM     24  C   UNL     1      -4.091  12.074   9.327  0.00  0.00    +0.000 A 
ATOM     25  C   UNL     1      -2.317  12.027   7.699  0.00  0.00    +0.000 A 
ATOM     26  C   UNL     1      -3.246  12.788  10.203  0.00  0.00    +0.000 A 
ATOM     27  C   UNL     1      -1.478  12.732   8.561  0.00  0.00    +0.000 A 
ATOM     28  C   UNL     1      -1.943  13.123   9.816  0.00  0.00    +0.000 A 
ENDBRANCH  20  23
ENDBRANCH  19  20
ENDBRANCH  18  19
ENDBRANCH  16  18
ENDBRANCH   4  16
TORSDOF 6
ENDMDL
MODEL 6
REMARK VINA RESULT:      -5.0      3.937      6.228
REMARK  Name = 155269231
REMARK  6 active torsions:
REMARK  status: ('A' for Active; 'I' for Inactive)
REMARK    1  A    between atoms: N_7  and  C_10
REMARK    2  A    between atoms: N_7  and  C_12
REMARK    3  A    between atoms: C_9  and  C_10
REMARK    4  A    between atoms: C_11  and  C_15
REMARK    5  A    between atoms: C_12  and  C_14
REMARK    6  A    between atoms: C_14  and  C_17
REMARK                            x       y       z     vdW  Elec       q    Type
REMARK                         _______ _______ _______ _____ _____    ______ ____
ROOT
ATOM      1  S   UNL     1       7.089  22.862  24.370  0.00  0.00    +0.000 S 
ATOM      2  N   UNL     1       6.691  20.305  24.234  0.00  0.00    +0.000 N 
ATOM      3  N   UNL     1       4.734  21.395  24.117  0.00  0.00    +0.000 NA
ATOM      4  C   UNL     1       5.732  19.310  24.177  0.00  0.00    +0.000 A 
ATOM      5  C   UNL     1       4.544  20.041  24.011  0.00  0.00    +0.000 A 
ATOM      6  C   UNL     1       6.020  21.499  24.260  0.00  0.00    +0.000 A 
ATOM      7  C   UNL     1       8.065  20.452  24.243  0.00  0.00    +0.000 A 
ATOM      8  C   UNL     1       8.448  21.742  24.302  0.00  0.00    +0.000 A 
ENDROOT
BRANCH   5  10
ATOM      9 CL   UNL     1      -1.001  18.003  23.113  0.00  0.00    +0.000 Cl
ATOM     10  C   UNL     1       3.209  19.486  23.804  0.00  0.00    +0.000 A 
ATOM     11  C   UNL     1       2.495  18.866  24.836  0.00  0.00    +0.000 A 
ATOM     12  C   UNL     1       2.632  19.566  22.532  0.00  0.00    +0.000 A 
ATOM     13  C   UNL     1       1.189  18.421  24.630  0.00  0.00    +0.000 A 
ATOM     14  C   UNL     1       1.333  19.096  22.313  0.00  0.00    +0.000 A 
ATOM     15  C   UNL     1       0.611  18.540  23.369  0.00  0.00    +0.000 A 
ENDBRANCH   5  10
BRANCH   4  16
ATOM     16  C   UNL     1       5.882  17.813  24.245  0.00  0.00    +0.000 C 
BRANCH  16  18
ATOM     17 CL   UNL     1       6.129  18.055  21.574  0.00  0.00    +0.000 Cl
ATOM     18  N   UNL     1       6.386  17.104  23.062  0.00  0.00    +0.000 NA
BRANCH  18  19
ATOM     19  C   UNL     1       5.735  15.765  22.919  0.00  0.00    +0.000 C 
BRANCH  19  20
ATOM     20  C   UNL     1       4.362  15.807  23.609  0.00  0.00    +0.000 C 
BRANCH  20  23
ATOM     21 CL   UNL     1       1.740  16.283  19.050  0.00  0.00    +0.000 Cl
ATOM     22 CL   UNL     1      -0.802  14.923  20.554  0.00  0.00    +0.000 Cl
ATOM     23  C   UNL     1       3.103  15.684  22.772  0.00  0.00    +0.000 A 
ATOM     24  C   UNL     1       3.000  16.039  21.420  0.00  0.00    +0.000 A 
ATOM     25  C   UNL     1       1.997  15.063  23.381  0.00  0.00    +0.000 A 
ATOM     26  C   UNL     1       1.799  15.814  20.714  0.00  0.00    +0.000 A 
ATOM     27  C   UNL     1       0.808  14.838  22.687  0.00  0.00    +0.000 A 
ATOM     28  C   UNL     1       0.703  15.220  21.351  0.00  0.00    +0.000 A 
ENDBRANCH  20  23
ENDBRANCH  19  20
ENDBRANCH  18  19
ENDBRANCH  16  18
ENDBRANCH   4  16
TORSDOF 6
ENDMDL
MODEL 7
REMARK VINA RESULT:      -4.9      9.995     12.915
REMARK  Name = 155269231
REMARK  6 active torsions:
REMARK  status: ('A' for Active; 'I' for Inactive)
REMARK    1  A    between atoms: N_7  and  C_10
REMARK    2  A    between atoms: N_7  and  C_12
REMARK    3  A    between atoms: C_9  and  C_10
REMARK    4  A    between atoms: C_11  and  C_15
REMARK    5  A    between atoms: C_12  and  C_14
REMARK    6  A    between atoms: C_14  and  C_17
REMARK                            x       y       z     vdW  Elec       q    Type
REMARK                         _______ _______ _______ _____ _____    ______ ____
ROOT
ATOM      1  S   UNL     1      17.940  15.495  20.452  0.00  0.00    +0.000 S 
ATOM      2  N   UNL     1      15.674  14.413  19.807  0.00  0.00    +0.000 N 
ATOM      3  N   UNL     1      17.080  12.849  20.590  0.00  0.00    +0.000 NA
ATOM      4  C   UNL     1      14.982  13.222  19.691  0.00  0.00    +0.000 A 
ATOM      5  C   UNL     1      15.863  12.298  20.277  0.00  0.00    +0.000 A 
ATOM      6  C   UNL     1      16.921  14.100  20.282  0.00  0.00    +0.000 A 
ATOM      7  C   UNL     1      15.486  15.770  19.624  0.00  0.00    +0.000 A 
ATOM      8  C   UNL     1      16.582  16.491  19.929  0.00  0.00    +0.000 A 
ENDROOT
BRANCH   5  10
ATOM      9 CL   UNL     1      14.998   6.486  21.361  0.00  0.00    +0.000 Cl
ATOM     10  C   UNL     1      15.603  10.879  20.505  0.00  0.00    +0.000 A 
ATOM     11  C   UNL     1      15.661   9.938  19.470  0.00  0.00    +0.000 A 
ATOM     12  C   UNL     1      15.273  10.449  21.796  0.00  0.00    +0.000 A 
ATOM     13  C   UNL     1      15.490   8.579  19.734  0.00  0.00    +0.000 A 
ATOM     14  C   UNL     1      15.074   9.091  22.060  0.00  0.00    +0.000 A 
ATOM     15  C   UNL     1      15.199   8.160  21.029  0.00  0.00    +0.000 A 
ENDBRANCH   5  10
BRANCH   4  16
ATOM     16  C   UNL     1      13.618  12.945  19.114  0.00  0.00    +0.000 C 
BRANCH  16  18
ATOM     17 CL   UNL     1      12.030  14.994  19.840  0.00  0.00    +0.000 Cl
ATOM     18  N   UNL     1      12.436  13.259  19.926  0.00  0.00    +0.000 NA
BRANCH  18  19
ATOM     19  C   UNL     1      12.642  12.862  21.353  0.00  0.00    +0.000 C 
BRANCH  19  20
ATOM     20  C   UNL     1      11.414  12.071  21.829  0.00  0.00    +0.000 C 
BRANCH  20  23
ATOM     21 CL   UNL     1      12.215   7.774  18.867  0.00  0.00    +0.000 Cl
ATOM     22 CL   UNL     1      11.279   6.020  21.441  0.00  0.00    +0.000 Cl
ATOM     23  C   UNL     1      11.361  10.572  21.608  0.00  0.00    +0.000 A 
ATOM     24  C   UNL     1      11.750   9.920  20.430  0.00  0.00    +0.000 A 
ATOM     25  C   UNL     1      10.998   9.781  22.714  0.00  0.00    +0.000 A 
ATOM     26  C   UNL     1      11.730   8.511  20.355  0.00  0.00    +0.000 A 
ATOM     27  C   UNL     1      10.979   8.389  22.646  0.00  0.00    +0.000 A 
ATOM     28  C   UNL     1      11.338   7.748  21.461  0.00  0.00    +0.000 A 
ENDBRANCH  20  23
ENDBRANCH  19  20
ENDBRANCH  18  19
ENDBRANCH  16  18
ENDBRANCH   4  16
TORSDOF 6
ENDMDL
MODEL 8
REMARK VINA RESULT:      -4.9     15.246     18.348
REMARK  Name = 155269231
REMARK  6 active torsions:
REMARK  status: ('A' for Active; 'I' for Inactive)
REMARK    1  A    between atoms: N_7  and  C_10
REMARK    2  A    between atoms: N_7  and  C_12
REMARK    3  A    between atoms: C_9  and  C_10
REMARK    4  A    between atoms: C_11  and  C_15
REMARK    5  A    between atoms: C_12  and  C_14
REMARK    6  A    between atoms: C_14  and  C_17
REMARK                            x       y       z     vdW  Elec       q    Type
REMARK                         _______ _______ _______ _____ _____    ______ ____
ROOT
ATOM      1  S   UNL     1     -15.626  10.294  14.139  0.00  0.00    +0.000 S 
ATOM      2  N   UNL     1     -13.633   9.435  15.556  0.00  0.00    +0.000 N 
ATOM      3  N   UNL     1     -13.350  11.606  15.066  0.00  0.00    +0.000 NA
ATOM      4  C   UNL     1     -12.404   9.765  16.096  0.00  0.00    +0.000 A 
ATOM      5  C   UNL     1     -12.320  11.145  15.846  0.00  0.00    +0.000 A 
ATOM      6  C   UNL     1     -14.093  10.554  14.912  0.00  0.00    +0.000 A 
ATOM      7  C   UNL     1     -14.513   8.371  15.496  0.00  0.00    +0.000 A 
ATOM      8  C   UNL     1     -15.626   8.657  14.794  0.00  0.00    +0.000 A 
ENDROOT
BRANCH   5  10
ATOM      9 CL   UNL     1      -7.803  14.609  17.663  0.00  0.00    +0.000 Cl
ATOM     10  C   UNL     1     -11.253  12.040  16.284  0.00  0.00    +0.000 A 
ATOM     11  C   UNL     1     -11.361  12.811  17.447  0.00  0.00    +0.000 A 
ATOM     12  C   UNL     1     -10.092  12.140  15.508  0.00  0.00    +0.000 A 
ATOM     13  C   UNL     1     -10.291  13.593  17.884  0.00  0.00    +0.000 A 
ATOM     14  C   UNL     1      -9.028  12.944  15.927  0.00  0.00    +0.000 A 
ATOM     15  C   UNL     1      -9.127  13.655  17.123  0.00  0.00    +0.000 A 
ENDBRANCH   5  10
BRANCH   4  16
ATOM     16  C   UNL     1     -11.392   8.902  16.805  0.00  0.00    +0.000 C 
BRANCH  16  18
ATOM     17 CL   UNL     1     -10.150   9.756  19.037  0.00  0.00    +0.000 Cl
ATOM     18  N   UNL     1     -11.453   8.809  18.270  0.00  0.00    +0.000 NA
BRANCH  18  19
ATOM     19  C   UNL     1     -11.372   7.386  18.721  0.00  0.00    +0.000 C 
BRANCH  19  20
ATOM     20  C   UNL     1     -11.302   7.358  20.256  0.00  0.00    +0.000 C 
BRANCH  20  23
ATOM     21 CL   UNL     1     -15.237   4.875  22.752  0.00  0.00    +0.000 Cl
ATOM     22 CL   UNL     1     -16.285   7.809  23.684  0.00  0.00    +0.000 Cl
ATOM     23  C   UNL     1     -12.587   7.362  21.062  0.00  0.00    +0.000 A 
ATOM     24  C   UNL     1     -13.279   6.216  21.475  0.00  0.00    +0.000 A 
ATOM     25  C   UNL     1     -13.045   8.613  21.515  0.00  0.00    +0.000 A 
ATOM     26  C   UNL     1     -14.428   6.331  22.286  0.00  0.00    +0.000 A 
ATOM     27  C   UNL     1     -14.180   8.732  22.317  0.00  0.00    +0.000 A 
ATOM     28  C   UNL     1     -14.881   7.589  22.700  0.00  0.00    +0.000 A 
ENDBRANCH  20  23
ENDBRANCH  19  20
ENDBRANCH  18  19
ENDBRANCH  16  18
ENDBRANCH   4  16
TORSDOF 6
ENDMDL
MODEL 9
REMARK VINA RESULT:      -4.8      4.337      6.397
REMARK  Name = 155269231
REMARK  6 active torsions:
REMARK  status: ('A' for Active; 'I' for Inactive)
REMARK    1  A    between atoms: N_7  and  C_10
REMARK    2  A    between atoms: N_7  and  C_12
REMARK    3  A    between atoms: C_9  and  C_10
REMARK    4  A    between atoms: C_11  and  C_15
REMARK    5  A    between atoms: C_12  and  C_14
REMARK    6  A    between atoms: C_14  and  C_17
REMARK                            x       y       z     vdW  Elec       q    Type
REMARK                         _______ _______ _______ _____ _____    ______ ____
ROOT
ATOM      1  S   UNL     1      -1.119  23.664  22.012  0.00  0.00    +0.000 S 
ATOM      2  N   UNL     1      -0.036  22.063  23.738  0.00  0.00    +0.000 N 
ATOM      3  N   UNL     1      -0.711  20.910  21.935  0.00  0.00    +0.000 NA
ATOM      4  C   UNL     1       0.248  20.742  24.033  0.00  0.00    +0.000 A 
ATOM      5  C   UNL     1      -0.104  20.081  22.844  0.00  0.00    +0.000 A 
ATOM      6  C   UNL     1      -0.657  22.069  22.517  0.00  0.00    +0.000 A 
ATOM      7  C   UNL     1       0.136  23.327  24.268  0.00  0.00    +0.000 A 
ATOM      8  C   UNL     1      -0.369  24.294  23.478  0.00  0.00    +0.000 A 
ENDROOT
BRANCH   5  10
ATOM      9 CL   UNL     1       0.545  14.308  21.446  0.00  0.00    +0.000 Cl
ATOM     10  C   UNL     1       0.072  18.659  22.561  0.00  0.00    +0.000 A 
ATOM     11  C   UNL     1      -0.689  17.674  23.201  0.00  0.00    +0.000 A 
ATOM     12  C   UNL     1       1.041  18.269  21.628  0.00  0.00    +0.000 A 
ATOM     13  C   UNL     1      -0.556  16.331  22.848  0.00  0.00    +0.000 A 
ATOM     14  C   UNL     1       1.197  16.922  21.291  0.00  0.00    +0.000 A 
ATOM     15  C   UNL     1       0.385  15.960  21.891  0.00  0.00    +0.000 A 
ENDBRANCH   5  10
BRANCH   4  16
ATOM     16  C   UNL     1       0.816  20.128  25.286  0.00  0.00    +0.000 C 
BRANCH  16  18
ATOM     17 CL   UNL     1       3.161  20.924  24.229  0.00  0.00    +0.000 Cl
ATOM     18  N   UNL     1       2.203  20.440  25.654  0.00  0.00    +0.000 NA
BRANCH  18  19
ATOM     19  C   UNL     1       2.856  19.275  26.326  0.00  0.00    +0.000 C 
BRANCH  19  20
ATOM     20  C   UNL     1       2.578  18.009  25.501  0.00  0.00    +0.000 C 
BRANCH  20  23
ATOM     21 CL   UNL     1       7.606  17.804  23.900  0.00  0.00    +0.000 Cl
ATOM     22 CL   UNL     1       6.812  15.101  22.277  0.00  0.00    +0.000 Cl
ATOM     23  C   UNL     1       3.696  17.393  24.682  0.00  0.00    +0.000 A 
ATOM     24  C   UNL     1       5.016  17.860  24.646  0.00  0.00    +0.000 A 
ATOM     25  C   UNL     1       3.395  16.199  23.999  0.00  0.00    +0.000 A 
ATOM     26  C   UNL     1       5.998  17.167  23.906  0.00  0.00    +0.000 A 
ATOM     27  C   UNL     1       4.362  15.510  23.267  0.00  0.00    +0.000 A 
ATOM     28  C   UNL     1       5.667  15.997  23.212  0.00  0.00    +0.000 A 
ENDBRANCH  20  23
ENDBRANCH  19  20
ENDBRANCH  18  19
ENDBRANCH  16  18
ENDBRANCH   4  16
TORSDOF 6
ENDMDL
MODEL 10
REMARK VINA RESULT:      -4.6     36.384     38.910
REMARK  Name = 155269231
REMARK  6 active torsions:
REMARK  status: ('A' for Active; 'I' for Inactive)
REMARK    1  A    between atoms: N_7  and  C_10
REMARK    2  A    between atoms: N_7  and  C_12
REMARK    3  A    between atoms: C_9  and  C_10
REMARK    4  A    between atoms: C_11  and  C_15
REMARK    5  A    between atoms: C_12  and  C_14
REMARK    6  A    between atoms: C_14  and  C_17
REMARK                            x       y       z     vdW  Elec       q    Type
REMARK                         _______ _______ _______ _____ _____    ______ ____
ROOT
ATOM      1  S   UNL     1      -2.528 -14.572   3.394  0.00  0.00    +0.000 S 
ATOM      2  N   UNL     1      -0.495 -15.212   1.920  0.00  0.00    +0.000 N 
ATOM      3  N   UNL     1      -2.247 -14.679   0.624  0.00  0.00    +0.000 NA
ATOM      4  C   UNL     1      -0.057 -15.422   0.625  0.00  0.00    +0.000 A 
ATOM      5  C   UNL     1      -1.151 -14.987  -0.142  0.00  0.00    +0.000 A 
ATOM      6  C   UNL     1      -1.811 -14.840   1.836  0.00  0.00    +0.000 A 
ATOM      7  C   UNL     1      -0.016 -15.235   3.216  0.00  0.00    +0.000 A 
ATOM      8  C   UNL     1      -0.959 -14.911   4.122  0.00  0.00    +0.000 A 
ENDROOT
BRANCH   5  10
ATOM      9 CL   UNL     1      -1.138 -14.689  -6.109  0.00  0.00    +0.000 Cl
ATOM     10  C   UNL     1      -1.209 -14.903  -1.598  0.00  0.00    +0.000 A 
ATOM     11  C   UNL     1      -1.587 -13.730  -2.261  0.00  0.00    +0.000 A 
ATOM     12  C   UNL     1      -0.886 -16.036  -2.355  0.00  0.00    +0.000 A 
ATOM     13  C   UNL     1      -1.552 -13.656  -3.653  0.00  0.00    +0.000 A 
ATOM     14  C   UNL     1      -0.876 -15.976  -3.751  0.00  0.00    +0.000 A 
ATOM     15  C   UNL     1      -1.193 -14.779  -4.394  0.00  0.00    +0.000 A 
ENDBRANCH   5  10
BRANCH   4  16
ATOM     16  C   UNL     1       1.258 -15.954   0.119  0.00  0.00    +0.000 C 
BRANCH  16  18
ATOM     17 CL   UNL     1       2.138 -13.559   0.980  0.00  0.00    +0.000 Cl
ATOM     18  N   UNL     1       2.488 -15.233   0.471  0.00  0.00    +0.000 NA
BRANCH  18  19
ATOM     19  C   UNL     1       3.449 -15.218  -0.675  0.00  0.00    +0.000 C 
BRANCH  19  20
ATOM     20  C   UNL     1       2.700 -15.625  -1.953  0.00  0.00    +0.000 C 
BRANCH  20  23
ATOM     21 CL   UNL     1       2.663 -14.211  -7.041  0.00  0.00    +0.000 Cl
ATOM     22 CL   UNL     1       1.531 -11.323  -6.065  0.00  0.00    +0.000 Cl
ATOM     23  C   UNL     1       2.496 -14.603  -3.055  0.00  0.00    +0.000 A 
ATOM     24  C   UNL     1       2.687 -14.846  -4.421  0.00  0.00    +0.000 A 
ATOM     25  C   UNL     1       1.969 -13.356  -2.670  0.00  0.00    +0.000 A 
ATOM     26  C   UNL     1       2.396 -13.844  -5.372  0.00  0.00    +0.000 A 
ATOM     27  C   UNL     1       1.679 -12.363  -3.606  0.00  0.00    +0.000 A 
ATOM     28  C   UNL     1       1.899 -12.601  -4.961  0.00  0.00    +0.000 A 
ENDBRANCH  20  23
ENDBRANCH  19  20
ENDBRANCH  18  19
ENDBRANCH  16  18
ENDBRANCH   4  16
TORSDOF 6
ENDMDL
