MODEL 1
REMARK VINA RESULT:      -5.6      0.000      0.000
REMARK  Name = 155269231
REMARK  6 active torsions:
REMARK  status: ('A' for Active; 'I' for Inactive)
REMARK    1  A    between atoms: N_7  and  C_10
REMARK    2  A    between atoms: N_7  and  C_12
REMARK    3  A    between atoms: C_9  and  C_10
REMARK    4  A    between atoms: C_11  and  C_15
REMARK    5  A    between atoms: C_12  and  C_14
REMARK    6  A    between atoms: C_14  and  C_17
REMARK                            x       y       z     vdW  Elec       q    Type
REMARK                         _______ _______ _______ _____ _____    ______ ____
ROOT
ATOM      1  S   UNL     1     -14.704   7.787 -35.503  0.00  0.00    +0.000 S 
ATOM      2  N   UNL     1     -13.139   6.056 -34.377  0.00  0.00    +0.000 N 
ATOM      3  N   UNL     1     -12.132   6.951 -36.171  0.00  0.00    +0.000 NA
ATOM      4  C   UNL     1     -11.925   5.399 -34.469  0.00  0.00    +0.000 A 
ATOM      5  C   UNL     1     -11.302   6.058 -35.542  0.00  0.00    +0.000 A 
ATOM      6  C   UNL     1     -13.210   6.904 -35.450  0.00  0.00    +0.000 A 
ATOM      7  C   UNL     1     -14.241   6.132 -33.547  0.00  0.00    +0.000 A 
ATOM      8  C   UNL     1     -15.163   7.010 -33.989  0.00  0.00    +0.000 A 
ENDROOT
BRANCH   5  10
ATOM      9 CL   UNL     1      -5.737   4.905 -37.387  0.00  0.00    +0.000 Cl
ATOM     10  C   UNL     1      -9.945   5.826 -36.029  0.00  0.00    +0.000 A 
ATOM     11  C   UNL     1      -8.909   6.739 -35.802  0.00  0.00    +0.000 A 
ATOM     12  C   UNL     1      -9.676   4.660 -36.756  0.00  0.00    +0.000 A 
ATOM     13  C   UNL     1      -7.605   6.450 -36.206  0.00  0.00    +0.000 A 
ATOM     14  C   UNL     1      -8.377   4.379 -37.188  0.00  0.00    +0.000 A 
ATOM     15  C   UNL     1      -7.343   5.270 -36.896  0.00  0.00    +0.000 A 
ENDBRANCH   5  10
BRANCH   4  16
ATOM     16  C   UNL     1     -11.364   4.276 -33.637  0.00  0.00    +0.000 C 
BRANCH  16  18
ATOM     17 CL   UNL     1     -11.948   2.123 -32.128  0.00  0.00    +0.000 Cl
ATOM     18  N   UNL     1     -12.015   2.961 -33.702  0.00  0.00    +0.000 NA
BRANCH  18  19
ATOM     19  C   UNL     1     -11.389   2.102 -34.754  0.00  0.00    +0.000 C 
BRANCH  19  20
ATOM     20  C   UNL     1     -10.474   1.073 -34.072  0.00  0.00    +0.000 C 
BRANCH  20  23
ATOM     21 CL   UNL     1      -6.188   4.142 -33.768  0.00  0.00    +0.000 Cl
ATOM     22 CL   UNL     1      -4.420   1.423 -33.997  0.00  0.00    +0.000 Cl
ATOM     23  C   UNL     1      -8.971   1.277 -34.101  0.00  0.00    +0.000 A 
ATOM     24  C   UNL     1      -8.326   2.513 -33.964  0.00  0.00    +0.000 A 
ATOM     25  C   UNL     1      -8.177   0.117 -34.159  0.00  0.00    +0.000 A 
ATOM     26  C   UNL     1      -6.917   2.582 -33.931  0.00  0.00    +0.000 A 
ATOM     27  C   UNL     1      -6.784   0.180 -34.126  0.00  0.00    +0.000 A 
ATOM     28  C   UNL     1      -6.148   1.416 -34.019  0.00  0.00    +0.000 A 
ENDBRANCH  20  23
ENDBRANCH  19  20
ENDBRANCH  18  19
ENDBRANCH  16  18
ENDBRANCH   4  16
TORSDOF 6
ENDMDL
MODEL 2
REMARK VINA RESULT:      -5.3     23.961     25.539
REMARK  Name = 155269231
REMARK  6 active torsions:
REMARK  status: ('A' for Active; 'I' for Inactive)
REMARK    1  A    between atoms: N_7  and  C_10
REMARK    2  A    between atoms: N_7  and  C_12
REMARK    3  A    between atoms: C_9  and  C_10
REMARK    4  A    between atoms: C_11  and  C_15
REMARK    5  A    between atoms: C_12  and  C_14
REMARK    6  A    between atoms: C_14  and  C_17
REMARK                            x       y       z     vdW  Elec       q    Type
REMARK                         _______ _______ _______ _____ _____    ______ ____
ROOT
ATOM      1  S   UNL     1     -22.556  13.688 -54.681  0.00  0.00    +0.000 S 
ATOM      2  N   UNL     1     -21.690  11.768 -56.191  0.00  0.00    +0.000 N 
ATOM      3  N   UNL     1     -23.017  10.943 -54.581  0.00  0.00    +0.000 NA
ATOM      4  C   UNL     1     -21.666  10.397 -56.376  0.00  0.00    +0.000 A 
ATOM      5  C   UNL     1     -22.579   9.942 -55.411  0.00  0.00    +0.000 A 
ATOM      6  C   UNL     1     -22.454  12.001 -55.077  0.00  0.00    +0.000 A 
ATOM      7  C   UNL     1     -21.221  12.925 -56.783  0.00  0.00    +0.000 A 
ATOM      8  C   UNL     1     -21.596  14.035 -56.119  0.00  0.00    +0.000 A 
ENDROOT
BRANCH   5  10
ATOM      9 CL   UNL     1     -24.586   4.380 -54.552  0.00  0.00    +0.000 Cl
ATOM     10  C   UNL     1     -23.013   8.562 -55.214  0.00  0.00    +0.000 A 
ATOM     11  C   UNL     1     -22.473   7.749 -54.210  0.00  0.00    +0.000 A 
ATOM     12  C   UNL     1     -23.991   8.032 -56.064  0.00  0.00    +0.000 A 
ATOM     13  C   UNL     1     -22.967   6.463 -53.993  0.00  0.00    +0.000 A 
ATOM     14  C   UNL     1     -24.470   6.733 -55.868  0.00  0.00    +0.000 A 
ATOM     15  C   UNL     1     -23.967   5.960 -54.822  0.00  0.00    +0.000 A 
ENDBRANCH   5  10
BRANCH   4  16
ATOM     16  C   UNL     1     -20.892   9.566 -57.366  0.00  0.00    +0.000 C 
BRANCH  16  18
ATOM     17 CL   UNL     1     -18.543  10.688 -58.055  0.00  0.00    +0.000 Cl
ATOM     18  N   UNL     1     -19.443   9.420 -57.179  0.00  0.00    +0.000 NA
BRANCH  18  19
ATOM     19  C   UNL     1     -18.976   8.072 -57.628  0.00  0.00    +0.000 C 
BRANCH  19  20
ATOM     20  C   UNL     1     -19.465   7.019 -56.621  0.00  0.00    +0.000 C 
BRANCH  20  23
ATOM     21 CL   UNL     1     -23.343   5.476 -59.856  0.00  0.00    +0.000 Cl
ATOM     22 CL   UNL     1     -23.581   2.794 -58.032  0.00  0.00    +0.000 Cl
ATOM     23  C   UNL     1     -20.564   6.054 -57.026  0.00  0.00    +0.000 A 
ATOM     24  C   UNL     1     -21.398   6.210 -58.141  0.00  0.00    +0.000 A 
ATOM     25  C   UNL     1     -20.667   4.865 -56.282  0.00  0.00    +0.000 A 
ATOM     26  C   UNL     1     -22.341   5.214 -58.471  0.00  0.00    +0.000 A 
ATOM     27  C   UNL     1     -21.597   3.877 -56.604  0.00  0.00    +0.000 A 
ATOM     28  C   UNL     1     -22.444   4.052 -57.697  0.00  0.00    +0.000 A 
ENDBRANCH  20  23
ENDBRANCH  19  20
ENDBRANCH  18  19
ENDBRANCH  16  18
ENDBRANCH   4  16
TORSDOF 6
ENDMDL
MODEL 3
REMARK VINA RESULT:      -5.0     24.263     26.403
REMARK  Name = 155269231
REMARK  6 active torsions:
REMARK  status: ('A' for Active; 'I' for Inactive)
REMARK    1  A    between atoms: N_7  and  C_10
REMARK    2  A    between atoms: N_7  and  C_12
REMARK    3  A    between atoms: C_9  and  C_10
REMARK    4  A    between atoms: C_11  and  C_15
REMARK    5  A    between atoms: C_12  and  C_14
REMARK    6  A    between atoms: C_14  and  C_17
REMARK                            x       y       z     vdW  Elec       q    Type
REMARK                         _______ _______ _______ _____ _____    ______ ____
ROOT
ATOM      1  S   UNL     1     -26.475   2.682 -54.464  0.00  0.00    +0.000 S 
ATOM      2  N   UNL     1     -25.341   3.650 -56.584  0.00  0.00    +0.000 N 
ATOM      3  N   UNL     1     -24.224   4.298 -54.749  0.00  0.00    +0.000 NA
ATOM      4  C   UNL     1     -24.334   4.475 -57.052  0.00  0.00    +0.000 A 
ATOM      5  C   UNL     1     -23.615   4.773 -55.883  0.00  0.00    +0.000 A 
ATOM      6  C   UNL     1     -25.247   3.651 -55.217  0.00  0.00    +0.000 A 
ATOM      7  C   UNL     1     -26.351   2.837 -57.060  0.00  0.00    +0.000 A 
ATOM      8  C   UNL     1     -27.045   2.239 -56.072  0.00  0.00    +0.000 A 
ENDROOT
BRANCH   5  10
ATOM      9 CL   UNL     1     -18.685   8.143 -55.661  0.00  0.00    +0.000 Cl
ATOM     10  C   UNL     1     -22.381   5.550 -55.801  0.00  0.00    +0.000 A 
ATOM     11  C   UNL     1     -21.209   5.153 -56.454  0.00  0.00    +0.000 A 
ATOM     12  C   UNL     1     -22.368   6.722 -55.035  0.00  0.00    +0.000 A 
ATOM     13  C   UNL     1     -20.070   5.959 -56.426  0.00  0.00    +0.000 A 
ATOM     14  C   UNL     1     -21.221   7.519 -54.980  0.00  0.00    +0.000 A 
ATOM     15  C   UNL     1     -20.082   7.141 -55.690  0.00  0.00    +0.000 A 
ENDBRANCH   5  10
BRANCH   4  16
ATOM     16  C   UNL     1     -24.033   4.939 -58.453  0.00  0.00    +0.000 C 
BRANCH  16  18
ATOM     17 CL   UNL     1     -25.695   4.896 -60.572  0.00  0.00    +0.000 Cl
ATOM     18  N   UNL     1     -25.035   5.754 -59.153  0.00  0.00    +0.000 NA
BRANCH  18  19
ATOM     19  C   UNL     1     -24.458   7.064 -59.582  0.00  0.00    +0.000 C 
BRANCH  19  20
ATOM     20  C   UNL     1     -22.952   7.066 -59.273  0.00  0.00    +0.000 C 
BRANCH  20  23
ATOM     21 CL   UNL     1     -23.023  11.179 -55.962  0.00  0.00    +0.000 Cl
ATOM     22 CL   UNL     1     -19.970  11.784 -56.902  0.00  0.00    +0.000 Cl
ATOM     23  C   UNL     1     -22.319   8.302 -58.662  0.00  0.00    +0.000 A 
ATOM     24  C   UNL     1     -22.922   9.120 -57.698  0.00  0.00    +0.000 A 
ATOM     25  C   UNL     1     -20.984   8.569 -59.018  0.00  0.00    +0.000 A 
ATOM     26  C   UNL     1     -22.214  10.206 -57.140  0.00  0.00    +0.000 A 
ATOM     27  C   UNL     1     -20.279   9.640 -58.469  0.00  0.00    +0.000 A 
ATOM     28  C   UNL     1     -20.896  10.468 -57.532  0.00  0.00    +0.000 A 
ENDBRANCH  20  23
ENDBRANCH  19  20
ENDBRANCH  18  19
ENDBRANCH  16  18
ENDBRANCH   4  16
TORSDOF 6
ENDMDL
MODEL 4
REMARK VINA RESULT:      -4.8      3.758      6.747
REMARK  Name = 155269231
REMARK  6 active torsions:
REMARK  status: ('A' for Active; 'I' for Inactive)
REMARK    1  A    between atoms: N_7  and  C_10
REMARK    2  A    between atoms: N_7  and  C_12
REMARK    3  A    between atoms: C_9  and  C_10
REMARK    4  A    between atoms: C_11  and  C_15
REMARK    5  A    between atoms: C_12  and  C_14
REMARK    6  A    between atoms: C_14  and  C_17
REMARK                            x       y       z     vdW  Elec       q    Type
REMARK                         _______ _______ _______ _____ _____    ______ ____
ROOT
ATOM      1  S   UNL     1     -16.223   7.899 -35.261  0.00  0.00    +0.000 S 
ATOM      2  N   UNL     1     -14.545   6.567 -33.801  0.00  0.00    +0.000 N 
ATOM      3  N   UNL     1     -13.524   7.329 -35.648  0.00  0.00    +0.000 NA
ATOM      4  C   UNL     1     -13.256   6.072 -33.726  0.00  0.00    +0.000 A 
ATOM      5  C   UNL     1     -12.640   6.651 -34.847  0.00  0.00    +0.000 A 
ATOM      6  C   UNL     1     -14.639   7.240 -34.991  0.00  0.00    +0.000 A 
ATOM      7  C   UNL     1     -15.708   6.612 -33.056  0.00  0.00    +0.000 A 
ATOM      8  C   UNL     1     -16.695   7.287 -33.676  0.00  0.00    +0.000 A 
ENDROOT
BRANCH   5  10
ATOM      9 CL   UNL     1      -6.894   6.407 -36.470  0.00  0.00    +0.000 Cl
ATOM     10  C   UNL     1     -11.231   6.537 -35.216  0.00  0.00    +0.000 A 
ATOM     11  C   UNL     1     -10.763   5.515 -36.049  0.00  0.00    +0.000 A 
ATOM     12  C   UNL     1     -10.321   7.472 -34.709  0.00  0.00    +0.000 A 
ATOM     13  C   UNL     1      -9.427   5.481 -36.451  0.00  0.00    +0.000 A 
ATOM     14  C   UNL     1      -8.976   7.426 -35.087  0.00  0.00    +0.000 A 
ATOM     15  C   UNL     1      -8.538   6.439 -35.970  0.00  0.00    +0.000 A 
ENDBRANCH   5  10
BRANCH   4  16
ATOM     16  C   UNL     1     -12.625   5.162 -32.705  0.00  0.00    +0.000 C 
BRANCH  16  18
ATOM     17 CL   UNL     1     -12.847   3.120 -34.446  0.00  0.00    +0.000 Cl
ATOM     18  N   UNL     1     -12.919   3.725 -32.769  0.00  0.00    +0.000 NA
BRANCH  18  19
ATOM     19  C   UNL     1     -14.262   3.424 -32.184  0.00  0.00    +0.000 C 
BRANCH  19  20
ATOM     20  C   UNL     1     -14.874   2.232 -32.937  0.00  0.00    +0.000 C 
BRANCH  20  23
ATOM     21 CL   UNL     1     -19.260  -0.705 -33.046  0.00  0.00    +0.000 Cl
ATOM     22 CL   UNL     1     -20.936   2.079 -32.937  0.00  0.00    +0.000 Cl
ATOM     23  C   UNL     1     -16.382   2.084 -32.999  0.00  0.00    +0.000 A 
ATOM     24  C   UNL     1     -17.068   0.863 -33.024  0.00  0.00    +0.000 A 
ATOM     25  C   UNL     1     -17.137   3.268 -32.914  0.00  0.00    +0.000 A 
ATOM     26  C   UNL     1     -18.479   0.838 -33.007  0.00  0.00    +0.000 A 
ATOM     27  C   UNL     1     -18.532   3.249 -32.896  0.00  0.00    +0.000 A 
ATOM     28  C   UNL     1     -19.209   2.031 -32.950  0.00  0.00    +0.000 A 
ENDBRANCH  20  23
ENDBRANCH  19  20
ENDBRANCH  18  19
ENDBRANCH  16  18
ENDBRANCH   4  16
TORSDOF 6
ENDMDL
MODEL 5
REMARK VINA RESULT:      -4.8     23.491     26.168
REMARK  Name = 155269231
REMARK  6 active torsions:
REMARK  status: ('A' for Active; 'I' for Inactive)
REMARK    1  A    between atoms: N_7  and  C_10
REMARK    2  A    between atoms: N_7  and  C_12
REMARK    3  A    between atoms: C_9  and  C_10
REMARK    4  A    between atoms: C_11  and  C_15
REMARK    5  A    between atoms: C_12  and  C_14
REMARK    6  A    between atoms: C_14  and  C_17
REMARK                            x       y       z     vdW  Elec       q    Type
REMARK                         _______ _______ _______ _____ _____    ______ ____
ROOT
ATOM      1  S   UNL     1      -1.774   7.769 -59.124  0.00  0.00    +0.000 S 
ATOM      2  N   UNL     1      -3.812   6.172 -59.249  0.00  0.00    +0.000 N 
ATOM      3  N   UNL     1      -2.815   5.993 -57.247  0.00  0.00    +0.000 NA
ATOM      4  C   UNL     1      -4.518   5.185 -58.586  0.00  0.00    +0.000 A 
ATOM      5  C   UNL     1      -3.917   5.179 -57.316  0.00  0.00    +0.000 A 
ATOM      6  C   UNL     1      -2.789   6.549 -58.419  0.00  0.00    +0.000 A 
ATOM      7  C   UNL     1      -3.844   6.884 -60.433  0.00  0.00    +0.000 A 
ATOM      8  C   UNL     1      -2.843   7.780 -60.527  0.00  0.00    +0.000 A 
ENDROOT
BRANCH   5  10
ATOM      9 CL   UNL     1      -5.760   1.771 -52.768  0.00  0.00    +0.000 Cl
ATOM     10  C   UNL     1      -4.329   4.377 -56.168  0.00  0.00    +0.000 A 
ATOM     11  C   UNL     1      -4.957   4.944 -55.053  0.00  0.00    +0.000 A 
ATOM     12  C   UNL     1      -4.077   3.000 -56.178  0.00  0.00    +0.000 A 
ATOM     13  C   UNL     1      -5.414   4.140 -54.008  0.00  0.00    +0.000 A 
ATOM     14  C   UNL     1      -4.509   2.194 -55.121  0.00  0.00    +0.000 A 
ATOM     15  C   UNL     1      -5.190   2.766 -54.048  0.00  0.00    +0.000 A 
ENDBRANCH   5  10
BRANCH   4  16
ATOM     16  C   UNL     1      -5.663   4.327 -59.059  0.00  0.00    +0.000 C 
BRANCH  16  18
ATOM     17 CL   UNL     1      -3.693   2.782 -60.052  0.00  0.00    +0.000 Cl
ATOM     18  N   UNL     1      -5.378   2.952 -59.489  0.00  0.00    +0.000 NA
BRANCH  18  19
ATOM     19  C   UNL     1      -6.315   2.523 -60.573  0.00  0.00    +0.000 C 
BRANCH  19  20
ATOM     20  C   UNL     1      -6.822   3.772 -61.311  0.00  0.00    +0.000 C 
BRANCH  20  23
ATOM     21 CL   UNL     1      -5.017   6.954 -65.119  0.00  0.00    +0.000 Cl
ATOM     22 CL   UNL     1      -4.861   4.323 -67.023  0.00  0.00    +0.000 Cl
ATOM     23  C   UNL     1      -6.373   4.030 -62.737  0.00  0.00    +0.000 A 
ATOM     24  C   UNL     1      -5.966   5.273 -63.238  0.00  0.00    +0.000 A 
ATOM     25  C   UNL     1      -6.256   2.906 -63.575  0.00  0.00    +0.000 A 
ATOM     26  C   UNL     1      -5.495   5.388 -64.564  0.00  0.00    +0.000 A 
ATOM     27  C   UNL     1      -5.791   3.014 -64.886  0.00  0.00    +0.000 A 
ATOM     28  C   UNL     1      -5.416   4.259 -65.388  0.00  0.00    +0.000 A 
ENDBRANCH  20  23
ENDBRANCH  19  20
ENDBRANCH  18  19
ENDBRANCH  16  18
ENDBRANCH   4  16
TORSDOF 6
ENDMDL
MODEL 6
REMARK VINA RESULT:      -4.8     19.955     21.914
REMARK  Name = 155269231
REMARK  6 active torsions:
REMARK  status: ('A' for Active; 'I' for Inactive)
REMARK    1  A    between atoms: N_7  and  C_10
REMARK    2  A    between atoms: N_7  and  C_12
REMARK    3  A    between atoms: C_9  and  C_10
REMARK    4  A    between atoms: C_11  and  C_15
REMARK    5  A    between atoms: C_12  and  C_14
REMARK    6  A    between atoms: C_14  and  C_17
REMARK                            x       y       z     vdW  Elec       q    Type
REMARK                         _______ _______ _______ _____ _____    ______ ____
ROOT
ATOM      1  S   UNL     1     -25.929  -4.279 -49.647  0.00  0.00    +0.000 S 
ATOM      2  N   UNL     1     -26.003  -1.718 -50.033  0.00  0.00    +0.000 N 
ATOM      3  N   UNL     1     -26.412  -2.184 -47.877  0.00  0.00    +0.000 NA
ATOM      4  C   UNL     1     -26.258  -0.492 -49.446  0.00  0.00    +0.000 A 
ATOM      5  C   UNL     1     -26.413  -0.829 -48.091  0.00  0.00    +0.000 A 
ATOM      6  C   UNL     1     -26.178  -2.665 -49.059  0.00  0.00    +0.000 A 
ATOM      7  C   UNL     1     -25.614  -2.250 -51.247  0.00  0.00    +0.000 A 
ATOM      8  C   UNL     1     -25.514  -3.593 -51.217  0.00  0.00    +0.000 A 
ENDROOT
BRANCH   5  10
ATOM      9 CL   UNL     1     -27.161   2.810 -43.411  0.00  0.00    +0.000 Cl
ATOM     10  C   UNL     1     -26.617   0.104 -46.985  0.00  0.00    +0.000 A 
ATOM     11  C   UNL     1     -27.886   0.585 -46.644  0.00  0.00    +0.000 A 
ATOM     12  C   UNL     1     -25.506   0.539 -46.253  0.00  0.00    +0.000 A 
ATOM     13  C   UNL     1     -28.060   1.408 -45.532  0.00  0.00    +0.000 A 
ATOM     14  C   UNL     1     -25.672   1.387 -45.154  0.00  0.00    +0.000 A 
ATOM     15  C   UNL     1     -26.951   1.805 -44.788  0.00  0.00    +0.000 A 
ENDBRANCH   5  10
BRANCH   4  16
ATOM     16  C   UNL     1     -26.334   0.881 -50.060  0.00  0.00    +0.000 C 
BRANCH  16  18
ATOM     17 CL   UNL     1     -23.677   0.822 -49.621  0.00  0.00    +0.000 Cl
ATOM     18  N   UNL     1     -25.083   1.546 -50.448  0.00  0.00    +0.000 NA
BRANCH  18  19
ATOM     19  C   UNL     1     -25.138   3.011 -50.153  0.00  0.00    +0.000 C 
BRANCH  19  20
ATOM     20  C   UNL     1     -25.721   3.210 -48.745  0.00  0.00    +0.000 C 
BRANCH  20  23
ATOM     21 CL   UNL     1     -23.786   8.117 -48.513  0.00  0.00    +0.000 Cl
ATOM     22 CL   UNL     1     -25.236   8.381 -45.614  0.00  0.00    +0.000 Cl
ATOM     23  C   UNL     1     -25.489   4.522 -48.021  0.00  0.00    +0.000 A 
ATOM     24  C   UNL     1     -24.779   5.612 -48.542  0.00  0.00    +0.000 A 
ATOM     25  C   UNL     1     -26.136   4.684 -46.782  0.00  0.00    +0.000 A 
ATOM     26  C   UNL     1     -24.686   6.816 -47.813  0.00  0.00    +0.000 A 
ATOM     27  C   UNL     1     -26.048   5.872 -46.058  0.00  0.00    +0.000 A 
ATOM     28  C   UNL     1     -25.315   6.942 -46.569  0.00  0.00    +0.000 A 
ENDBRANCH  20  23
ENDBRANCH  19  20
ENDBRANCH  18  19
ENDBRANCH  16  18
ENDBRANCH   4  16
TORSDOF 6
ENDMDL
MODEL 7
REMARK VINA RESULT:      -4.7     22.434     24.709
REMARK  Name = 155269231
REMARK  6 active torsions:
REMARK  status: ('A' for Active; 'I' for Inactive)
REMARK    1  A    between atoms: N_7  and  C_10
REMARK    2  A    between atoms: N_7  and  C_12
REMARK    3  A    between atoms: C_9  and  C_10
REMARK    4  A    between atoms: C_11  and  C_15
REMARK    5  A    between atoms: C_12  and  C_14
REMARK    6  A    between atoms: C_14  and  C_17
REMARK                            x       y       z     vdW  Elec       q    Type
REMARK                         _______ _______ _______ _____ _____    ______ ____
ROOT
ATOM      1  S   UNL     1     -23.113  14.039 -54.385  0.00  0.00    +0.000 S 
ATOM      2  N   UNL     1     -22.696  11.731 -55.487  0.00  0.00    +0.000 N 
ATOM      3  N   UNL     1     -23.419  11.459 -53.381  0.00  0.00    +0.000 NA
ATOM      4  C   UNL     1     -22.681  10.364 -55.279  0.00  0.00    +0.000 A 
ATOM      5  C   UNL     1     -23.227  10.245 -53.990  0.00  0.00    +0.000 A 
ATOM      6  C   UNL     1     -23.079  12.306 -54.304  0.00  0.00    +0.000 A 
ATOM      7  C   UNL     1     -22.478  12.651 -56.495  0.00  0.00    +0.000 A 
ATOM      8  C   UNL     1     -22.666  13.921 -56.087  0.00  0.00    +0.000 A 
ENDROOT
BRANCH   5  10
ATOM      9 CL   UNL     1     -24.582   5.283 -50.951  0.00  0.00    +0.000 Cl
ATOM     10  C   UNL     1     -23.527   9.000 -53.289  0.00  0.00    +0.000 A 
ATOM     11  C   UNL     1     -22.521   8.195 -52.741  0.00  0.00    +0.000 A 
ATOM     12  C   UNL     1     -24.861   8.592 -53.174  0.00  0.00    +0.000 A 
ATOM     13  C   UNL     1     -22.844   7.055 -52.005  0.00  0.00    +0.000 A 
ATOM     14  C   UNL     1     -25.189   7.435 -52.461  0.00  0.00    +0.000 A 
ATOM     15  C   UNL     1     -24.178   6.680 -51.865  0.00  0.00    +0.000 A 
ENDBRANCH   5  10
BRANCH   4  16
ATOM     16  C   UNL     1     -22.227   9.250 -56.185  0.00  0.00    +0.000 C 
BRANCH  16  18
ATOM     17 CL   UNL     1     -19.788  10.169 -56.861  0.00  0.00    +0.000 Cl
ATOM     18  N   UNL     1     -20.807   8.873 -56.178  0.00  0.00    +0.000 NA
BRANCH  18  19
ATOM     19  C   UNL     1     -20.583   7.606 -56.939  0.00  0.00    +0.000 C 
BRANCH  19  20
ATOM     20  C   UNL     1     -20.513   6.437 -55.944  0.00  0.00    +0.000 C 
BRANCH  20  23
ATOM     21 CL   UNL     1     -25.512   5.048 -54.962  0.00  0.00    +0.000 Cl
ATOM     22 CL   UNL     1     -24.780   2.136 -56.211  0.00  0.00    +0.000 Cl
ATOM     23  C   UNL     1     -21.635   5.417 -55.911  0.00  0.00    +0.000 A 
ATOM     24  C   UNL     1     -22.937   5.671 -55.461  0.00  0.00    +0.000 A 
ATOM     25  C   UNL     1     -21.363   4.160 -56.481  0.00  0.00    +0.000 A 
ATOM     26  C   UNL     1     -23.928   4.668 -55.543  0.00  0.00    +0.000 A 
ATOM     27  C   UNL     1     -22.338   3.166 -56.565  0.00  0.00    +0.000 A 
ATOM     28  C   UNL     1     -23.624   3.415 -56.088  0.00  0.00    +0.000 A 
ENDBRANCH  20  23
ENDBRANCH  19  20
ENDBRANCH  18  19
ENDBRANCH  16  18
ENDBRANCH   4  16
TORSDOF 6
ENDMDL
MODEL 8
REMARK VINA RESULT:      -4.7     16.330     17.939
REMARK  Name = 155269231
REMARK  6 active torsions:
REMARK  status: ('A' for Active; 'I' for Inactive)
REMARK    1  A    between atoms: N_7  and  C_10
REMARK    2  A    between atoms: N_7  and  C_12
REMARK    3  A    between atoms: C_9  and  C_10
REMARK    4  A    between atoms: C_11  and  C_15
REMARK    5  A    between atoms: C_12  and  C_14
REMARK    6  A    between atoms: C_14  and  C_17
REMARK                            x       y       z     vdW  Elec       q    Type
REMARK                         _______ _______ _______ _____ _____    ______ ____
ROOT
ATOM      1  S   UNL     1     -18.445  19.536 -40.307  0.00  0.00    +0.000 S 
ATOM      2  N   UNL     1     -18.095  17.546 -41.932  0.00  0.00    +0.000 N 
ATOM      3  N   UNL     1     -16.325  18.924 -42.008  0.00  0.00    +0.000 NA
ATOM      4  C   UNL     1     -17.264  17.006 -42.896  0.00  0.00    +0.000 A 
ATOM      5  C   UNL     1     -16.140  17.846 -42.837  0.00  0.00    +0.000 A 
ATOM      6  C   UNL     1     -17.502  18.706 -41.505  0.00  0.00    +0.000 A 
ATOM      7  C   UNL     1     -19.278  17.266 -41.275  0.00  0.00    +0.000 A 
ATOM      8  C   UNL     1     -19.606  18.210 -40.372  0.00  0.00    +0.000 A 
ENDROOT
BRANCH   5  10
ATOM      9 CL   UNL     1     -11.202  17.169 -46.132  0.00  0.00    +0.000 Cl
ATOM     10  C   UNL     1     -14.899  17.686 -43.591  0.00  0.00    +0.000 A 
ATOM     11  C   UNL     1     -14.029  16.613 -43.370  0.00  0.00    +0.000 A 
ATOM     12  C   UNL     1     -14.565  18.644 -44.556  0.00  0.00    +0.000 A 
ATOM     13  C   UNL     1     -12.895  16.441 -44.163  0.00  0.00    +0.000 A 
ATOM     14  C   UNL     1     -13.415  18.492 -45.335  0.00  0.00    +0.000 A 
ATOM     15  C   UNL     1     -12.593  17.381 -45.145  0.00  0.00    +0.000 A 
ENDBRANCH   5  10
BRANCH   4  16
ATOM     16  C   UNL     1     -17.463  15.808 -43.787  0.00  0.00    +0.000 C 
BRANCH  16  18
ATOM     17 CL   UNL     1     -20.028  15.002 -43.931  0.00  0.00    +0.000 Cl
ATOM     18  N   UNL     1     -18.620  15.791 -44.692  0.00  0.00    +0.000 NA
BRANCH  18  19
ATOM     19  C   UNL     1     -18.289  15.098 -45.975  0.00  0.00    +0.000 C 
BRANCH  19  20
ATOM     20  C   UNL     1     -16.763  14.950 -46.077  0.00  0.00    +0.000 C 
BRANCH  20  23
ATOM     21 CL   UNL     1     -16.808  15.672 -51.308  0.00  0.00    +0.000 Cl
ATOM     22 CL   UNL     1     -13.674  16.502 -51.060  0.00  0.00    +0.000 Cl
ATOM     23  C   UNL     1     -16.070  15.265 -47.389  0.00  0.00    +0.000 A 
ATOM     24  C   UNL     1     -16.696  15.291 -48.642  0.00  0.00    +0.000 A 
ATOM     25  C   UNL     1     -14.723  15.666 -47.312  0.00  0.00    +0.000 A 
ATOM     26  C   UNL     1     -15.973  15.669 -49.793  0.00  0.00    +0.000 A 
ATOM     27  C   UNL     1     -14.004  16.042 -48.446  0.00  0.00    +0.000 A 
ATOM     28  C   UNL     1     -14.626  16.037 -49.694  0.00  0.00    +0.000 A 
ENDBRANCH  20  23
ENDBRANCH  19  20
ENDBRANCH  18  19
ENDBRANCH  16  18
ENDBRANCH   4  16
TORSDOF 6
ENDMDL
MODEL 9
REMARK VINA RESULT:      -4.6      1.578      2.285
REMARK  Name = 155269231
REMARK  6 active torsions:
REMARK  status: ('A' for Active; 'I' for Inactive)
REMARK    1  A    between atoms: N_7  and  C_10
REMARK    2  A    between atoms: N_7  and  C_12
REMARK    3  A    between atoms: C_9  and  C_10
REMARK    4  A    between atoms: C_11  and  C_15
REMARK    5  A    between atoms: C_12  and  C_14
REMARK    6  A    between atoms: C_14  and  C_17
REMARK                            x       y       z     vdW  Elec       q    Type
REMARK                         _______ _______ _______ _____ _____    ______ ____
ROOT
ATOM      1  S   UNL     1     -14.921   7.706 -35.539  0.00  0.00    +0.000 S 
ATOM      2  N   UNL     1     -13.145   6.521 -34.069  0.00  0.00    +0.000 N 
ATOM      3  N   UNL     1     -12.339   6.847 -36.137  0.00  0.00    +0.000 NA
ATOM      4  C   UNL     1     -11.891   5.939 -34.058  0.00  0.00    +0.000 A 
ATOM      5  C   UNL     1     -11.398   6.252 -35.336  0.00  0.00    +0.000 A 
ATOM      6  C   UNL     1     -13.359   6.973 -35.344  0.00  0.00    +0.000 A 
ATOM      7  C   UNL     1     -14.191   6.798 -33.210  0.00  0.00    +0.000 A 
ATOM      8  C   UNL     1     -15.210   7.433 -33.821  0.00  0.00    +0.000 A 
ENDROOT
BRANCH   5  10
ATOM      9 CL   UNL     1      -5.955   5.224 -37.576  0.00  0.00    +0.000 Cl
ATOM     10  C   UNL     1     -10.062   5.952 -35.845  0.00  0.00    +0.000 A 
ATOM     11  C   UNL     1      -9.767   4.747 -36.492  0.00  0.00    +0.000 A 
ATOM     12  C   UNL     1      -9.043   6.896 -35.669  0.00  0.00    +0.000 A 
ATOM     13  C   UNL     1      -8.504   4.525 -37.042  0.00  0.00    +0.000 A 
ATOM     14  C   UNL     1      -7.768   6.667 -36.194  0.00  0.00    +0.000 A 
ATOM     15  C   UNL     1      -7.509   5.488 -36.892  0.00  0.00    +0.000 A 
ENDBRANCH   5  10
BRANCH   4  16
ATOM     16  C   UNL     1     -11.184   5.177 -32.968  0.00  0.00    +0.000 C 
BRANCH  16  18
ATOM     17 CL   UNL     1     -11.850   3.096 -31.394  0.00  0.00    +0.000 Cl
ATOM     18  N   UNL     1     -11.270   3.711 -32.966  0.00  0.00    +0.000 NA
BRANCH  18  19
ATOM     19  C   UNL     1      -9.947   3.094 -33.289  0.00  0.00    +0.000 C 
BRANCH  19  20
ATOM     20  C   UNL     1     -10.153   1.595 -33.557  0.00  0.00    +0.000 C 
BRANCH  20  23
ATOM     21 CL   UNL     1      -7.730  -2.947 -34.731  0.00  0.00    +0.000 Cl
ATOM     22 CL   UNL     1      -5.781  -1.220 -36.678  0.00  0.00    +0.000 Cl
ATOM     23  C   UNL     1      -9.058   0.803 -34.246  0.00  0.00    +0.000 A 
ATOM     24  C   UNL     1      -8.893  -0.585 -34.155  0.00  0.00    +0.000 A 
ATOM     25  C   UNL     1      -8.223   1.515 -35.127  0.00  0.00    +0.000 A 
ATOM     26  C   UNL     1      -7.883  -1.233 -34.898  0.00  0.00    +0.000 A 
ATOM     27  C   UNL     1      -7.224   0.879 -35.864  0.00  0.00    +0.000 A 
ATOM     28  C   UNL     1      -7.045  -0.498 -35.746  0.00  0.00    +0.000 A 
ENDBRANCH  20  23
ENDBRANCH  19  20
ENDBRANCH  18  19
ENDBRANCH  16  18
ENDBRANCH   4  16
TORSDOF 6
ENDMDL
MODEL 10
REMARK VINA RESULT:      -4.6     23.148     25.365
REMARK  Name = 155269231
REMARK  6 active torsions:
REMARK  status: ('A' for Active; 'I' for Inactive)
REMARK    1  A    between atoms: N_7  and  C_10
REMARK    2  A    between atoms: N_7  and  C_12
REMARK    3  A    between atoms: C_9  and  C_10
REMARK    4  A    between atoms: C_11  and  C_15
REMARK    5  A    between atoms: C_12  and  C_14
REMARK    6  A    between atoms: C_14  and  C_17
REMARK                            x       y       z     vdW  Elec       q    Type
REMARK                         _______ _______ _______ _____ _____    ______ ____
ROOT
ATOM      1  S   UNL     1     -22.095  13.360 -56.207  0.00  0.00    +0.000 S 
ATOM      2  N   UNL     1     -21.574  10.875 -56.723  0.00  0.00    +0.000 N 
ATOM      3  N   UNL     1     -22.838  11.029 -54.875  0.00  0.00    +0.000 NA
ATOM      4  C   UNL     1     -21.713   9.573 -56.276  0.00  0.00    +0.000 A 
ATOM      5  C   UNL     1     -22.582   9.717 -55.183  0.00  0.00    +0.000 A 
ATOM      6  C   UNL     1     -22.209  11.675 -55.809  0.00  0.00    +0.000 A 
ATOM      7  C   UNL     1     -21.037  11.579 -57.783  0.00  0.00    +0.000 A 
ATOM      8  C   UNL     1     -21.232  12.908 -57.676  0.00  0.00    +0.000 A 
ENDROOT
BRANCH   5  10
ATOM      9 CL   UNL     1     -24.666   5.165 -51.919  0.00  0.00    +0.000 Cl
ATOM     10  C   UNL     1     -23.143   8.636 -54.376  0.00  0.00    +0.000 A 
ATOM     11  C   UNL     1     -24.295   7.942 -54.764  0.00  0.00    +0.000 A 
ATOM     12  C   UNL     1     -22.516   8.293 -53.173  0.00  0.00    +0.000 A 
ATOM     13  C   UNL     1     -24.759   6.859 -54.015  0.00  0.00    +0.000 A 
ATOM     14  C   UNL     1     -22.993   7.227 -52.405  0.00  0.00    +0.000 A 
ATOM     15  C   UNL     1     -24.104   6.504 -52.839  0.00  0.00    +0.000 A 
ENDBRANCH   5  10
BRANCH   4  16
ATOM     16  C   UNL     1     -21.122   8.296 -56.812  0.00  0.00    +0.000 C 
BRANCH  16  18
ATOM     17 CL   UNL     1     -18.449   8.263 -57.141  0.00  0.00    +0.000 Cl
ATOM     18  N   UNL     1     -19.888   7.783 -56.201  0.00  0.00    +0.000 NA
BRANCH  18  19
ATOM     19  C   UNL     1     -19.931   6.294 -56.074  0.00  0.00    +0.000 C 
BRANCH  19  20
ATOM     20  C   UNL     1     -21.352   5.872 -55.670  0.00  0.00    +0.000 C 
BRANCH  20  23
ATOM     21 CL   UNL     1     -25.078   2.189 -56.328  0.00  0.00    +0.000 Cl
ATOM     22 CL   UNL     1     -24.268   2.160 -59.477  0.00  0.00    +0.000 Cl
ATOM     23  C   UNL     1     -22.103   4.868 -56.523  0.00  0.00    +0.000 A 
ATOM     24  C   UNL     1     -23.136   4.039 -56.066  0.00  0.00    +0.000 A 
ATOM     25  C   UNL     1     -21.804   4.858 -57.898  0.00  0.00    +0.000 A 
ATOM     26  C   UNL     1     -23.819   3.191 -56.963  0.00  0.00    +0.000 A 
ATOM     27  C   UNL     1     -22.477   4.022 -58.789  0.00  0.00    +0.000 A 
ATOM     28  C   UNL     1     -23.484   3.178 -58.322  0.00  0.00    +0.000 A 
ENDBRANCH  20  23
ENDBRANCH  19  20
ENDBRANCH  18  19
ENDBRANCH  16  18
ENDBRANCH   4  16
TORSDOF 6
ENDMDL
