MODEL 1
REMARK VINA RESULT:      -5.4      0.000      0.000
REMARK  Name = 155269217
REMARK  5 active torsions:
REMARK  status: ('A' for Active; 'I' for Inactive)
REMARK    1  A    between atoms: O_5  and  N_8
REMARK    2  A    between atoms: O_5  and  C_21
REMARK    3  A    between atoms: C_9  and  C_14
REMARK    4  A    between atoms: C_10  and  C_12
REMARK    5  A    between atoms: C_20  and  C_21
REMARK                            x       y       z     vdW  Elec       q    Type
REMARK                         _______ _______ _______ _____ _____    ______ ____
ROOT
ATOM      1  S   UNL     1     -22.741   9.816 -59.754  0.00  0.00    +0.000 S 
ATOM      2  N   UNL     1     -21.047   9.442 -57.838  0.00  0.00    +0.000 N 
ATOM      3  N   UNL     1     -23.081   8.746 -57.203  0.00  0.00    +0.000 NA
ATOM      4  C   UNL     1     -20.870   8.952 -56.555  0.00  0.00    +0.000 A 
ATOM      5  C   UNL     1     -22.168   8.555 -56.188  0.00  0.00    +0.000 A 
ATOM      6  C   UNL     1     -22.369   9.284 -58.145  0.00  0.00    +0.000 A 
ATOM      7  C   UNL     1     -20.298   9.975 -58.874  0.00  0.00    +0.000 A 
ATOM      8  C   UNL     1     -21.043  10.240 -59.958  0.00  0.00    +0.000 A 
ENDROOT
BRANCH   5  10
ATOM      9 BR   UNL     1     -23.997   6.013 -50.898  0.00  0.00    +0.000 Br
ATOM     10  C   UNL     1     -22.585   7.970 -54.920  0.00  0.00    +0.000 A 
ATOM     11  C   UNL     1     -23.374   6.810 -54.932  0.00  0.00    +0.000 A 
ATOM     12  C   UNL     1     -22.257   8.554 -53.690  0.00  0.00    +0.000 A 
ATOM     13  C   UNL     1     -23.794   6.224 -53.732  0.00  0.00    +0.000 A 
ATOM     14  C   UNL     1     -22.667   7.963 -52.491  0.00  0.00    +0.000 A 
ATOM     15  C   UNL     1     -23.430   6.802 -52.519  0.00  0.00    +0.000 A 
ENDBRANCH   5  10
BRANCH   4  17
ATOM     16  N   UNL     1     -18.792   7.796 -55.812  0.00  0.00    +0.000 NA
ATOM     17  C   UNL     1     -19.658   8.765 -55.795  0.00  0.00    +0.000 C 
BRANCH  16  18
ATOM     18  O   UNL     1     -19.068   6.850 -56.791  0.00  0.00    +0.000 OA
BRANCH  18  19
ATOM     19  C   UNL     1     -19.462   5.621 -56.177  0.00  0.00    +0.000 C 
BRANCH  19  22
ATOM     20 CL   UNL     1     -23.396   2.239 -56.176  0.00  0.00    +0.000 Cl
ATOM     21 CL   UNL     1     -24.466   3.620 -58.921  0.00  0.00    +0.000 Cl
ATOM     22  C   UNL     1     -20.718   5.126 -56.853  0.00  0.00    +0.000 A 
ATOM     23  C   UNL     1     -21.425   4.050 -56.304  0.00  0.00    +0.000 A 
ATOM     24  C   UNL     1     -21.172   5.691 -58.055  0.00  0.00    +0.000 A 
ATOM     25  C   UNL     1     -22.582   3.567 -56.925  0.00  0.00    +0.000 A 
ATOM     26  C   UNL     1     -22.330   5.219 -58.671  0.00  0.00    +0.000 A 
ATOM     27  C   UNL     1     -23.040   4.158 -58.107  0.00  0.00    +0.000 A 
ENDBRANCH  19  22
ENDBRANCH  18  19
ENDBRANCH  16  18
ENDBRANCH   4  17
TORSDOF 5
ENDMDL
MODEL 2
REMARK VINA RESULT:      -5.2     23.440     25.707
REMARK  Name = 155269217
REMARK  5 active torsions:
REMARK  status: ('A' for Active; 'I' for Inactive)
REMARK    1  A    between atoms: O_5  and  N_8
REMARK    2  A    between atoms: O_5  and  C_21
REMARK    3  A    between atoms: C_9  and  C_14
REMARK    4  A    between atoms: C_10  and  C_12
REMARK    5  A    between atoms: C_20  and  C_21
REMARK                            x       y       z     vdW  Elec       q    Type
REMARK                         _______ _______ _______ _____ _____    ______ ____
ROOT
ATOM      1  S   UNL     1     -11.478   1.534 -32.703  0.00  0.00    +0.000 S 
ATOM      2  N   UNL     1     -11.785   3.293 -34.573  0.00  0.00    +0.000 N 
ATOM      3  N   UNL     1      -9.602   2.913 -34.236  0.00  0.00    +0.000 NA
ATOM      4  C   UNL     1     -11.139   4.099 -35.494  0.00  0.00    +0.000 A 
ATOM      5  C   UNL     1      -9.781   3.852 -35.230  0.00  0.00    +0.000 A 
ATOM      6  C   UNL     1     -10.816   2.629 -33.876  0.00  0.00    +0.000 A 
ATOM      7  C   UNL     1     -13.073   2.941 -34.202  0.00  0.00    +0.000 A 
ATOM      8  C   UNL     1     -13.089   2.028 -33.218  0.00  0.00    +0.000 A 
ENDROOT
BRANCH   5  10
ATOM      9 BR   UNL     1      -4.953   6.458 -38.004  0.00  0.00    +0.000 Br
ATOM     10  C   UNL     1      -8.630   4.445 -35.899  0.00  0.00    +0.000 A 
ATOM     11  C   UNL     1      -8.259   5.761 -35.579  0.00  0.00    +0.000 A 
ATOM     12  C   UNL     1      -7.906   3.757 -36.881  0.00  0.00    +0.000 A 
ATOM     13  C   UNL     1      -7.161   6.361 -36.206  0.00  0.00    +0.000 A 
ATOM     14  C   UNL     1      -6.803   4.353 -37.499  0.00  0.00    +0.000 A 
ATOM     15  C   UNL     1      -6.435   5.649 -37.156  0.00  0.00    +0.000 A 
ENDBRANCH   5  10
BRANCH   4  17
ATOM     16  N   UNL     1     -11.933   6.186 -36.600  0.00  0.00    +0.000 NA
ATOM     17  C   UNL     1     -11.683   4.911 -36.555  0.00  0.00    +0.000 C 
BRANCH  16  18
ATOM     18  O   UNL     1     -11.515   6.852 -35.455  0.00  0.00    +0.000 OA
BRANCH  18  19
ATOM     19  C   UNL     1     -11.651   8.263 -35.641  0.00  0.00    +0.000 C 
BRANCH  19  22
ATOM     20 CL   UNL     1     -10.263  12.764 -33.466  0.00  0.00    +0.000 Cl
ATOM     21 CL   UNL     1      -8.462  11.080 -31.343  0.00  0.00    +0.000 Cl
ATOM     22  C   UNL     1     -10.865   8.969 -34.563  0.00  0.00    +0.000 A 
ATOM     23  C   UNL     1     -10.897  10.366 -34.481  0.00  0.00    +0.000 A 
ATOM     24  C   UNL     1     -10.058   8.256 -33.661  0.00  0.00    +0.000 A 
ATOM     25  C   UNL     1     -10.162  11.039 -33.498  0.00  0.00    +0.000 A 
ATOM     26  C   UNL     1      -9.333   8.924 -32.674  0.00  0.00    +0.000 A 
ATOM     27  C   UNL     1      -9.385  10.316 -32.587  0.00  0.00    +0.000 A 
ENDBRANCH  19  22
ENDBRANCH  18  19
ENDBRANCH  16  18
ENDBRANCH   4  17
TORSDOF 5
ENDMDL
MODEL 3
REMARK VINA RESULT:      -5.2      2.053      2.833
REMARK  Name = 155269217
REMARK  5 active torsions:
REMARK  status: ('A' for Active; 'I' for Inactive)
REMARK    1  A    between atoms: O_5  and  N_8
REMARK    2  A    between atoms: O_5  and  C_21
REMARK    3  A    between atoms: C_9  and  C_14
REMARK    4  A    between atoms: C_10  and  C_12
REMARK    5  A    between atoms: C_20  and  C_21
REMARK                            x       y       z     vdW  Elec       q    Type
REMARK                         _______ _______ _______ _____ _____    ______ ____
ROOT
ATOM      1  S   UNL     1     -24.335   9.637 -60.199  0.00  0.00    +0.000 S 
ATOM      2  N   UNL     1     -22.609  10.639 -58.556  0.00  0.00    +0.000 N 
ATOM      3  N   UNL     1     -23.875   9.122 -57.498  0.00  0.00    +0.000 NA
ATOM      4  C   UNL     1     -22.116  10.605 -57.263  0.00  0.00    +0.000 A 
ATOM      5  C   UNL     1     -22.952   9.667 -56.632  0.00  0.00    +0.000 A 
ATOM      6  C   UNL     1     -23.637   9.741 -58.613  0.00  0.00    +0.000 A 
ATOM      7  C   UNL     1     -22.343  11.255 -59.768  0.00  0.00    +0.000 A 
ATOM      8  C   UNL     1     -23.172  10.845 -60.741  0.00  0.00    +0.000 A 
ENDROOT
BRANCH   5  10
ATOM      9 BR   UNL     1     -22.668   7.754 -50.796  0.00  0.00    +0.000 Br
ATOM     10  C   UNL     1     -22.900   9.236 -55.241  0.00  0.00    +0.000 A 
ATOM     11  C   UNL     1     -22.072   8.158 -54.892  0.00  0.00    +0.000 A 
ATOM     12  C   UNL     1     -23.682   9.839 -54.247  0.00  0.00    +0.000 A 
ATOM     13  C   UNL     1     -22.001   7.716 -53.566  0.00  0.00    +0.000 A 
ATOM     14  C   UNL     1     -23.603   9.405 -52.920  0.00  0.00    +0.000 A 
ATOM     15  C   UNL     1     -22.762   8.349 -52.587  0.00  0.00    +0.000 A 
ENDBRANCH   5  10
BRANCH   4  17
ATOM     16  N   UNL     1     -19.695  11.109 -56.951  0.00  0.00    +0.000 NA
ATOM     17  C   UNL     1     -20.961  11.259 -56.696  0.00  0.00    +0.000 C 
BRANCH  16  18
ATOM     18  O   UNL     1     -19.463  10.232 -58.003  0.00  0.00    +0.000 OA
BRANCH  18  19
ATOM     19  C   UNL     1     -18.512   9.242 -57.605  0.00  0.00    +0.000 C 
BRANCH  19  22
ATOM     20 CL   UNL     1     -22.359   6.077 -59.056  0.00  0.00    +0.000 Cl
ATOM     21 CL   UNL     1     -21.445   4.031 -56.696  0.00  0.00    +0.000 Cl
ATOM     22  C   UNL     1     -19.239   7.937 -57.388  0.00  0.00    +0.000 A 
ATOM     23  C   UNL     1     -20.331   7.606 -58.201  0.00  0.00    +0.000 A 
ATOM     24  C   UNL     1     -18.876   7.061 -56.353  0.00  0.00    +0.000 A 
ATOM     25  C   UNL     1     -21.028   6.408 -58.004  0.00  0.00    +0.000 A 
ATOM     26  C   UNL     1     -19.562   5.861 -56.162  0.00  0.00    +0.000 A 
ATOM     27  C   UNL     1     -20.637   5.530 -56.988  0.00  0.00    +0.000 A 
ENDBRANCH  19  22
ENDBRANCH  18  19
ENDBRANCH  16  18
ENDBRANCH   4  17
TORSDOF 5
ENDMDL
MODEL 4
REMARK VINA RESULT:      -5.0     23.384     25.749
REMARK  Name = 155269217
REMARK  5 active torsions:
REMARK  status: ('A' for Active; 'I' for Inactive)
REMARK    1  A    between atoms: O_5  and  N_8
REMARK    2  A    between atoms: O_5  and  C_21
REMARK    3  A    between atoms: C_9  and  C_14
REMARK    4  A    between atoms: C_10  and  C_12
REMARK    5  A    between atoms: C_20  and  C_21
REMARK                            x       y       z     vdW  Elec       q    Type
REMARK                         _______ _______ _______ _____ _____    ______ ____
ROOT
ATOM      1  S   UNL     1      -9.790   9.332 -29.195  0.00  0.00    +0.000 S 
ATOM      2  N   UNL     1     -11.498   8.998 -31.107  0.00  0.00    +0.000 N 
ATOM      3  N   UNL     1     -10.667   7.016 -30.473  0.00  0.00    +0.000 NA
ATOM      4  C   UNL     1     -12.146   8.070 -31.904  0.00  0.00    +0.000 A 
ATOM      5  C   UNL     1     -11.577   6.852 -31.495  0.00  0.00    +0.000 A 
ATOM      6  C   UNL     1     -10.649   8.300 -30.295  0.00  0.00    +0.000 A 
ATOM      7  C   UNL     1     -11.496  10.363 -30.868  0.00  0.00    +0.000 A 
ATOM      8  C   UNL     1     -10.641  10.709 -29.893  0.00  0.00    +0.000 A 
ENDROOT
BRANCH   5  10
ATOM      9 BR   UNL     1     -12.765   1.257 -33.749  0.00  0.00    +0.000 Br
ATOM     10  C   UNL     1     -11.878   5.522 -32.010  0.00  0.00    +0.000 A 
ATOM     11  C   UNL     1     -11.072   4.986 -33.026  0.00  0.00    +0.000 A 
ATOM     12  C   UNL     1     -12.972   4.778 -31.549  0.00  0.00    +0.000 A 
ATOM     13  C   UNL     1     -11.335   3.713 -33.544  0.00  0.00    +0.000 A 
ATOM     14  C   UNL     1     -13.228   3.501 -32.059  0.00  0.00    +0.000 A 
ATOM     15  C   UNL     1     -12.408   2.976 -33.050  0.00  0.00    +0.000 A 
ENDBRANCH   5  10
BRANCH   4  17
ATOM     16  N   UNL     1     -13.210   8.353 -34.139  0.00  0.00    +0.000 NA
ATOM     17  C   UNL     1     -13.226   8.253 -32.844  0.00  0.00    +0.000 C 
BRANCH  16  18
ATOM     18  O   UNL     1     -11.942   8.164 -34.674  0.00  0.00    +0.000 OA
BRANCH  18  19
ATOM     19  C   UNL     1     -12.050   7.773 -36.045  0.00  0.00    +0.000 C 
BRANCH  19  22
ATOM     20 CL   UNL     1      -7.173   6.034 -35.721  0.00  0.00    +0.000 Cl
ATOM     21 CL   UNL     1      -8.162   3.267 -37.119  0.00  0.00    +0.000 Cl
ATOM     22  C   UNL     1     -11.079   6.646 -36.301  0.00  0.00    +0.000 A 
ATOM     23  C   UNL     1      -9.733   6.795 -35.948  0.00  0.00    +0.000 A 
ATOM     24  C   UNL     1     -11.486   5.460 -36.933  0.00  0.00    +0.000 A 
ATOM     25  C   UNL     1      -8.814   5.768 -36.193  0.00  0.00    +0.000 A 
ATOM     26  C   UNL     1     -10.575   4.430 -37.169  0.00  0.00    +0.000 A 
ATOM     27  C   UNL     1      -9.238   4.579 -36.797  0.00  0.00    +0.000 A 
ENDBRANCH  19  22
ENDBRANCH  18  19
ENDBRANCH  16  18
ENDBRANCH   4  17
TORSDOF 5
ENDMDL
MODEL 5
REMARK VINA RESULT:      -4.9     25.984     28.283
REMARK  Name = 155269217
REMARK  5 active torsions:
REMARK  status: ('A' for Active; 'I' for Inactive)
REMARK    1  A    between atoms: O_5  and  N_8
REMARK    2  A    between atoms: O_5  and  C_21
REMARK    3  A    between atoms: C_9  and  C_14
REMARK    4  A    between atoms: C_10  and  C_12
REMARK    5  A    between atoms: C_20  and  C_21
REMARK                            x       y       z     vdW  Elec       q    Type
REMARK                         _______ _______ _______ _____ _____    ______ ____
ROOT
ATOM      1  S   UNL     1     -10.923   6.684 -28.247  0.00  0.00    +0.000 S 
ATOM      2  N   UNL     1     -10.267   8.377 -30.087  0.00  0.00    +0.000 N 
ATOM      3  N   UNL     1      -8.603   8.189 -28.598  0.00  0.00    +0.000 NA
ATOM      4  C   UNL     1      -9.273   9.219 -30.557  0.00  0.00    +0.000 A 
ATOM      5  C   UNL     1      -8.268   9.092 -29.583  0.00  0.00    +0.000 A 
ATOM      6  C   UNL     1      -9.797   7.810 -28.936  0.00  0.00    +0.000 A 
ATOM      7  C   UNL     1     -11.524   7.924 -30.454  0.00  0.00    +0.000 A 
ATOM      8  C   UNL     1     -12.018   7.031 -29.583  0.00  0.00    +0.000 A 
ENDROOT
BRANCH   5  10
ATOM      9 BR   UNL     1      -2.875  12.040 -29.423  0.00  0.00    +0.000 Br
ATOM     10  C   UNL     1      -6.977   9.768 -29.556  0.00  0.00    +0.000 A 
ATOM     11  C   UNL     1      -6.877  11.020 -28.930  0.00  0.00    +0.000 A 
ATOM     12  C   UNL     1      -5.841   9.225 -30.171  0.00  0.00    +0.000 A 
ATOM     13  C   UNL     1      -5.653  11.698 -28.889  0.00  0.00    +0.000 A 
ATOM     14  C   UNL     1      -4.616   9.897 -30.120  0.00  0.00    +0.000 A 
ATOM     15  C   UNL     1      -4.528  11.126 -29.477  0.00  0.00    +0.000 A 
ENDBRANCH   5  10
BRANCH   4  17
ATOM     16  N   UNL     1      -9.096   9.553 -33.020  0.00  0.00    +0.000 NA
ATOM     17  C   UNL     1      -9.199   9.963 -31.791  0.00  0.00    +0.000 C 
BRANCH  16  18
ATOM     18  O   UNL     1      -9.157   8.169 -33.127  0.00  0.00    +0.000 OA
BRANCH  18  19
ATOM     19  C   UNL     1     -10.167   7.803 -34.071  0.00  0.00    +0.000 C 
BRANCH  19  22
ATOM     20 CL   UNL     1     -11.061   4.188 -37.683  0.00  0.00    +0.000 Cl
ATOM     21 CL   UNL     1      -7.854   3.658 -37.818  0.00  0.00    +0.000 Cl
ATOM     22  C   UNL     1      -9.592   6.775 -35.015  0.00  0.00    +0.000 A 
ATOM     23  C   UNL     1     -10.447   6.029 -35.834  0.00  0.00    +0.000 A 
ATOM     24  C   UNL     1      -8.213   6.514 -35.060  0.00  0.00    +0.000 A 
ATOM     25  C   UNL     1      -9.934   5.060 -36.704  0.00  0.00    +0.000 A 
ATOM     26  C   UNL     1      -7.698   5.557 -35.934  0.00  0.00    +0.000 A 
ATOM     27  C   UNL     1      -8.556   4.829 -36.761  0.00  0.00    +0.000 A 
ENDBRANCH  19  22
ENDBRANCH  18  19
ENDBRANCH  16  18
ENDBRANCH   4  17
TORSDOF 5
ENDMDL
MODEL 6
REMARK VINA RESULT:      -4.9      5.625      7.618
REMARK  Name = 155269217
REMARK  5 active torsions:
REMARK  status: ('A' for Active; 'I' for Inactive)
REMARK    1  A    between atoms: O_5  and  N_8
REMARK    2  A    between atoms: O_5  and  C_21
REMARK    3  A    between atoms: C_9  and  C_14
REMARK    4  A    between atoms: C_10  and  C_12
REMARK    5  A    between atoms: C_20  and  C_21
REMARK                            x       y       z     vdW  Elec       q    Type
REMARK                         _______ _______ _______ _____ _____    ______ ____
ROOT
ATOM      1  S   UNL     1     -26.844   3.903 -50.033  0.00  0.00    +0.000 S 
ATOM      2  N   UNL     1     -24.767   5.438 -50.148  0.00  0.00    +0.000 N 
ATOM      3  N   UNL     1     -25.936   5.878 -48.288  0.00  0.00    +0.000 NA
ATOM      4  C   UNL     1     -24.048   6.429 -49.503  0.00  0.00    +0.000 A 
ATOM      5  C   UNL     1     -24.827   6.692 -48.363  0.00  0.00    +0.000 A 
ATOM      6  C   UNL     1     -25.859   5.169 -49.371  0.00  0.00    +0.000 A 
ATOM      7  C   UNL     1     -24.681   4.639 -51.276  0.00  0.00    +0.000 A 
ATOM      8  C   UNL     1     -25.706   3.778 -51.372  0.00  0.00    +0.000 A 
ENDROOT
BRANCH   5  10
ATOM      9 BR   UNL     1     -23.690  10.892 -44.020  0.00  0.00    +0.000 Br
ATOM     10  C   UNL     1     -24.554   7.667 -47.315  0.00  0.00    +0.000 A 
ATOM     11  C   UNL     1     -24.703   9.033 -47.600  0.00  0.00    +0.000 A 
ATOM     12  C   UNL     1     -24.110   7.285 -46.043  0.00  0.00    +0.000 A 
ATOM     13  C   UNL     1     -24.447   9.996 -46.617  0.00  0.00    +0.000 A 
ATOM     14  C   UNL     1     -23.865   8.246 -45.057  0.00  0.00    +0.000 A 
ATOM     15  C   UNL     1     -24.037   9.594 -45.348  0.00  0.00    +0.000 A 
ENDBRANCH   5  10
BRANCH   4  17
ATOM     16  N   UNL     1     -22.374   7.699 -50.842  0.00  0.00    +0.000 NA
ATOM     17  C   UNL     1     -22.758   6.992 -49.822  0.00  0.00    +0.000 C 
BRANCH  16  18
ATOM     18  O   UNL     1     -23.423   8.015 -51.697  0.00  0.00    +0.000 OA
BRANCH  18  19
ATOM     19  C   UNL     1     -22.914   8.666 -52.864  0.00  0.00    +0.000 C 
BRANCH  19  22
ATOM     20 CL   UNL     1     -19.363   6.947 -56.233  0.00  0.00    +0.000 Cl
ATOM     21 CL   UNL     1     -21.344   4.457 -56.913  0.00  0.00    +0.000 Cl
ATOM     22  C   UNL     1     -22.514   7.611 -53.867  0.00  0.00    +0.000 A 
ATOM     23  C   UNL     1     -21.283   7.710 -54.526  0.00  0.00    +0.000 A 
ATOM     24  C   UNL     1     -23.373   6.550 -54.193  0.00  0.00    +0.000 A 
ATOM     25  C   UNL     1     -20.902   6.751 -55.471  0.00  0.00    +0.000 A 
ATOM     26  C   UNL     1     -22.991   5.586 -55.127  0.00  0.00    +0.000 A 
ATOM     27  C   UNL     1     -21.755   5.682 -55.766  0.00  0.00    +0.000 A 
ENDBRANCH  19  22
ENDBRANCH  18  19
ENDBRANCH  16  18
ENDBRANCH   4  17
TORSDOF 5
ENDMDL
MODEL 7
REMARK VINA RESULT:      -4.8     17.714     19.279
REMARK  Name = 155269217
REMARK  5 active torsions:
REMARK  status: ('A' for Active; 'I' for Inactive)
REMARK    1  A    between atoms: O_5  and  N_8
REMARK    2  A    between atoms: O_5  and  C_21
REMARK    3  A    between atoms: C_9  and  C_14
REMARK    4  A    between atoms: C_10  and  C_12
REMARK    5  A    between atoms: C_20  and  C_21
REMARK                            x       y       z     vdW  Elec       q    Type
REMARK                         _______ _______ _______ _____ _____    ______ ____
ROOT
ATOM      1  S   UNL     1      -6.232  -4.205 -55.364  0.00  0.00    +0.000 S 
ATOM      2  N   UNL     1      -7.205  -2.785 -53.436  0.00  0.00    +0.000 N 
ATOM      3  N   UNL     1      -6.238  -4.630 -52.610  0.00  0.00    +0.000 NA
ATOM      4  C   UNL     1      -7.355  -2.680 -52.064  0.00  0.00    +0.000 A 
ATOM      5  C   UNL     1      -6.763  -3.864 -51.591  0.00  0.00    +0.000 A 
ATOM      6  C   UNL     1      -6.539  -3.953 -53.675  0.00  0.00    +0.000 A 
ATOM      7  C   UNL     1      -7.476  -2.057 -54.583  0.00  0.00    +0.000 A 
ATOM      8  C   UNL     1      -7.036  -2.672 -55.693  0.00  0.00    +0.000 A 
ENDROOT
BRANCH   5  10
ATOM      9 BR   UNL     1      -6.143  -5.679 -45.750  0.00  0.00    +0.000 Br
ATOM     10  C   UNL     1      -6.644  -4.297 -50.205  0.00  0.00    +0.000 A 
ATOM     11  C   UNL     1      -5.392  -4.228 -49.575  0.00  0.00    +0.000 A 
ATOM     12  C   UNL     1      -7.733  -4.818 -49.494  0.00  0.00    +0.000 A 
ATOM     13  C   UNL     1      -5.242  -4.639 -48.245  0.00  0.00    +0.000 A 
ATOM     14  C   UNL     1      -7.585  -5.218 -48.162  0.00  0.00    +0.000 A 
ATOM     15  C   UNL     1      -6.343  -5.124 -47.545  0.00  0.00    +0.000 A 
ENDBRANCH   5  10
BRANCH   4  17
ATOM     16  N   UNL     1      -7.257  -0.633 -50.646  0.00  0.00    +0.000 NA
ATOM     17  C   UNL     1      -7.874  -1.592 -51.270  0.00  0.00    +0.000 C 
BRANCH  16  18
ATOM     18  O   UNL     1      -5.886  -0.643 -50.874  0.00  0.00    +0.000 OA
BRANCH  18  19
ATOM     19  C   UNL     1      -5.391   0.698 -50.893  0.00  0.00    +0.000 C 
BRANCH  19  22
ATOM     20 CL   UNL     1      -5.331   4.519 -54.401  0.00  0.00    +0.000 Cl
ATOM     21 CL   UNL     1      -4.530   2.314 -56.656  0.00  0.00    +0.000 Cl
ATOM     22  C   UNL     1      -5.166   1.106 -52.328  0.00  0.00    +0.000 A 
ATOM     23  C   UNL     1      -5.317   2.447 -52.701  0.00  0.00    +0.000 A 
ATOM     24  C   UNL     1      -4.852   0.161 -53.317  0.00  0.00    +0.000 A 
ATOM     25  C   UNL     1      -5.129   2.843 -54.030  0.00  0.00    +0.000 A 
ATOM     26  C   UNL     1      -4.653   0.553 -54.641  0.00  0.00    +0.000 A 
ATOM     27  C   UNL     1      -4.788   1.895 -55.001  0.00  0.00    +0.000 A 
ENDBRANCH  19  22
ENDBRANCH  18  19
ENDBRANCH  16  18
ENDBRANCH   4  17
TORSDOF 5
ENDMDL
MODEL 8
REMARK VINA RESULT:      -4.7     14.653     16.769
REMARK  Name = 155269217
REMARK  5 active torsions:
REMARK  status: ('A' for Active; 'I' for Inactive)
REMARK    1  A    between atoms: O_5  and  N_8
REMARK    2  A    between atoms: O_5  and  C_21
REMARK    3  A    between atoms: C_9  and  C_14
REMARK    4  A    between atoms: C_10  and  C_12
REMARK    5  A    between atoms: C_20  and  C_21
REMARK                            x       y       z     vdW  Elec       q    Type
REMARK                         _______ _______ _______ _____ _____    ______ ____
ROOT
ATOM      1  S   UNL     1     -16.517  17.023 -51.170  0.00  0.00    +0.000 S 
ATOM      2  N   UNL     1     -16.371  15.595 -49.020  0.00  0.00    +0.000 N 
ATOM      3  N   UNL     1     -14.741  17.132 -49.026  0.00  0.00    +0.000 NA
ATOM      4  C   UNL     1     -15.697  15.401 -47.827  0.00  0.00    +0.000 A 
ATOM      5  C   UNL     1     -14.673  16.361 -47.885  0.00  0.00    +0.000 A 
ATOM      6  C   UNL     1     -15.751  16.628 -49.664  0.00  0.00    +0.000 A 
ATOM      7  C   UNL     1     -17.474  15.102 -49.699  0.00  0.00    +0.000 A 
ATOM      8  C   UNL     1     -17.686  15.740 -50.860  0.00  0.00    +0.000 A 
ENDROOT
BRANCH   5  10
ATOM      9 BR   UNL     1     -10.262  17.482 -43.751  0.00  0.00    +0.000 Br
ATOM     10  C   UNL     1     -13.638  16.607 -46.889  0.00  0.00    +0.000 A 
ATOM     11  C   UNL     1     -12.762  17.689 -47.069  0.00  0.00    +0.000 A 
ATOM     12  C   UNL     1     -13.465  15.773 -45.776  0.00  0.00    +0.000 A 
ATOM     13  C   UNL     1     -11.755  17.951 -46.132  0.00  0.00    +0.000 A 
ATOM     14  C   UNL     1     -12.467  16.042 -44.835  0.00  0.00    +0.000 A 
ATOM     15  C   UNL     1     -11.621  17.129 -45.016  0.00  0.00    +0.000 A 
ENDBRANCH   5  10
BRANCH   4  17
ATOM     16  N   UNL     1     -16.817  14.692 -45.717  0.00  0.00    +0.000 NA
ATOM     17  C   UNL     1     -16.008  14.528 -46.720  0.00  0.00    +0.000 C 
BRANCH  16  18
ATOM     18  O   UNL     1     -17.545  15.872 -45.805  0.00  0.00    +0.000 OA
BRANCH  18  19
ATOM     19  C   UNL     1     -17.582  16.512 -44.527  0.00  0.00    +0.000 C 
BRANCH  19  22
ATOM     20 CL   UNL     1     -13.520  18.570 -42.042  0.00  0.00    +0.000 Cl
ATOM     21 CL   UNL     1     -13.346  20.825 -44.381  0.00  0.00    +0.000 Cl
ATOM     22  C   UNL     1     -16.516  17.580 -44.493  0.00  0.00    +0.000 A 
ATOM     23  C   UNL     1     -15.599  17.614 -43.436  0.00  0.00    +0.000 A 
ATOM     24  C   UNL     1     -16.450  18.579 -45.478  0.00  0.00    +0.000 A 
ATOM     25  C   UNL     1     -14.614  18.607 -43.379  0.00  0.00    +0.000 A 
ATOM     26  C   UNL     1     -15.463  19.563 -45.430  0.00  0.00    +0.000 A 
ATOM     27  C   UNL     1     -14.541  19.578 -44.383  0.00  0.00    +0.000 A 
ENDBRANCH  19  22
ENDBRANCH  18  19
ENDBRANCH  16  18
ENDBRANCH   4  17
TORSDOF 5
ENDMDL
MODEL 9
REMARK VINA RESULT:      -4.7     23.512     25.569
REMARK  Name = 155269217
REMARK  5 active torsions:
REMARK  status: ('A' for Active; 'I' for Inactive)
REMARK    1  A    between atoms: O_5  and  N_8
REMARK    2  A    between atoms: O_5  and  C_21
REMARK    3  A    between atoms: C_9  and  C_14
REMARK    4  A    between atoms: C_10  and  C_12
REMARK    5  A    between atoms: C_20  and  C_21
REMARK                            x       y       z     vdW  Elec       q    Type
REMARK                         _______ _______ _______ _____ _____    ______ ____
ROOT
ATOM      1  S   UNL     1     -10.995   9.082 -32.718  0.00  0.00    +0.000 S 
ATOM      2  N   UNL     1     -11.372   7.353 -34.603  0.00  0.00    +0.000 N 
ATOM      3  N   UNL     1     -11.129   6.299 -32.640  0.00  0.00    +0.000 NA
ATOM      4  C   UNL     1     -11.514   6.009 -34.902  0.00  0.00    +0.000 A 
ATOM      5  C   UNL     1     -11.327   5.388 -33.655  0.00  0.00    +0.000 A 
ATOM      6  C   UNL     1     -11.150   7.440 -33.257  0.00  0.00    +0.000 A 
ATOM      7  C   UNL     1     -11.436   8.585 -35.234  0.00  0.00    +0.000 A 
ATOM      8  C   UNL     1     -11.249   9.605 -34.382  0.00  0.00    +0.000 A 
ENDROOT
BRANCH   5  10
ATOM      9 BR   UNL     1     -11.569  -0.635 -32.447  0.00  0.00    +0.000 Br
ATOM     10  C   UNL     1     -11.357   3.960 -33.369  0.00  0.00    +0.000 A 
ATOM     11  C   UNL     1     -12.589   3.287 -33.380  0.00  0.00    +0.000 A 
ATOM     12  C   UNL     1     -10.197   3.244 -33.043  0.00  0.00    +0.000 A 
ATOM     13  C   UNL     1     -12.653   1.916 -33.107  0.00  0.00    +0.000 A 
ATOM     14  C   UNL     1     -10.259   1.871 -32.781  0.00  0.00    +0.000 A 
ATOM     15  C   UNL     1     -11.484   1.216 -32.817  0.00  0.00    +0.000 A 
ENDBRANCH   5  10
BRANCH   4  17
ATOM     16  N   UNL     1     -11.150   4.996 -37.149  0.00  0.00    +0.000 NA
ATOM     17  C   UNL     1     -11.882   5.372 -36.143  0.00  0.00    +0.000 C 
BRANCH  16  18
ATOM     18  O   UNL     1      -9.792   5.176 -36.918  0.00  0.00    +0.000 OA
BRANCH  18  19
ATOM     19  C   UNL     1      -9.091   3.961 -37.193  0.00  0.00    +0.000 C 
BRANCH  19  22
ATOM     20 CL   UNL     1      -6.737   0.416 -34.226  0.00  0.00    +0.000 Cl
ATOM     21 CL   UNL     1      -5.345   2.851 -32.576  0.00  0.00    +0.000 Cl
ATOM     22  C   UNL     1      -8.148   3.681 -36.048  0.00  0.00    +0.000 A 
ATOM     23  C   UNL     1      -7.878   2.357 -35.679  0.00  0.00    +0.000 A 
ATOM     24  C   UNL     1      -7.567   4.722 -35.307  0.00  0.00    +0.000 A 
ATOM     25  C   UNL     1      -7.019   2.077 -34.610  0.00  0.00    +0.000 A 
ATOM     26  C   UNL     1      -6.702   4.446 -34.249  0.00  0.00    +0.000 A 
ATOM     27  C   UNL     1      -6.423   3.124 -33.898  0.00  0.00    +0.000 A 
ENDBRANCH  19  22
ENDBRANCH  18  19
ENDBRANCH  16  18
ENDBRANCH   4  17
TORSDOF 5
ENDMDL
MODEL 10
REMARK VINA RESULT:      -4.7     18.232     20.581
REMARK  Name = 155269217
REMARK  5 active torsions:
REMARK  status: ('A' for Active; 'I' for Inactive)
REMARK    1  A    between atoms: O_5  and  N_8
REMARK    2  A    between atoms: O_5  and  C_21
REMARK    3  A    between atoms: C_9  and  C_14
REMARK    4  A    between atoms: C_10  and  C_12
REMARK    5  A    between atoms: C_20  and  C_21
REMARK                            x       y       z     vdW  Elec       q    Type
REMARK                         _______ _______ _______ _____ _____    ______ ____
ROOT
ATOM      1  S   UNL     1      -9.442  -3.423 -49.057  0.00  0.00    +0.000 S 
ATOM      2  N   UNL     1      -7.198  -3.444 -50.342  0.00  0.00    +0.000 N 
ATOM      3  N   UNL     1      -8.128  -1.408 -50.466  0.00  0.00    +0.000 NA
ATOM      4  C   UNL     1      -6.299  -2.687 -51.073  0.00  0.00    +0.000 A 
ATOM      5  C   UNL     1      -6.931  -1.434 -51.150  0.00  0.00    +0.000 A 
ATOM      6  C   UNL     1      -8.242  -2.622 -50.022  0.00  0.00    +0.000 A 
ATOM      7  C   UNL     1      -7.320  -4.721 -49.819  0.00  0.00    +0.000 A 
ATOM      8  C   UNL     1      -8.454  -4.881 -49.121  0.00  0.00    +0.000 A 
ENDROOT
BRANCH   5  10
ATOM      9 BR   UNL     1      -4.894   3.568 -54.087  0.00  0.00    +0.000 Br
ATOM     10  C   UNL     1      -6.439  -0.239 -51.822  0.00  0.00    +0.000 A 
ATOM     11  C   UNL     1      -6.731  -0.052 -53.182  0.00  0.00    +0.000 A 
ATOM     12  C   UNL     1      -5.650   0.712 -51.162  0.00  0.00    +0.000 A 
ATOM     13  C   UNL     1      -6.272   1.084 -53.858  0.00  0.00    +0.000 A 
ATOM     14  C   UNL     1      -5.200   1.853 -51.834  0.00  0.00    +0.000 A 
ATOM     15  C   UNL     1      -5.515   2.033 -53.176  0.00  0.00    +0.000 A 
ENDBRANCH   5  10
BRANCH   4  17
ATOM     16  N   UNL     1      -3.835  -3.031 -50.935  0.00  0.00    +0.000 NA
ATOM     17  C   UNL     1      -4.979  -3.025 -51.550  0.00  0.00    +0.000 C 
BRANCH  16  18
ATOM     18  O   UNL     1      -3.955  -2.744 -49.581  0.00  0.00    +0.000 OA
BRANCH  18  19
ATOM     19  C   UNL     1      -3.097  -3.604 -48.828  0.00  0.00    +0.000 C 
BRANCH  19  22
ATOM     20 CL   UNL     1      -4.531  -8.586 -49.036  0.00  0.00    +0.000 Cl
ATOM     21 CL   UNL     1      -6.473  -8.040 -46.483  0.00  0.00    +0.000 Cl
ATOM     22  C   UNL     1      -3.930  -4.716 -48.238  0.00  0.00    +0.000 A 
ATOM     23  C   UNL     1      -3.881  -5.996 -48.803  0.00  0.00    +0.000 A 
ATOM     24  C   UNL     1      -4.797  -4.487 -47.157  0.00  0.00    +0.000 A 
ATOM     25  C   UNL     1      -4.658  -7.036 -48.281  0.00  0.00    +0.000 A 
ATOM     26  C   UNL     1      -5.564  -5.524 -46.628  0.00  0.00    +0.000 A 
ATOM     27  C   UNL     1      -5.496  -6.802 -47.185  0.00  0.00    +0.000 A 
ENDBRANCH  19  22
ENDBRANCH  18  19
ENDBRANCH  16  18
ENDBRANCH   4  17
TORSDOF 5
ENDMDL
