REMARK  Name = 155269219
REMARK  6 active torsions:
REMARK  status: ('A' for Active; 'I' for Inactive)
REMARK    1  A    between atoms: O_7  and  N_10
REMARK    2  A    between atoms: O_7  and  C_25
REMARK    3  A    between atoms: C_11  and  C_13
REMARK    4  A    between atoms: C_12  and  C_18
REMARK    5  A    between atoms: C_19  and  C_23
REMARK    6  A    between atoms: C_24  and  C_25
REMARK                            x       y       z     vdW  Elec       q    Type
REMARK                         _______ _______ _______ _____ _____    ______ ____
ROOT
ATOM      1  S   UNL     1      -8.709  -2.407  -4.323  0.00  0.00    +0.000 S 
ATOM      2  N   UNL     1      -6.617  -0.953  -3.989  0.00  0.00    +0.000 N 
ATOM      3  N   UNL     1      -8.276  -0.128  -2.742  0.00  0.00    +0.000 NA
ATOM      4  C   UNL     1      -7.129   0.639  -2.596  0.00  0.00    +0.000 A 
ATOM      5  C   UNL     1      -6.072   0.146  -3.372  0.00  0.00    +0.000 A 
ATOM      6  C   UNL     1      -7.920  -1.038  -3.602  0.00  0.00    +0.000 A 
ATOM      7  C   UNL     1      -6.192  -1.967  -4.826  0.00  0.00    +0.000 A 
ATOM      8  C   UNL     1      -7.186  -2.820  -5.123  0.00  0.00    +0.000 A 
ENDROOT
BRANCH   4   9
ATOM      9  C   UNL     1      -7.085   1.783  -1.691  0.00  0.00    +0.000 A 
ATOM     10  C   UNL     1      -7.864   1.775  -0.526  0.00  0.00    +0.000 A 
ATOM     11  C   UNL     1      -6.276   2.898  -1.946  0.00  0.00    +0.000 A 
ATOM     12  C   UNL     1      -6.919   3.904   0.173  0.00  0.00    +0.000 A 
ATOM     13  C   UNL     1      -7.782   2.823   0.399  0.00  0.00    +0.000 A 
ATOM     14  C   UNL     1      -6.180   3.938  -1.018  0.00  0.00    +0.000 A 
BRANCH  12  18
ATOM     15  F   UNL     1      -7.559   4.887   2.275  0.00  0.00    +0.000 F 
ATOM     16  F   UNL     1      -5.484   5.094   1.660  0.00  0.00    +0.000 F 
ATOM     17  F   UNL     1      -7.033   6.241   0.656  0.00  0.00    +0.000 F 
ATOM     18  C   UNL     1      -6.758   5.015   1.181  0.00  0.00    +0.000 C 
ENDBRANCH  12  18
ENDBRANCH   4   9
BRANCH   5  20
ATOM     19  N   UNL     1      -3.959   0.639  -4.522  0.00  0.00    +0.000 NA
ATOM     20  C   UNL     1      -4.703   0.577  -3.456  0.00  0.00    +0.000 C 
BRANCH  19  21
ATOM     21  O   UNL     1      -4.695   0.377  -5.684  0.00  0.00    +0.000 OA
BRANCH  21  22
ATOM     22  C   UNL     1      -3.812   0.171  -6.787  0.00  0.00    +0.000 C 
BRANCH  22  25
ATOM     23 CL   UNL     1      -5.296  -1.837 -11.367  0.00  0.00    +0.000 Cl
ATOM     24 CL   UNL     1      -7.013   0.882 -11.866  0.00  0.00    +0.000 Cl
ATOM     25  C   UNL     1      -4.624   0.297  -8.052  0.00  0.00    +0.000 A 
ATOM     26  C   UNL     1      -4.619  -0.708  -9.029  0.00  0.00    +0.000 A 
ATOM     27  C   UNL     1      -5.385   1.454  -8.273  0.00  0.00    +0.000 A 
ATOM     28  C   UNL     1      -5.356  -0.553 -10.211  0.00  0.00    +0.000 A 
ATOM     29  C   UNL     1      -6.121   1.610  -9.448  0.00  0.00    +0.000 A 
ATOM     30  C   UNL     1      -6.103   0.611 -10.423  0.00  0.00    +0.000 A 
ENDBRANCH  22  25
ENDBRANCH  21  22
ENDBRANCH  19  21
ENDBRANCH   5  20
TORSDOF 6
