MODEL 1
REMARK VINA RESULT:      -5.7      0.000      0.000
REMARK  Name = 155269220
REMARK  9 active torsions:
REMARK  status: ('A' for Active; 'I' for Inactive)
REMARK    1  A    between atoms: O_4  and  N_7
REMARK    2  A    between atoms: O_4  and  C_24
REMARK    3  A    between atoms: C_8  and  C_9
REMARK    4  A    between atoms: C_8  and  C_10
REMARK    5  A    between atoms: C_8  and  C_11
REMARK    6  A    between atoms: C_8  and  C_12
REMARK    7  A    between atoms: C_15  and  C_18
REMARK    8  A    between atoms: C_19  and  C_22
REMARK    9  A    between atoms: C_24  and  C_25
REMARK                            x       y       z     vdW  Elec       q    Type
REMARK                         _______ _______ _______ _____ _____    ______ ____
ROOT
ATOM      1  S   UNL     1     -22.438  10.284 -59.908  0.00  0.00    +0.000 S 
ATOM      2  N   UNL     1     -20.849   9.754 -57.959  0.00  0.00    +0.000 N 
ATOM      3  N   UNL     1     -22.951   9.405 -57.290  0.00  0.00    +0.000 NA
ATOM      4  C   UNL     1     -22.062   9.143 -56.258  0.00  0.00    +0.000 A 
ATOM      5  C   UNL     1     -20.733   9.354 -56.650  0.00  0.00    +0.000 A 
ATOM      6  C   UNL     1     -22.176   9.791 -58.262  0.00  0.00    +0.000 A 
ATOM      7  C   UNL     1     -20.006  10.070 -59.006  0.00  0.00    +0.000 A 
ATOM      8  C   UNL     1     -20.686  10.402 -60.117  0.00  0.00    +0.000 A 
ENDROOT
BRANCH   4  12
ATOM      9  C   UNL     1     -23.257   7.714 -52.378  0.00  0.00    +0.000 A 
ATOM     10  C   UNL     1     -22.863   6.833 -53.396  0.00  0.00    +0.000 A 
ATOM     11  C   UNL     1     -23.312   9.083 -52.700  0.00  0.00    +0.000 A 
ATOM     12  C   UNL     1     -22.515   8.672 -54.954  0.00  0.00    +0.000 A 
ATOM     13  C   UNL     1     -22.498   7.305 -54.667  0.00  0.00    +0.000 A 
ATOM     14  C   UNL     1     -22.967   9.550 -53.971  0.00  0.00    +0.000 A 
BRANCH   9  15
ATOM     15  C   UNL     1     -23.615   7.250 -50.956  0.00  0.00    +0.000 C 
ATOM     16  C   UNL     1     -24.606   8.187 -50.230  0.00  0.00    +0.000 C 
ATOM     17  C   UNL     1     -24.267   5.852 -51.026  0.00  0.00    +0.000 C 
ATOM     18  C   UNL     1     -22.343   7.168 -50.088  0.00  0.00    +0.000 C 
ENDBRANCH   9  15
ENDBRANCH   4  12
BRANCH   5  20
ATOM     19  N   UNL     1     -18.785   8.043 -55.935  0.00  0.00    +0.000 NA
ATOM     20  C   UNL     1     -19.509   9.125 -55.933  0.00  0.00    +0.000 C 
BRANCH  19  21
ATOM     21  O   UNL     1     -19.246   7.117 -56.878  0.00  0.00    +0.000 OA
BRANCH  21  22
ATOM     22  C   UNL     1     -19.485   5.857 -56.251  0.00  0.00    +0.000 C 
BRANCH  22  25
ATOM     23 CL   UNL     1     -23.175   2.172 -56.232  0.00  0.00    +0.000 Cl
ATOM     24 CL   UNL     1     -24.398   3.554 -58.912  0.00  0.00    +0.000 Cl
ATOM     25  C   UNL     1     -20.732   5.274 -56.867  0.00  0.00    +0.000 A 
ATOM     26  C   UNL     1     -21.342   4.130 -56.335  0.00  0.00    +0.000 A 
ATOM     27  C   UNL     1     -21.285   5.872 -58.008  0.00  0.00    +0.000 A 
ATOM     28  C   UNL     1     -22.481   3.586 -56.944  0.00  0.00    +0.000 A 
ATOM     29  C   UNL     1     -22.417   5.334 -58.616  0.00  0.00    +0.000 A 
ATOM     30  C   UNL     1     -23.016   4.184 -58.091  0.00  0.00    +0.000 A 
ENDBRANCH  22  25
ENDBRANCH  21  22
ENDBRANCH  19  21
ENDBRANCH   5  20
TORSDOF 6
ENDMDL
MODEL 2
REMARK VINA RESULT:      -5.5      3.049      4.518
REMARK  Name = 155269220
REMARK  9 active torsions:
REMARK  status: ('A' for Active; 'I' for Inactive)
REMARK    1  A    between atoms: O_4  and  N_7
REMARK    2  A    between atoms: O_4  and  C_24
REMARK    3  A    between atoms: C_8  and  C_9
REMARK    4  A    between atoms: C_8  and  C_10
REMARK    5  A    between atoms: C_8  and  C_11
REMARK    6  A    between atoms: C_8  and  C_12
REMARK    7  A    between atoms: C_15  and  C_18
REMARK    8  A    between atoms: C_19  and  C_22
REMARK    9  A    between atoms: C_24  and  C_25
REMARK                            x       y       z     vdW  Elec       q    Type
REMARK                         _______ _______ _______ _____ _____    ______ ____
ROOT
ATOM      1  S   UNL     1     -25.648   6.690 -59.706  0.00  0.00    +0.000 S 
ATOM      2  N   UNL     1     -24.612   4.973 -58.098  0.00  0.00    +0.000 N 
ATOM      3  N   UNL     1     -24.961   6.880 -56.990  0.00  0.00    +0.000 NA
ATOM      4  C   UNL     1     -24.388   5.931 -56.156  0.00  0.00    +0.000 A 
ATOM      5  C   UNL     1     -24.158   4.722 -56.826  0.00  0.00    +0.000 A 
ATOM      6  C   UNL     1     -25.043   6.264 -58.133  0.00  0.00    +0.000 A 
ATOM      7  C   UNL     1     -24.777   4.274 -59.278  0.00  0.00    +0.000 A 
ATOM      8  C   UNL     1     -25.295   5.045 -60.250  0.00  0.00    +0.000 A 
ENDROOT
BRANCH   4  12
ATOM      9  C   UNL     1     -23.625   6.889 -52.030  0.00  0.00    +0.000 A 
ATOM     10  C   UNL     1     -22.786   7.347 -53.057  0.00  0.00    +0.000 A 
ATOM     11  C   UNL     1     -24.688   6.045 -52.398  0.00  0.00    +0.000 A 
ATOM     12  C   UNL     1     -24.116   6.207 -54.750  0.00  0.00    +0.000 A 
ATOM     13  C   UNL     1     -23.028   7.009 -54.399  0.00  0.00    +0.000 A 
ATOM     14  C   UNL     1     -24.917   5.694 -53.731  0.00  0.00    +0.000 A 
BRANCH   9  15
ATOM     15  C   UNL     1     -23.431   7.273 -50.554  0.00  0.00    +0.000 C 
ATOM     16  C   UNL     1     -23.503   8.794 -50.294  0.00  0.00    +0.000 C 
ATOM     17  C   UNL     1     -24.535   6.606 -49.705  0.00  0.00    +0.000 C 
ATOM     18  C   UNL     1     -22.053   6.789 -50.055  0.00  0.00    +0.000 C 
ENDBRANCH   9  15
ENDBRANCH   4  12
BRANCH   5  20
ATOM     19  N   UNL     1     -22.487   2.951 -56.519  0.00  0.00    +0.000 NA
ATOM     20  C   UNL     1     -23.667   3.466 -56.329  0.00  0.00    +0.000 C 
BRANCH  19  21
ATOM     21  O   UNL     1     -21.628   3.852 -57.159  0.00  0.00    +0.000 OA
BRANCH  21  22
ATOM     22  C   UNL     1     -20.647   4.332 -56.241  0.00  0.00    +0.000 C 
BRANCH  22  25
ATOM     23 CL   UNL     1     -21.609   8.469 -59.267  0.00  0.00    +0.000 Cl
ATOM     24 CL   UNL     1     -19.285  10.053 -57.631  0.00  0.00    +0.000 Cl
ATOM     25  C   UNL     1     -20.360   5.769 -56.594  0.00  0.00    +0.000 A 
ATOM     26  C   UNL     1     -21.039   6.415 -57.636  0.00  0.00    +0.000 A 
ATOM     27  C   UNL     1     -19.378   6.474 -55.882  0.00  0.00    +0.000 A 
ATOM     28  C   UNL     1     -20.731   7.741 -57.968  0.00  0.00    +0.000 A 
ATOM     29  C   UNL     1     -19.069   7.792 -56.210  0.00  0.00    +0.000 A 
ATOM     30  C   UNL     1     -19.739   8.429 -57.259  0.00  0.00    +0.000 A 
ENDBRANCH  22  25
ENDBRANCH  21  22
ENDBRANCH  19  21
ENDBRANCH   5  20
TORSDOF 6
ENDMDL
MODEL 3
REMARK VINA RESULT:      -5.5      2.468      4.958
REMARK  Name = 155269220
REMARK  9 active torsions:
REMARK  status: ('A' for Active; 'I' for Inactive)
REMARK    1  A    between atoms: O_4  and  N_7
REMARK    2  A    between atoms: O_4  and  C_24
REMARK    3  A    between atoms: C_8  and  C_9
REMARK    4  A    between atoms: C_8  and  C_10
REMARK    5  A    between atoms: C_8  and  C_11
REMARK    6  A    between atoms: C_8  and  C_12
REMARK    7  A    between atoms: C_15  and  C_18
REMARK    8  A    between atoms: C_19  and  C_22
REMARK    9  A    between atoms: C_24  and  C_25
REMARK                            x       y       z     vdW  Elec       q    Type
REMARK                         _______ _______ _______ _____ _____    ______ ____
ROOT
ATOM      1  S   UNL     1     -23.408  12.882 -56.946  0.00  0.00    +0.000 S 
ATOM      2  N   UNL     1     -21.718  11.120 -57.750  0.00  0.00    +0.000 N 
ATOM      3  N   UNL     1     -23.727  10.162 -57.566  0.00  0.00    +0.000 NA
ATOM      4  C   UNL     1     -22.783   9.236 -57.986  0.00  0.00    +0.000 A 
ATOM      5  C   UNL     1     -21.511   9.811 -58.111  0.00  0.00    +0.000 A 
ATOM      6  C   UNL     1     -23.032  11.251 -57.416  0.00  0.00    +0.000 A 
ATOM      7  C   UNL     1     -20.984  12.287 -57.687  0.00  0.00    +0.000 A 
ATOM      8  C   UNL     1     -21.723  13.323 -57.252  0.00  0.00    +0.000 A 
ENDROOT
BRANCH   4  12
ATOM      9  C   UNL     1     -23.942   5.206 -58.955  0.00  0.00    +0.000 A 
ATOM     10  C   UNL     1     -24.781   6.053 -58.217  0.00  0.00    +0.000 A 
ATOM     11  C   UNL     1     -22.675   5.705 -59.308  0.00  0.00    +0.000 A 
ATOM     12  C   UNL     1     -23.141   7.853 -58.281  0.00  0.00    +0.000 A 
ATOM     13  C   UNL     1     -24.385   7.359 -57.883  0.00  0.00    +0.000 A 
ATOM     14  C   UNL     1     -22.274   6.997 -58.959  0.00  0.00    +0.000 A 
BRANCH   9  15
ATOM     15  C   UNL     1     -24.351   3.788 -59.389  0.00  0.00    +0.000 C 
ATOM     16  C   UNL     1     -25.654   3.744 -60.217  0.00  0.00    +0.000 C 
ATOM     17  C   UNL     1     -23.230   3.178 -60.258  0.00  0.00    +0.000 C 
ATOM     18  C   UNL     1     -24.566   2.895 -58.149  0.00  0.00    +0.000 C 
ENDBRANCH   9  15
ENDBRANCH   4  12
BRANCH   5  20
ATOM     19  N   UNL     1     -19.190   9.039 -57.912  0.00  0.00    +0.000 NA
ATOM     20  C   UNL     1     -20.281   9.242 -58.590  0.00  0.00    +0.000 C 
BRANCH  19  21
ATOM     21  O   UNL     1     -19.378   9.291 -56.547  0.00  0.00    +0.000 OA
BRANCH  21  22
ATOM     22  C   UNL     1     -18.976   8.157 -55.780  0.00  0.00    +0.000 C 
BRANCH  22  25
ATOM     23 CL   UNL     1     -21.469   3.659 -56.646  0.00  0.00    +0.000 Cl
ATOM     24 CL   UNL     1     -23.987   4.874 -54.980  0.00  0.00    +0.000 Cl
ATOM     25  C   UNL     1     -20.196   7.295 -55.572  0.00  0.00    +0.000 A 
ATOM     26  C   UNL     1     -20.281   6.007 -56.118  0.00  0.00    +0.000 A 
ATOM     27  C   UNL     1     -21.280   7.795 -54.836  0.00  0.00    +0.000 A 
ATOM     28  C   UNL     1     -21.438   5.237 -55.940  0.00  0.00    +0.000 A 
ATOM     29  C   UNL     1     -22.431   7.032 -54.658  0.00  0.00    +0.000 A 
ATOM     30  C   UNL     1     -22.519   5.753 -55.215  0.00  0.00    +0.000 A 
ENDBRANCH  22  25
ENDBRANCH  21  22
ENDBRANCH  19  21
ENDBRANCH   5  20
TORSDOF 6
ENDMDL
MODEL 4
REMARK VINA RESULT:      -5.3      4.255      7.756
REMARK  Name = 155269220
REMARK  9 active torsions:
REMARK  status: ('A' for Active; 'I' for Inactive)
REMARK    1  A    between atoms: O_4  and  N_7
REMARK    2  A    between atoms: O_4  and  C_24
REMARK    3  A    between atoms: C_8  and  C_9
REMARK    4  A    between atoms: C_8  and  C_10
REMARK    5  A    between atoms: C_8  and  C_11
REMARK    6  A    between atoms: C_8  and  C_12
REMARK    7  A    between atoms: C_15  and  C_18
REMARK    8  A    between atoms: C_19  and  C_22
REMARK    9  A    between atoms: C_24  and  C_25
REMARK                            x       y       z     vdW  Elec       q    Type
REMARK                         _______ _______ _______ _____ _____    ______ ____
ROOT
ATOM      1  S   UNL     1     -25.735  11.516 -50.814  0.00  0.00    +0.000 S 
ATOM      2  N   UNL     1     -24.256   9.474 -50.315  0.00  0.00    +0.000 N 
ATOM      3  N   UNL     1     -24.344   9.776 -52.525  0.00  0.00    +0.000 NA
ATOM      4  C   UNL     1     -23.565   8.671 -52.217  0.00  0.00    +0.000 A 
ATOM      5  C   UNL     1     -23.491   8.458 -50.834  0.00  0.00    +0.000 A 
ATOM      6  C   UNL     1     -24.749  10.192 -51.361  0.00  0.00    +0.000 A 
ATOM      7  C   UNL     1     -24.599   9.955 -49.067  0.00  0.00    +0.000 A 
ATOM      8  C   UNL     1     -25.406  11.028 -49.147  0.00  0.00    +0.000 A 
ENDROOT
BRANCH   4  12
ATOM      9  C   UNL     1     -21.701   6.406 -55.366  0.00  0.00    +0.000 A 
ATOM     10  C   UNL     1     -22.926   6.013 -54.805  0.00  0.00    +0.000 A 
ATOM     11  C   UNL     1     -21.072   7.534 -54.809  0.00  0.00    +0.000 A 
ATOM     12  C   UNL     1     -22.897   7.888 -53.250  0.00  0.00    +0.000 A 
ATOM     13  C   UNL     1     -23.515   6.744 -53.761  0.00  0.00    +0.000 A 
ATOM     14  C   UNL     1     -21.650   8.249 -53.757  0.00  0.00    +0.000 A 
BRANCH   9  15
ATOM     15  C   UNL     1     -21.042   5.669 -56.544  0.00  0.00    +0.000 C 
ATOM     16  C   UNL     1     -21.631   6.049 -57.921  0.00  0.00    +0.000 C 
ATOM     17  C   UNL     1     -19.535   6.005 -56.577  0.00  0.00    +0.000 C 
ATOM     18  C   UNL     1     -21.213   4.144 -56.379  0.00  0.00    +0.000 C 
ENDBRANCH   9  15
ENDBRANCH   4  12
BRANCH   5  20
ATOM     19  N   UNL     1     -23.100   6.285 -49.760  0.00  0.00    +0.000 NA
ATOM     20  C   UNL     1     -22.735   7.491 -50.085  0.00  0.00    +0.000 C 
BRANCH  19  21
ATOM     21  O   UNL     1     -24.305   5.929 -50.377  0.00  0.00    +0.000 OA
BRANCH  21  22
ATOM     22  C   UNL     1     -25.302   5.667 -49.390  0.00  0.00    +0.000 C 
BRANCH  22  25
ATOM     23 CL   UNL     1     -24.711   0.806 -51.182  0.00  0.00    +0.000 Cl
ATOM     24 CL   UNL     1     -25.458  -0.255 -48.198  0.00  0.00    +0.000 Cl
ATOM     25  C   UNL     1     -25.297   4.183 -49.122  0.00  0.00    +0.000 A 
ATOM     26  C   UNL     1     -25.023   3.259 -50.139  0.00  0.00    +0.000 A 
ATOM     27  C   UNL     1     -25.593   3.711 -47.835  0.00  0.00    +0.000 A 
ATOM     28  C   UNL     1     -25.057   1.883 -49.875  0.00  0.00    +0.000 A 
ATOM     29  C   UNL     1     -25.628   2.344 -47.570  0.00  0.00    +0.000 A 
ATOM     30  C   UNL     1     -25.368   1.424 -48.590  0.00  0.00    +0.000 A 
ENDBRANCH  22  25
ENDBRANCH  21  22
ENDBRANCH  19  21
ENDBRANCH   5  20
TORSDOF 6
ENDMDL
MODEL 5
REMARK VINA RESULT:      -5.1      4.131      7.299
REMARK  Name = 155269220
REMARK  9 active torsions:
REMARK  status: ('A' for Active; 'I' for Inactive)
REMARK    1  A    between atoms: O_4  and  N_7
REMARK    2  A    between atoms: O_4  and  C_24
REMARK    3  A    between atoms: C_8  and  C_9
REMARK    4  A    between atoms: C_8  and  C_10
REMARK    5  A    between atoms: C_8  and  C_11
REMARK    6  A    between atoms: C_8  and  C_12
REMARK    7  A    between atoms: C_15  and  C_18
REMARK    8  A    between atoms: C_19  and  C_22
REMARK    9  A    between atoms: C_24  and  C_25
REMARK                            x       y       z     vdW  Elec       q    Type
REMARK                         _______ _______ _______ _____ _____    ______ ____
ROOT
ATOM      1  S   UNL     1     -27.205   4.599 -51.189  0.00  0.00    +0.000 S 
ATOM      2  N   UNL     1     -25.272   6.262 -50.863  0.00  0.00    +0.000 N 
ATOM      3  N   UNL     1     -25.145   5.405 -52.921  0.00  0.00    +0.000 NA
ATOM      4  C   UNL     1     -24.108   6.299 -52.701  0.00  0.00    +0.000 A 
ATOM      5  C   UNL     1     -24.163   6.853 -51.416  0.00  0.00    +0.000 A 
ATOM      6  C   UNL     1     -25.784   5.403 -51.787  0.00  0.00    +0.000 A 
ATOM      7  C   UNL     1     -25.990   6.344 -49.686  0.00  0.00    +0.000 A 
ATOM      8  C   UNL     1     -27.041   5.505 -49.680  0.00  0.00    +0.000 A 
ENDROOT
BRANCH   4  12
ATOM      9  C   UNL     1     -21.114   7.146 -55.676  0.00  0.00    +0.000 A 
ATOM     10  C   UNL     1     -21.116   7.792 -54.431  0.00  0.00    +0.000 A 
ATOM     11  C   UNL     1     -22.173   6.258 -55.940  0.00  0.00    +0.000 A 
ATOM     12  C   UNL     1     -23.129   6.610 -53.737  0.00  0.00    +0.000 A 
ATOM     13  C   UNL     1     -22.110   7.528 -53.475  0.00  0.00    +0.000 A 
ATOM     14  C   UNL     1     -23.174   6.011 -54.995  0.00  0.00    +0.000 A 
BRANCH   9  15
ATOM     15  C   UNL     1     -20.020   7.362 -56.734  0.00  0.00    +0.000 C 
ATOM     16  C   UNL     1     -20.505   7.137 -58.184  0.00  0.00    +0.000 C 
ATOM     17  C   UNL     1     -19.500   8.813 -56.640  0.00  0.00    +0.000 C 
ATOM     18  C   UNL     1     -18.845   6.391 -56.489  0.00  0.00    +0.000 C 
ENDBRANCH   9  15
ENDBRANCH   4  12
BRANCH   5  20
ATOM     19  N   UNL     1     -23.563   9.152 -50.799  0.00  0.00    +0.000 NA
ATOM     20  C   UNL     1     -23.346   7.869 -50.810  0.00  0.00    +0.000 C 
BRANCH  19  21
ATOM     21  O   UNL     1     -24.822   9.466 -51.325  0.00  0.00    +0.000 OA
BRANCH  21  22
ATOM     22  C   UNL     1     -24.776  10.729 -51.985  0.00  0.00    +0.000 C 
BRANCH  22  25
ATOM     23 CL   UNL     1     -25.692   8.277 -56.496  0.00  0.00    +0.000 Cl
ATOM     24 CL   UNL     1     -23.020   9.709 -57.677  0.00  0.00    +0.000 Cl
ATOM     25  C   UNL     1     -24.389  10.477 -53.421  0.00  0.00    +0.000 A 
ATOM     26  C   UNL     1     -25.129   9.608 -54.235  0.00  0.00    +0.000 A 
ATOM     27  C   UNL     1     -23.253  11.106 -53.952  0.00  0.00    +0.000 A 
ATOM     28  C   UNL     1     -24.730   9.363 -55.556  0.00  0.00    +0.000 A 
ATOM     29  C   UNL     1     -22.855  10.864 -55.265  0.00  0.00    +0.000 A 
ATOM     30  C   UNL     1     -23.587   9.986 -56.070  0.00  0.00    +0.000 A 
ENDBRANCH  22  25
ENDBRANCH  21  22
ENDBRANCH  19  21
ENDBRANCH   5  20
TORSDOF 6
ENDMDL
MODEL 6
REMARK VINA RESULT:      -5.1     22.771     25.145
REMARK  Name = 155269220
REMARK  9 active torsions:
REMARK  status: ('A' for Active; 'I' for Inactive)
REMARK    1  A    between atoms: O_4  and  N_7
REMARK    2  A    between atoms: O_4  and  C_24
REMARK    3  A    between atoms: C_8  and  C_9
REMARK    4  A    between atoms: C_8  and  C_10
REMARK    5  A    between atoms: C_8  and  C_11
REMARK    6  A    between atoms: C_8  and  C_12
REMARK    7  A    between atoms: C_15  and  C_18
REMARK    8  A    between atoms: C_19  and  C_22
REMARK    9  A    between atoms: C_24  and  C_25
REMARK                            x       y       z     vdW  Elec       q    Type
REMARK                         _______ _______ _______ _____ _____    ______ ____
ROOT
ATOM      1  S   UNL     1     -13.494  -1.937 -34.373  0.00  0.00    +0.000 S 
ATOM      2  N   UNL     1     -11.480  -0.441 -33.813  0.00  0.00    +0.000 N 
ATOM      3  N   UNL     1     -13.344   0.783 -33.690  0.00  0.00    +0.000 NA
ATOM      4  C   UNL     1     -12.232   1.562 -33.407  0.00  0.00    +0.000 A 
ATOM      5  C   UNL     1     -11.046   0.818 -33.476  0.00  0.00    +0.000 A 
ATOM      6  C   UNL     1     -12.834  -0.385 -33.950  0.00  0.00    +0.000 A 
ATOM      7  C   UNL     1     -10.929  -1.694 -33.994  0.00  0.00    +0.000 A 
ATOM      8  C   UNL     1     -11.858  -2.608 -34.323  0.00  0.00    +0.000 A 
ENDROOT
BRANCH   4  12
ATOM      9  C   UNL     1     -12.731   5.711 -32.380  0.00  0.00    +0.000 A 
ATOM     10  C   UNL     1     -12.868   5.260 -33.702  0.00  0.00    +0.000 A 
ATOM     11  C   UNL     1     -12.355   4.762 -31.414  0.00  0.00    +0.000 A 
ATOM     12  C   UNL     1     -12.350   2.971 -33.051  0.00  0.00    +0.000 A 
ATOM     13  C   UNL     1     -12.680   3.909 -34.032  0.00  0.00    +0.000 A 
ATOM     14  C   UNL     1     -12.148   3.420 -31.747  0.00  0.00    +0.000 A 
BRANCH   9  15
ATOM     15  C   UNL     1     -12.978   7.170 -31.961  0.00  0.00    +0.000 C 
ATOM     16  C   UNL     1     -13.241   8.122 -33.149  0.00  0.00    +0.000 C 
ATOM     17  C   UNL     1     -14.214   7.232 -31.037  0.00  0.00    +0.000 C 
ATOM     18  C   UNL     1     -11.754   7.718 -31.198  0.00  0.00    +0.000 C 
ENDBRANCH   9  15
ENDBRANCH   4  12
BRANCH   5  20
ATOM     19  N   UNL     1      -8.848   1.788 -33.976  0.00  0.00    +0.000 NA
ATOM     20  C   UNL     1      -9.693   1.203 -33.180  0.00  0.00    +0.000 C 
BRANCH  19  21
ATOM     21  O   UNL     1      -9.456   2.180 -35.175  0.00  0.00    +0.000 OA
BRANCH  21  22
ATOM     22  C   UNL     1      -8.624   3.110 -35.866  0.00  0.00    +0.000 C 
BRANCH  22  25
ATOM     23 CL   UNL     1      -9.354   8.051 -34.363  0.00  0.00    +0.000 Cl
ATOM     24 CL   UNL     1     -11.897   8.164 -36.391  0.00  0.00    +0.000 Cl
ATOM     25  C   UNL     1      -9.395   4.400 -35.995  0.00  0.00    +0.000 A 
ATOM     26  C   UNL     1      -9.067   5.527 -35.230  0.00  0.00    +0.000 A 
ATOM     27  C   UNL     1     -10.479   4.472 -36.882  0.00  0.00    +0.000 A 
ATOM     28  C   UNL     1      -9.819   6.704 -35.342  0.00  0.00    +0.000 A 
ATOM     29  C   UNL     1     -11.229   5.640 -36.996  0.00  0.00    +0.000 A 
ATOM     30  C   UNL     1     -10.907   6.759 -36.221  0.00  0.00    +0.000 A 
ENDBRANCH  22  25
ENDBRANCH  21  22
ENDBRANCH  19  21
ENDBRANCH   5  20
TORSDOF 6
ENDMDL
MODEL 7
REMARK VINA RESULT:      -5.0     23.574     25.719
REMARK  Name = 155269220
REMARK  9 active torsions:
REMARK  status: ('A' for Active; 'I' for Inactive)
REMARK    1  A    between atoms: O_4  and  N_7
REMARK    2  A    between atoms: O_4  and  C_24
REMARK    3  A    between atoms: C_8  and  C_9
REMARK    4  A    between atoms: C_8  and  C_10
REMARK    5  A    between atoms: C_8  and  C_11
REMARK    6  A    between atoms: C_8  and  C_12
REMARK    7  A    between atoms: C_15  and  C_18
REMARK    8  A    between atoms: C_19  and  C_22
REMARK    9  A    between atoms: C_24  and  C_25
REMARK                            x       y       z     vdW  Elec       q    Type
REMARK                         _______ _______ _______ _____ _____    ______ ____
ROOT
ATOM      1  S   UNL     1       1.595  14.389 -39.949  0.00  0.00    +0.000 S 
ATOM      2  N   UNL     1       0.482  13.176 -41.923  0.00  0.00    +0.000 N 
ATOM      3  N   UNL     1       0.919  11.688 -40.316  0.00  0.00    +0.000 NA
ATOM      4  C   UNL     1       0.329  11.067 -41.407  0.00  0.00    +0.000 A 
ATOM      5  C   UNL     1       0.043  11.978 -42.432  0.00  0.00    +0.000 A 
ATOM      6  C   UNL     1       1.010  12.930 -40.692  0.00  0.00    +0.000 A 
ATOM      7  C   UNL     1       0.486  14.504 -42.301  0.00  0.00    +0.000 A 
ATOM      8  C   UNL     1       1.065  15.288 -41.376  0.00  0.00    +0.000 A 
ENDROOT
BRANCH   4  12
ATOM      9  C   UNL     1      -0.458   6.837 -41.295  0.00  0.00    +0.000 A 
ATOM     10  C   UNL     1       0.804   7.339 -41.644  0.00  0.00    +0.000 A 
ATOM     11  C   UNL     1      -1.477   7.774 -41.049  0.00  0.00    +0.000 A 
ATOM     12  C   UNL     1       0.033   9.638 -41.411  0.00  0.00    +0.000 A 
ATOM     13  C   UNL     1       1.046   8.722 -41.702  0.00  0.00    +0.000 A 
ATOM     14  C   UNL     1      -1.241   9.150 -41.126  0.00  0.00    +0.000 A 
BRANCH   9  15
ATOM     15  C   UNL     1      -0.758   5.334 -41.167  0.00  0.00    +0.000 C 
ATOM     16  C   UNL     1       0.507   4.458 -41.029  0.00  0.00    +0.000 C 
ATOM     17  C   UNL     1      -1.626   5.092 -39.913  0.00  0.00    +0.000 C 
ATOM     18  C   UNL     1      -1.524   4.837 -42.412  0.00  0.00    +0.000 C 
ENDBRANCH   9  15
ENDBRANCH   4  12
BRANCH   5  20
ATOM     19  N   UNL     1      -1.918  11.737 -43.888  0.00  0.00    +0.000 NA
ATOM     20  C   UNL     1      -0.633  11.781 -43.685  0.00  0.00    +0.000 C 
BRANCH  19  21
ATOM     21  O   UNL     1      -2.634  12.078 -42.735  0.00  0.00    +0.000 OA
BRANCH  21  22
ATOM     22  C   UNL     1      -4.032  11.893 -42.953  0.00  0.00    +0.000 C 
BRANCH  22  25
ATOM     23 CL   UNL     1      -5.427  15.892 -39.911  0.00  0.00    +0.000 Cl
ATOM     24 CL   UNL     1      -6.847  17.223 -42.519  0.00  0.00    +0.000 Cl
ATOM     25  C   UNL     1      -4.695  13.240 -42.813  0.00  0.00    +0.000 A 
ATOM     26  C   UNL     1      -4.749  13.903 -41.579  0.00  0.00    +0.000 A 
ATOM     27  C   UNL     1      -5.290  13.838 -43.933  0.00  0.00    +0.000 A 
ATOM     28  C   UNL     1      -5.400  15.138 -41.466  0.00  0.00    +0.000 A 
ATOM     29  C   UNL     1      -5.939  15.066 -43.824  0.00  0.00    +0.000 A 
ATOM     30  C   UNL     1      -6.003  15.718 -42.589  0.00  0.00    +0.000 A 
ENDBRANCH  22  25
ENDBRANCH  21  22
ENDBRANCH  19  21
ENDBRANCH   5  20
TORSDOF 6
ENDMDL
MODEL 8
REMARK VINA RESULT:      -5.0     14.563     17.052
REMARK  Name = 155269220
REMARK  9 active torsions:
REMARK  status: ('A' for Active; 'I' for Inactive)
REMARK    1  A    between atoms: O_4  and  N_7
REMARK    2  A    between atoms: O_4  and  C_24
REMARK    3  A    between atoms: C_8  and  C_9
REMARK    4  A    between atoms: C_8  and  C_10
REMARK    5  A    between atoms: C_8  and  C_11
REMARK    6  A    between atoms: C_8  and  C_12
REMARK    7  A    between atoms: C_15  and  C_18
REMARK    8  A    between atoms: C_19  and  C_22
REMARK    9  A    between atoms: C_24  and  C_25
REMARK                            x       y       z     vdW  Elec       q    Type
REMARK                         _______ _______ _______ _____ _____    ______ ____
ROOT
ATOM      1  S   UNL     1     -20.389  21.943 -43.182  0.00  0.00    +0.000 S 
ATOM      2  N   UNL     1     -19.444  19.789 -42.144  0.00  0.00    +0.000 N 
ATOM      3  N   UNL     1     -18.184  20.358 -43.898  0.00  0.00    +0.000 NA
ATOM      4  C   UNL     1     -17.712  19.189 -43.318  0.00  0.00    +0.000 A 
ATOM      5  C   UNL     1     -18.485  18.809 -42.213  0.00  0.00    +0.000 A 
ATOM      6  C   UNL     1     -19.227  20.649 -43.177  0.00  0.00    +0.000 A 
ATOM      7  C   UNL     1     -20.491  20.134 -41.313  0.00  0.00    +0.000 A 
ATOM      8  C   UNL     1     -21.122  21.244 -41.732  0.00  0.00    +0.000 A 
ENDROOT
BRANCH   4  12
ATOM      9  C   UNL     1     -14.145  17.305 -44.818  0.00  0.00    +0.000 A 
ATOM     10  C   UNL     1     -14.970  18.079 -45.647  0.00  0.00    +0.000 A 
ATOM     11  C   UNL     1     -14.568  17.112 -43.490  0.00  0.00    +0.000 A 
ATOM     12  C   UNL     1     -16.527  18.505 -43.822  0.00  0.00    +0.000 A 
ATOM     13  C   UNL     1     -16.145  18.670 -45.156  0.00  0.00    +0.000 A 
ATOM     14  C   UNL     1     -15.748  17.685 -43.008  0.00  0.00    +0.000 A 
BRANCH   9  15
ATOM     15  C   UNL     1     -12.823  16.680 -45.295  0.00  0.00    +0.000 C 
ATOM     16  C   UNL     1     -12.959  15.209 -45.746  0.00  0.00    +0.000 C 
ATOM     17  C   UNL     1     -12.284  17.485 -46.497  0.00  0.00    +0.000 C 
ATOM     18  C   UNL     1     -11.779  16.716 -44.159  0.00  0.00    +0.000 C 
ENDBRANCH   9  15
ENDBRANCH   4  12
BRANCH   5  20
ATOM     19  N   UNL     1     -18.707  16.496 -41.421  0.00  0.00    +0.000 NA
ATOM     20  C   UNL     1     -18.304  17.726 -41.285  0.00  0.00    +0.000 C 
BRANCH  19  21
ATOM     21  O   UNL     1     -19.227  16.263 -42.699  0.00  0.00    +0.000 OA
BRANCH  21  22
ATOM     22  C   UNL     1     -18.822  14.976 -43.166  0.00  0.00    +0.000 C 
BRANCH  22  25
ATOM     23 CL   UNL     1     -18.948  17.131 -47.913  0.00  0.00    +0.000 Cl
ATOM     24 CL   UNL     1     -16.199  15.524 -48.583  0.00  0.00    +0.000 Cl
ATOM     25  C   UNL     1     -18.179  15.165 -44.517  0.00  0.00    +0.000 A 
ATOM     26  C   UNL     1     -18.764  15.979 -45.496  0.00  0.00    +0.000 A 
ATOM     27  C   UNL     1     -16.981  14.499 -44.812  0.00  0.00    +0.000 A 
ATOM     28  C   UNL     1     -18.165  16.113 -46.756  0.00  0.00    +0.000 A 
ATOM     29  C   UNL     1     -16.384  14.629 -46.063  0.00  0.00    +0.000 A 
ATOM     30  C   UNL     1     -16.977  15.431 -47.044  0.00  0.00    +0.000 A 
ENDBRANCH  22  25
ENDBRANCH  21  22
ENDBRANCH  19  21
ENDBRANCH   5  20
TORSDOF 6
ENDMDL
MODEL 9
REMARK VINA RESULT:      -5.0      4.036      6.971
REMARK  Name = 155269220
REMARK  9 active torsions:
REMARK  status: ('A' for Active; 'I' for Inactive)
REMARK    1  A    between atoms: O_4  and  N_7
REMARK    2  A    between atoms: O_4  and  C_24
REMARK    3  A    between atoms: C_8  and  C_9
REMARK    4  A    between atoms: C_8  and  C_10
REMARK    5  A    between atoms: C_8  and  C_11
REMARK    6  A    between atoms: C_8  and  C_12
REMARK    7  A    between atoms: C_15  and  C_18
REMARK    8  A    between atoms: C_19  and  C_22
REMARK    9  A    between atoms: C_24  and  C_25
REMARK                            x       y       z     vdW  Elec       q    Type
REMARK                         _______ _______ _______ _____ _____    ______ ____
ROOT
ATOM      1  S   UNL     1     -25.495  11.492 -50.528  0.00  0.00    +0.000 S 
ATOM      2  N   UNL     1     -24.181   9.318 -50.136  0.00  0.00    +0.000 N 
ATOM      3  N   UNL     1     -24.180   9.778 -52.322  0.00  0.00    +0.000 NA
ATOM      4  C   UNL     1     -23.491   8.600 -52.072  0.00  0.00    +0.000 A 
ATOM      5  C   UNL     1     -23.475   8.287 -50.706  0.00  0.00    +0.000 A 
ATOM      6  C   UNL     1     -24.590  10.140 -51.141  0.00  0.00    +0.000 A 
ATOM      7  C   UNL     1     -24.527   9.736 -48.867  0.00  0.00    +0.000 A 
ATOM      8  C   UNL     1     -25.253  10.868 -48.891  0.00  0.00    +0.000 A 
ENDROOT
BRANCH   4  12
ATOM      9  C   UNL     1     -21.709   6.412 -55.321  0.00  0.00    +0.000 A 
ATOM     10  C   UNL     1     -22.907   5.994 -54.725  0.00  0.00    +0.000 A 
ATOM     11  C   UNL     1     -21.075   7.539 -54.768  0.00  0.00    +0.000 A 
ATOM     12  C   UNL     1     -22.850   7.843 -53.141  0.00  0.00    +0.000 A 
ATOM     13  C   UNL     1     -23.470   6.699 -53.649  0.00  0.00    +0.000 A 
ATOM     14  C   UNL     1     -21.625   8.229 -53.684  0.00  0.00    +0.000 A 
BRANCH   9  15
ATOM     15  C   UNL     1     -21.081   5.703 -56.534  0.00  0.00    +0.000 C 
ATOM     16  C   UNL     1     -21.649   6.175 -57.890  0.00  0.00    +0.000 C 
ATOM     17  C   UNL     1     -19.561   5.972 -56.550  0.00  0.00    +0.000 C 
ATOM     18  C   UNL     1     -21.321   4.182 -56.442  0.00  0.00    +0.000 C 
ENDBRANCH   9  15
ENDBRANCH   4  12
BRANCH   5  20
ATOM     19  N   UNL     1     -23.368   6.227 -49.377  0.00  0.00    +0.000 NA
ATOM     20  C   UNL     1     -22.813   7.219 -50.009  0.00  0.00    +0.000 C 
BRANCH  19  21
ATOM     21  O   UNL     1     -24.753   6.198 -49.580  0.00  0.00    +0.000 OA
BRANCH  21  22
ATOM     22  C   UNL     1     -25.184   4.860 -49.826  0.00  0.00    +0.000 C 
BRANCH  22  25
ATOM     23 CL   UNL     1     -28.076   6.834 -53.692  0.00  0.00    +0.000 Cl
ATOM     24 CL   UNL     1     -27.054   4.368 -55.552  0.00  0.00    +0.000 Cl
ATOM     25  C   UNL     1     -25.646   4.790 -51.260  0.00  0.00    +0.000 A 
ATOM     26  C   UNL     1     -26.536   5.736 -51.788  0.00  0.00    +0.000 A 
ATOM     27  C   UNL     1     -25.195   3.747 -52.083  0.00  0.00    +0.000 A 
ATOM     28  C   UNL     1     -26.977   5.631 -53.114  0.00  0.00    +0.000 A 
ATOM     29  C   UNL     1     -25.633   3.640 -53.401  0.00  0.00    +0.000 A 
ATOM     30  C   UNL     1     -26.531   4.577 -53.920  0.00  0.00    +0.000 A 
ENDBRANCH  22  25
ENDBRANCH  21  22
ENDBRANCH  19  21
ENDBRANCH   5  20
TORSDOF 6
ENDMDL
MODEL 10
REMARK VINA RESULT:      -4.9      3.816      6.234
REMARK  Name = 155269220
REMARK  9 active torsions:
REMARK  status: ('A' for Active; 'I' for Inactive)
REMARK    1  A    between atoms: O_4  and  N_7
REMARK    2  A    between atoms: O_4  and  C_24
REMARK    3  A    between atoms: C_8  and  C_9
REMARK    4  A    between atoms: C_8  and  C_10
REMARK    5  A    between atoms: C_8  and  C_11
REMARK    6  A    between atoms: C_8  and  C_12
REMARK    7  A    between atoms: C_15  and  C_18
REMARK    8  A    between atoms: C_19  and  C_22
REMARK    9  A    between atoms: C_24  and  C_25
REMARK                            x       y       z     vdW  Elec       q    Type
REMARK                         _______ _______ _______ _____ _____    ______ ____
ROOT
ATOM      1  S   UNL     1     -28.475   5.837 -58.616  0.00  0.00    +0.000 S 
ATOM      2  N   UNL     1     -26.095   5.117 -59.267  0.00  0.00    +0.000 N 
ATOM      3  N   UNL     1     -26.002   7.134 -58.313  0.00  0.00    +0.000 NA
ATOM      4  C   UNL     1     -24.735   6.716 -58.692  0.00  0.00    +0.000 A 
ATOM      5  C   UNL     1     -24.763   5.451 -59.293  0.00  0.00    +0.000 A 
ATOM      6  C   UNL     1     -26.768   6.158 -58.705  0.00  0.00    +0.000 A 
ATOM      7  C   UNL     1     -26.880   4.033 -59.605  0.00  0.00    +0.000 A 
ATOM      8  C   UNL     1     -28.181   4.255 -59.349  0.00  0.00    +0.000 A 
ENDROOT
BRANCH   4  12
ATOM      9  C   UNL     1     -21.243   9.155 -58.073  0.00  0.00    +0.000 A 
ATOM     10  C   UNL     1     -21.201   8.001 -58.870  0.00  0.00    +0.000 A 
ATOM     11  C   UNL     1     -22.458   9.444 -57.427  0.00  0.00    +0.000 A 
ATOM     12  C   UNL     1     -23.549   7.525 -58.433  0.00  0.00    +0.000 A 
ATOM     13  C   UNL     1     -22.338   7.197 -59.047  0.00  0.00    +0.000 A 
ATOM     14  C   UNL     1     -23.585   8.633 -57.588  0.00  0.00    +0.000 A 
BRANCH   9  15
ATOM     15  C   UNL     1     -20.039  10.094 -57.890  0.00  0.00    +0.000 C 
ATOM     16  C   UNL     1     -19.710  10.932 -59.146  0.00  0.00    +0.000 C 
ATOM     17  C   UNL     1     -20.333  11.081 -56.739  0.00  0.00    +0.000 C 
ATOM     18  C   UNL     1     -18.777   9.278 -57.541  0.00  0.00    +0.000 C 
ENDBRANCH   9  15
ENDBRANCH   4  12
BRANCH   5  20
ATOM     19  N   UNL     1     -23.170   3.589 -59.143  0.00  0.00    +0.000 NA
ATOM     20  C   UNL     1     -23.684   4.619 -59.751  0.00  0.00    +0.000 C 
BRANCH  19  21
ATOM     21  O   UNL     1     -23.909   3.242 -58.006  0.00  0.00    +0.000 OA
BRANCH  21  22
ATOM     22  C   UNL     1     -23.029   2.894 -56.938  0.00  0.00    +0.000 C 
BRANCH  22  25
ATOM     23 CL   UNL     1     -18.915   6.054 -56.400  0.00  0.00    +0.000 Cl
ATOM     24 CL   UNL     1     -20.794   7.993 -54.584  0.00  0.00    +0.000 Cl
ATOM     25  C   UNL     1     -22.445   4.175 -56.396  0.00  0.00    +0.000 A 
ATOM     26  C   UNL     1     -21.105   4.520 -56.622  0.00  0.00    +0.000 A 
ATOM     27  C   UNL     1     -23.249   5.034 -55.632  0.00  0.00    +0.000 A 
ATOM     28  C   UNL     1     -20.576   5.699 -56.081  0.00  0.00    +0.000 A 
ATOM     29  C   UNL     1     -22.725   6.206 -55.092  0.00  0.00    +0.000 A 
ATOM     30  C   UNL     1     -21.385   6.540 -55.308  0.00  0.00    +0.000 A 
ENDBRANCH  22  25
ENDBRANCH  21  22
ENDBRANCH  19  21
ENDBRANCH   5  20
TORSDOF 6
ENDMDL
