MODEL 1
REMARK VINA RESULT:      -6.9      0.000      0.000
REMARK  Name = 155269226
REMARK  6 active torsions:
REMARK  status: ('A' for Active; 'I' for Inactive)
REMARK    1  A    between atoms: O_4  and  N_7
REMARK    2  A    between atoms: O_4  and  C_23
REMARK    3  A    between atoms: C_8  and  C_10
REMARK    4  A    between atoms: C_9  and  C_18
REMARK    5  A    between atoms: C_12  and  C_19
REMARK    6  A    between atoms: C_23  and  C_24
REMARK                            x       y       z     vdW  Elec       q    Type
REMARK                         _______ _______ _______ _____ _____    ______ ____
ROOT
ATOM      1  S   UNL     1     -17.842   8.656 -35.491  0.00  0.00    +0.000 S 
ATOM      2  N   UNL     1     -16.316   7.357 -33.883  0.00  0.00    +0.000 N 
ATOM      3  N   UNL     1     -15.194   7.752 -35.772  0.00  0.00    +0.000 NA
ATOM      4  C   UNL     1     -14.390   7.060 -34.868  0.00  0.00    +0.000 A 
ATOM      5  C   UNL     1     -15.082   6.795 -33.674  0.00  0.00    +0.000 A 
ATOM      6  C   UNL     1     -16.323   7.889 -35.138  0.00  0.00    +0.000 A 
ATOM      7  C   UNL     1     -17.478   7.551 -33.167  0.00  0.00    +0.000 A 
ATOM      8  C   UNL     1     -18.408   8.206 -33.874  0.00  0.00    +0.000 A 
ENDROOT
BRANCH   4   9
ATOM      9  C   UNL     1     -13.001   6.724 -35.202  0.00  0.00    +0.000 A 
ATOM     10  C   UNL     1     -10.334   6.011 -35.990  0.00  0.00    +0.000 A 
ATOM     11  C   UNL     1     -12.543   5.400 -35.114  0.00  0.00    +0.000 A 
ATOM     12  C   UNL     1     -12.089   7.682 -35.636  0.00  0.00    +0.000 A 
ATOM     13  C   UNL     1     -11.227   5.049 -35.486  0.00  0.00    +0.000 A 
ATOM     14  C   UNL     1     -10.809   7.329 -36.061  0.00  0.00    +0.000 A 
BRANCH  10  15
ATOM     15  C   UNL     1      -8.952   5.709 -36.438  0.00  0.00    +0.000 A 
ATOM     16  C   UNL     1      -8.594   4.478 -37.007  0.00  0.00    +0.000 A 
ATOM     17  C   UNL     1      -7.940   6.691 -36.357  0.00  0.00    +0.000 A 
ATOM     18  C   UNL     1      -7.298   4.252 -37.493  0.00  0.00    +0.000 A 
ATOM     19  C   UNL     1      -6.656   6.478 -36.860  0.00  0.00    +0.000 A 
ATOM     20  C   UNL     1      -6.335   5.256 -37.431  0.00  0.00    +0.000 A 
ENDBRANCH  10  15
ENDBRANCH   4   9
BRANCH   5  22
ATOM     21  N   UNL     1     -14.827   4.958 -32.062  0.00  0.00    +0.000 NA
ATOM     22  C   UNL     1     -14.680   6.198 -32.429  0.00  0.00    +0.000 C 
BRANCH  21  23
ATOM     23  O   UNL     1     -15.324   4.160 -33.101  0.00  0.00    +0.000 OA
BRANCH  23  24
ATOM     24  C   UNL     1     -15.696   2.881 -32.586  0.00  0.00    +0.000 C 
BRANCH  24  27
ATOM     25 CL   UNL     1     -20.397   5.122 -32.334  0.00  0.00    +0.000 Cl
ATOM     26 CL   UNL     1     -21.687   2.193 -32.922  0.00  0.00    +0.000 Cl
ATOM     27  C   UNL     1     -17.195   2.758 -32.701  0.00  0.00    +0.000 A 
ATOM     28  C   UNL     1     -18.035   3.863 -32.512  0.00  0.00    +0.000 A 
ATOM     29  C   UNL     1     -17.764   1.505 -32.979  0.00  0.00    +0.000 A 
ATOM     30  C   UNL     1     -19.426   3.715 -32.582  0.00  0.00    +0.000 A 
ATOM     31  C   UNL     1     -19.147   1.355 -33.052  0.00  0.00    +0.000 A 
ATOM     32  C   UNL     1     -19.984   2.456 -32.848  0.00  0.00    +0.000 A 
ENDBRANCH  24  27
ENDBRANCH  23  24
ENDBRANCH  21  23
ENDBRANCH   5  22
TORSDOF 6
ENDMDL
MODEL 2
REMARK VINA RESULT:      -6.9     19.896     22.924
REMARK  Name = 155269226
REMARK  6 active torsions:
REMARK  status: ('A' for Active; 'I' for Inactive)
REMARK    1  A    between atoms: O_4  and  N_7
REMARK    2  A    between atoms: O_4  and  C_23
REMARK    3  A    between atoms: C_8  and  C_10
REMARK    4  A    between atoms: C_9  and  C_18
REMARK    5  A    between atoms: C_12  and  C_19
REMARK    6  A    between atoms: C_23  and  C_24
REMARK                            x       y       z     vdW  Elec       q    Type
REMARK                         _______ _______ _______ _____ _____    ______ ____
ROOT
ATOM      1  S   UNL     1      -3.865   6.665 -54.602  0.00  0.00    +0.000 S 
ATOM      2  N   UNL     1      -4.084   4.358 -55.712  0.00  0.00    +0.000 N 
ATOM      3  N   UNL     1      -4.839   4.217 -53.616  0.00  0.00    +0.000 NA
ATOM      4  C   UNL     1      -4.956   2.985 -54.254  0.00  0.00    +0.000 A 
ATOM      5  C   UNL     1      -4.478   3.050 -55.575  0.00  0.00    +0.000 A 
ATOM      6  C   UNL     1      -4.307   4.986 -54.523  0.00  0.00    +0.000 A 
ATOM      7  C   UNL     1      -3.586   5.168 -56.708  0.00  0.00    +0.000 A 
ATOM      8  C   UNL     1      -3.387   6.425 -56.291  0.00  0.00    +0.000 A 
ENDROOT
BRANCH   4   9
ATOM      9  C   UNL     1      -5.546   1.833 -53.563  0.00  0.00    +0.000 A 
ATOM     10  C   UNL     1      -6.569  -0.502 -52.241  0.00  0.00    +0.000 A 
ATOM     11  C   UNL     1      -6.083   0.758 -54.289  0.00  0.00    +0.000 A 
ATOM     12  C   UNL     1      -5.580   1.738 -52.175  0.00  0.00    +0.000 A 
ATOM     13  C   UNL     1      -6.602  -0.383 -53.642  0.00  0.00    +0.000 A 
ATOM     14  C   UNL     1      -6.036   0.587 -51.534  0.00  0.00    +0.000 A 
BRANCH  10  15
ATOM     15  C   UNL     1      -7.058  -1.687 -51.495  0.00  0.00    +0.000 A 
ATOM     16  C   UNL     1      -6.420  -2.935 -51.557  0.00  0.00    +0.000 A 
ATOM     17  C   UNL     1      -8.173  -1.585 -50.633  0.00  0.00    +0.000 A 
ATOM     18  C   UNL     1      -6.859  -4.015 -50.777  0.00  0.00    +0.000 A 
ATOM     19  C   UNL     1      -8.598  -2.650 -49.839  0.00  0.00    +0.000 A 
ATOM     20  C   UNL     1      -7.939  -3.867 -49.911  0.00  0.00    +0.000 A 
ENDBRANCH  10  15
ENDBRANCH   4   9
BRANCH   5  22
ATOM     21  N   UNL     1      -3.507   1.256 -56.944  0.00  0.00    +0.000 NA
ATOM     22  C   UNL     1      -4.457   2.096 -56.650  0.00  0.00    +0.000 C 
BRANCH  21  23
ATOM     23  O   UNL     1      -2.487   1.262 -55.983  0.00  0.00    +0.000 OA
BRANCH  23  24
ATOM     24  C   UNL     1      -2.022  -0.071 -55.770  0.00  0.00    +0.000 C 
BRANCH  24  27
ATOM     25 CL   UNL     1      -2.194   1.183 -50.711  0.00  0.00    +0.000 Cl
ATOM     26 CL   UNL     1      -3.309  -1.819 -50.133  0.00  0.00    +0.000 Cl
ATOM     27  C   UNL     1      -2.368  -0.456 -54.353  0.00  0.00    +0.000 A 
ATOM     28  C   UNL     1      -2.174   0.431 -53.287  0.00  0.00    +0.000 A 
ATOM     29  C   UNL     1      -2.874  -1.739 -54.093  0.00  0.00    +0.000 A 
ATOM     30  C   UNL     1      -2.464   0.035 -51.975  0.00  0.00    +0.000 A 
ATOM     31  C   UNL     1      -3.165  -2.136 -52.789  0.00  0.00    +0.000 A 
ATOM     32  C   UNL     1      -2.955  -1.254 -51.725  0.00  0.00    +0.000 A 
ENDBRANCH  24  27
ENDBRANCH  23  24
ENDBRANCH  21  23
ENDBRANCH   5  22
TORSDOF 6
ENDMDL
MODEL 3
REMARK VINA RESULT:      -6.9      3.499      4.266
REMARK  Name = 155269226
REMARK  6 active torsions:
REMARK  status: ('A' for Active; 'I' for Inactive)
REMARK    1  A    between atoms: O_4  and  N_7
REMARK    2  A    between atoms: O_4  and  C_23
REMARK    3  A    between atoms: C_8  and  C_10
REMARK    4  A    between atoms: C_9  and  C_18
REMARK    5  A    between atoms: C_12  and  C_19
REMARK    6  A    between atoms: C_23  and  C_24
REMARK                            x       y       z     vdW  Elec       q    Type
REMARK                         _______ _______ _______ _____ _____    ______ ____
ROOT
ATOM      1  S   UNL     1     -17.392   8.539 -35.470  0.00  0.00    +0.000 S 
ATOM      2  N   UNL     1     -15.890   7.149 -33.916  0.00  0.00    +0.000 N 
ATOM      3  N   UNL     1     -14.766   7.584 -35.795  0.00  0.00    +0.000 NA
ATOM      4  C   UNL     1     -13.975   6.842 -34.920  0.00  0.00    +0.000 A 
ATOM      5  C   UNL     1     -14.669   6.551 -33.733  0.00  0.00    +0.000 A 
ATOM      6  C   UNL     1     -15.890   7.724 -35.152  0.00  0.00    +0.000 A 
ATOM      7  C   UNL     1     -17.044   7.344 -33.188  0.00  0.00    +0.000 A 
ATOM      8  C   UNL     1     -17.961   8.044 -33.867  0.00  0.00    +0.000 A 
ENDROOT
BRANCH   4   9
ATOM      9  C   UNL     1     -12.596   6.486 -35.272  0.00  0.00    +0.000 A 
ATOM     10  C   UNL     1      -9.919   5.857 -36.098  0.00  0.00    +0.000 A 
ATOM     11  C   UNL     1     -12.330   5.407 -36.130  0.00  0.00    +0.000 A 
ATOM     12  C   UNL     1     -11.500   7.202 -34.798  0.00  0.00    +0.000 A 
ATOM     13  C   UNL     1     -11.014   5.086 -36.525  0.00  0.00    +0.000 A 
ATOM     14  C   UNL     1     -10.206   6.925 -35.234  0.00  0.00    +0.000 A 
BRANCH  10  15
ATOM     15  C   UNL     1      -8.515   5.605 -36.504  0.00  0.00    +0.000 A 
ATOM     16  C   UNL     1      -8.091   4.379 -37.039  0.00  0.00    +0.000 A 
ATOM     17  C   UNL     1      -7.546   6.629 -36.416  0.00  0.00    +0.000 A 
ATOM     18  C   UNL     1      -6.774   4.198 -37.488  0.00  0.00    +0.000 A 
ATOM     19  C   UNL     1      -6.242   6.461 -36.881  0.00  0.00    +0.000 A 
ATOM     20  C   UNL     1      -5.856   5.243 -37.420  0.00  0.00    +0.000 A 
ENDBRANCH  10  15
ENDBRANCH   4   9
BRANCH   5  22
ATOM     21  N   UNL     1     -14.130   4.624 -32.306  0.00  0.00    +0.000 NA
ATOM     22  C   UNL     1     -14.276   5.901 -32.512  0.00  0.00    +0.000 C 
BRANCH  21  23
ATOM     23  O   UNL     1     -14.267   3.885 -33.488  0.00  0.00    +0.000 OA
BRANCH  23  24
ATOM     24  C   UNL     1     -14.613   2.536 -33.172  0.00  0.00    +0.000 C 
BRANCH  24  27
ATOM     25 CL   UNL     1      -9.712   2.098 -34.898  0.00  0.00    +0.000 Cl
ATOM     26 CL   UNL     1      -9.805  -1.027 -33.994  0.00  0.00    +0.000 Cl
ATOM     27  C   UNL     1     -13.379   1.689 -33.359  0.00  0.00    +0.000 A 
ATOM     28  C   UNL     1     -12.221   2.208 -33.954  0.00  0.00    +0.000 A 
ATOM     29  C   UNL     1     -13.397   0.347 -32.951  0.00  0.00    +0.000 A 
ATOM     30  C   UNL     1     -11.102   1.389 -34.154  0.00  0.00    +0.000 A 
ATOM     31  C   UNL     1     -12.284  -0.469 -33.147  0.00  0.00    +0.000 A 
ATOM     32  C   UNL     1     -11.135   0.046 -33.755  0.00  0.00    +0.000 A 
ENDBRANCH  24  27
ENDBRANCH  23  24
ENDBRANCH  21  23
ENDBRANCH   5  22
TORSDOF 6
ENDMDL
MODEL 4
REMARK VINA RESULT:      -6.8      5.040      7.135
REMARK  Name = 155269226
REMARK  6 active torsions:
REMARK  status: ('A' for Active; 'I' for Inactive)
REMARK    1  A    between atoms: O_4  and  N_7
REMARK    2  A    between atoms: O_4  and  C_23
REMARK    3  A    between atoms: C_8  and  C_10
REMARK    4  A    between atoms: C_9  and  C_18
REMARK    5  A    between atoms: C_12  and  C_19
REMARK    6  A    between atoms: C_23  and  C_24
REMARK                            x       y       z     vdW  Elec       q    Type
REMARK                         _______ _______ _______ _____ _____    ______ ____
ROOT
ATOM      1  S   UNL     1     -18.164   8.825 -35.458  0.00  0.00    +0.000 S 
ATOM      2  N   UNL     1     -16.262   8.346 -33.798  0.00  0.00    +0.000 N 
ATOM      3  N   UNL     1     -15.559   7.842 -35.857  0.00  0.00    +0.000 NA
ATOM      4  C   UNL     1     -14.545   7.608 -34.930  0.00  0.00    +0.000 A 
ATOM      5  C   UNL     1     -14.971   7.912 -33.625  0.00  0.00    +0.000 A 
ATOM      6  C   UNL     1     -16.552   8.266 -35.128  0.00  0.00    +0.000 A 
ATOM      7  C   UNL     1     -17.274   8.858 -33.017  0.00  0.00    +0.000 A 
ATOM      8  C   UNL     1     -18.370   9.148 -33.729  0.00  0.00    +0.000 A 
ENDROOT
BRANCH   4   9
ATOM      9  C   UNL     1     -13.226   7.134 -35.362  0.00  0.00    +0.000 A 
ATOM     10  C   UNL     1     -10.587   6.253 -36.072  0.00  0.00    +0.000 A 
ATOM     11  C   UNL     1     -12.246   8.040 -35.797  0.00  0.00    +0.000 A 
ATOM     12  C   UNL     1     -12.878   5.786 -35.342  0.00  0.00    +0.000 A 
ATOM     13  C   UNL     1     -10.952   7.607 -36.162  0.00  0.00    +0.000 A 
ATOM     14  C   UNL     1     -11.584   5.364 -35.643  0.00  0.00    +0.000 A 
BRANCH  10  15
ATOM     15  C   UNL     1      -9.237   5.732 -36.398  0.00  0.00    +0.000 A 
ATOM     16  C   UNL     1      -8.063   6.451 -36.125  0.00  0.00    +0.000 A 
ATOM     17  C   UNL     1      -9.079   4.444 -36.956  0.00  0.00    +0.000 A 
ATOM     18  C   UNL     1      -6.798   5.896 -36.373  0.00  0.00    +0.000 A 
ATOM     19  C   UNL     1      -7.823   3.881 -37.183  0.00  0.00    +0.000 A 
ATOM     20  C   UNL     1      -6.680   4.609 -36.889  0.00  0.00    +0.000 A 
ENDBRANCH  10  15
ENDBRANCH   4   9
BRANCH   5  22
ATOM     21  N   UNL     1     -13.425   8.793 -31.931  0.00  0.00    +0.000 NA
ATOM     22  C   UNL     1     -14.293   7.922 -32.358  0.00  0.00    +0.000 C 
BRANCH  21  23
ATOM     23  O   UNL     1     -13.290   9.873 -32.813  0.00  0.00    +0.000 OA
BRANCH  23  24
ATOM     24  C   UNL     1     -12.726  10.988 -32.122  0.00  0.00    +0.000 C 
BRANCH  24  27
ATOM     25 CL   UNL     1     -10.489  14.556 -35.197  0.00  0.00    +0.000 Cl
ATOM     26 CL   UNL     1      -7.877  12.622 -35.331  0.00  0.00    +0.000 Cl
ATOM     27  C   UNL     1     -11.521  11.450 -32.903  0.00  0.00    +0.000 A 
ATOM     28  C   UNL     1     -11.525  12.663 -33.604  0.00  0.00    +0.000 A 
ATOM     29  C   UNL     1     -10.378  10.637 -32.949  0.00  0.00    +0.000 A 
ATOM     30  C   UNL     1     -10.409  13.049 -34.356  0.00  0.00    +0.000 A 
ATOM     31  C   UNL     1      -9.264  11.019 -33.694  0.00  0.00    +0.000 A 
ATOM     32  C   UNL     1      -9.277  12.223 -34.405  0.00  0.00    +0.000 A 
ENDBRANCH  24  27
ENDBRANCH  23  24
ENDBRANCH  21  23
ENDBRANCH   5  22
TORSDOF 6
ENDMDL
MODEL 5
REMARK VINA RESULT:      -6.7     20.192     21.813
REMARK  Name = 155269226
REMARK  6 active torsions:
REMARK  status: ('A' for Active; 'I' for Inactive)
REMARK    1  A    between atoms: O_4  and  N_7
REMARK    2  A    between atoms: O_4  and  C_23
REMARK    3  A    between atoms: C_8  and  C_10
REMARK    4  A    between atoms: C_9  and  C_18
REMARK    5  A    between atoms: C_12  and  C_19
REMARK    6  A    between atoms: C_23  and  C_24
REMARK                            x       y       z     vdW  Elec       q    Type
REMARK                         _______ _______ _______ _____ _____    ______ ____
ROOT
ATOM      1  S   UNL     1     -27.588   5.627 -49.392  0.00  0.00    +0.000 S 
ATOM      2  N   UNL     1     -25.721   7.388 -49.511  0.00  0.00    +0.000 N 
ATOM      3  N   UNL     1     -25.571   6.065 -51.302  0.00  0.00    +0.000 NA
ATOM      4  C   UNL     1     -24.580   7.044 -51.341  0.00  0.00    +0.000 A 
ATOM      5  C   UNL     1     -24.654   7.883 -50.216  0.00  0.00    +0.000 A 
ATOM      6  C   UNL     1     -26.207   6.312 -50.193  0.00  0.00    +0.000 A 
ATOM      7  C   UNL     1     -26.421   7.711 -48.369  0.00  0.00    +0.000 A 
ATOM      8  C   UNL     1     -27.435   6.868 -48.138  0.00  0.00    +0.000 A 
ENDROOT
BRANCH   4   9
ATOM      9  C   UNL     1     -23.647   7.124 -52.470  0.00  0.00    +0.000 A 
ATOM     10  C   UNL     1     -21.723   7.189 -54.601  0.00  0.00    +0.000 A 
ATOM     11  C   UNL     1     -22.505   7.939 -52.400  0.00  0.00    +0.000 A 
ATOM     12  C   UNL     1     -23.830   6.392 -53.639  0.00  0.00    +0.000 A 
ATOM     13  C   UNL     1     -21.567   7.985 -53.452  0.00  0.00    +0.000 A 
ATOM     14  C   UNL     1     -22.875   6.389 -54.654  0.00  0.00    +0.000 A 
BRANCH  10  15
ATOM     15  C   UNL     1     -20.759   7.154 -55.727  0.00  0.00    +0.000 A 
ATOM     16  C   UNL     1     -20.995   6.425 -56.902  0.00  0.00    +0.000 A 
ATOM     17  C   UNL     1     -19.569   7.914 -55.678  0.00  0.00    +0.000 A 
ATOM     18  C   UNL     1     -20.100   6.477 -57.981  0.00  0.00    +0.000 A 
ATOM     19  C   UNL     1     -18.688   7.986 -56.757  0.00  0.00    +0.000 A 
ATOM     20  C   UNL     1     -18.955   7.267 -57.912  0.00  0.00    +0.000 A 
ENDBRANCH  10  15
ENDBRANCH   4   9
BRANCH   5  22
ATOM     21  N   UNL     1     -24.003  10.247 -50.378  0.00  0.00    +0.000 NA
ATOM     22  C   UNL     1     -23.929   9.066 -49.836  0.00  0.00    +0.000 C 
BRANCH  21  23
ATOM     23  O   UNL     1     -25.012  10.317 -51.347  0.00  0.00    +0.000 OA
BRANCH  23  24
ATOM     24  C   UNL     1     -24.803  11.461 -52.175  0.00  0.00    +0.000 C 
BRANCH  24  27
ATOM     25 CL   UNL     1     -25.599   8.370 -56.298  0.00  0.00    +0.000 Cl
ATOM     26 CL   UNL     1     -22.794   9.482 -57.516  0.00  0.00    +0.000 Cl
ATOM     27  C   UNL     1     -24.355  10.971 -53.529  0.00  0.00    +0.000 A 
ATOM     28  C   UNL     1     -25.095  10.018 -54.243  0.00  0.00    +0.000 A 
ATOM     29  C   UNL     1     -23.160  11.461 -54.078  0.00  0.00    +0.000 A 
ATOM     30  C   UNL     1     -24.636   9.548 -55.480  0.00  0.00    +0.000 A 
ATOM     31  C   UNL     1     -22.702  10.997 -55.310  0.00  0.00    +0.000 A 
ATOM     32  C   UNL     1     -23.433  10.035 -56.012  0.00  0.00    +0.000 A 
ENDBRANCH  24  27
ENDBRANCH  23  24
ENDBRANCH  21  23
ENDBRANCH   5  22
TORSDOF 6
ENDMDL
MODEL 6
REMARK VINA RESULT:      -6.7     21.595     23.909
REMARK  Name = 155269226
REMARK  6 active torsions:
REMARK  status: ('A' for Active; 'I' for Inactive)
REMARK    1  A    between atoms: O_4  and  N_7
REMARK    2  A    between atoms: O_4  and  C_23
REMARK    3  A    between atoms: C_8  and  C_10
REMARK    4  A    between atoms: C_9  and  C_18
REMARK    5  A    between atoms: C_12  and  C_19
REMARK    6  A    between atoms: C_23  and  C_24
REMARK                            x       y       z     vdW  Elec       q    Type
REMARK                         _______ _______ _______ _____ _____    ______ ____
ROOT
ATOM      1  S   UNL     1      -5.352  -3.696 -50.199  0.00  0.00    +0.000 S 
ATOM      2  N   UNL     1      -6.757  -2.471 -51.967  0.00  0.00    +0.000 N 
ATOM      3  N   UNL     1      -4.937  -1.254 -51.530  0.00  0.00    +0.000 NA
ATOM      4  C   UNL     1      -5.717  -0.625 -52.498  0.00  0.00    +0.000 A 
ATOM      5  C   UNL     1      -6.873  -1.373 -52.782  0.00  0.00    +0.000 A 
ATOM      6  C   UNL     1      -5.608  -2.333 -51.247  0.00  0.00    +0.000 A 
ATOM      7  C   UNL     1      -7.448  -3.640 -51.734  0.00  0.00    +0.000 A 
ATOM      8  C   UNL     1      -6.857  -4.404 -50.806  0.00  0.00    +0.000 A 
ENDROOT
BRANCH   4   9
ATOM      9  C   UNL     1      -5.287   0.639 -53.107  0.00  0.00    +0.000 A 
ATOM     10  C   UNL     1      -4.507   3.064 -54.432  0.00  0.00    +0.000 A 
ATOM     11  C   UNL     1      -4.160   0.685 -53.943  0.00  0.00    +0.000 A 
ATOM     12  C   UNL     1      -5.975   1.832 -52.907  0.00  0.00    +0.000 A 
ATOM     13  C   UNL     1      -3.766   1.879 -54.583  0.00  0.00    +0.000 A 
ATOM     14  C   UNL     1      -5.624   2.998 -53.585  0.00  0.00    +0.000 A 
BRANCH  10  15
ATOM     15  C   UNL     1      -4.176   4.344 -55.104  0.00  0.00    +0.000 A 
ATOM     16  C   UNL     1      -4.153   5.571 -54.424  0.00  0.00    +0.000 A 
ATOM     17  C   UNL     1      -3.810   4.366 -56.469  0.00  0.00    +0.000 A 
ATOM     18  C   UNL     1      -3.759   6.752 -55.070  0.00  0.00    +0.000 A 
ATOM     19  C   UNL     1      -3.396   5.534 -57.108  0.00  0.00    +0.000 A 
ATOM     20  C   UNL     1      -3.369   6.730 -56.406  0.00  0.00    +0.000 A 
ENDBRANCH  10  15
ENDBRANCH   4   9
BRANCH   5  22
ATOM     21  N   UNL     1      -7.831  -1.216 -55.039  0.00  0.00    +0.000 NA
ATOM     22  C   UNL     1      -7.930  -1.203 -53.741  0.00  0.00    +0.000 C 
BRANCH  21  23
ATOM     23  O   UNL     1      -6.542  -1.563 -55.462  0.00  0.00    +0.000 OA
BRANCH  23  24
ATOM     24  C   UNL     1      -6.591  -2.039 -56.808  0.00  0.00    +0.000 C 
BRANCH  24  27
ATOM     25 CL   UNL     1      -7.131   0.540 -61.307  0.00  0.00    +0.000 Cl
ATOM     26 CL   UNL     1      -4.650   2.429 -60.378  0.00  0.00    +0.000 Cl
ATOM     27  C   UNL     1      -6.161  -0.910 -57.710  0.00  0.00    +0.000 A 
ATOM     28  C   UNL     1      -6.774  -0.694 -58.952  0.00  0.00    +0.000 A 
ATOM     29  C   UNL     1      -5.109  -0.072 -57.311  0.00  0.00    +0.000 A 
ATOM     30  C   UNL     1      -6.329   0.336 -59.790  0.00  0.00    +0.000 A 
ATOM     31  C   UNL     1      -4.665   0.955 -58.142  0.00  0.00    +0.000 A 
ATOM     32  C   UNL     1      -5.268   1.159 -59.387  0.00  0.00    +0.000 A 
ENDBRANCH  24  27
ENDBRANCH  23  24
ENDBRANCH  21  23
ENDBRANCH   5  22
TORSDOF 6
ENDMDL
MODEL 7
REMARK VINA RESULT:      -6.7     21.306     23.159
REMARK  Name = 155269226
REMARK  6 active torsions:
REMARK  status: ('A' for Active; 'I' for Inactive)
REMARK    1  A    between atoms: O_4  and  N_7
REMARK    2  A    between atoms: O_4  and  C_23
REMARK    3  A    between atoms: C_8  and  C_10
REMARK    4  A    between atoms: C_9  and  C_18
REMARK    5  A    between atoms: C_12  and  C_19
REMARK    6  A    between atoms: C_23  and  C_24
REMARK                            x       y       z     vdW  Elec       q    Type
REMARK                         _______ _______ _______ _____ _____    ______ ____
ROOT
ATOM      1  S   UNL     1     -22.663   9.985 -58.878  0.00  0.00    +0.000 S 
ATOM      2  N   UNL     1     -21.037   8.738 -57.327  0.00  0.00    +0.000 N 
ATOM      3  N   UNL     1     -23.020   8.889 -56.312  0.00  0.00    +0.000 NA
ATOM      4  C   UNL     1     -22.115   8.204 -55.504  0.00  0.00    +0.000 A 
ATOM      5  C   UNL     1     -20.856   8.105 -56.123  0.00  0.00    +0.000 A 
ATOM      6  C   UNL     1     -22.323   9.189 -57.370  0.00  0.00    +0.000 A 
ATOM      7  C   UNL     1     -20.300   8.984 -58.465  0.00  0.00    +0.000 A 
ATOM      8  C   UNL     1     -20.999   9.657 -59.388  0.00  0.00    +0.000 A 
ENDROOT
BRANCH   4   9
ATOM      9  C   UNL     1     -22.527   7.666 -54.203  0.00  0.00    +0.000 A 
ATOM     10  C   UNL     1     -23.429   6.733 -51.641  0.00  0.00    +0.000 A 
ATOM     11  C   UNL     1     -22.045   8.227 -53.009  0.00  0.00    +0.000 A 
ATOM     12  C   UNL     1     -23.418   6.603 -54.087  0.00  0.00    +0.000 A 
ATOM     13  C   UNL     1     -22.475   7.760 -51.749  0.00  0.00    +0.000 A 
ATOM     14  C   UNL     1     -23.890   6.180 -52.846  0.00  0.00    +0.000 A 
BRANCH  10  15
ATOM     15  C   UNL     1     -23.957   6.219 -50.354  0.00  0.00    +0.000 A 
ATOM     16  C   UNL     1     -23.618   6.788 -49.117  0.00  0.00    +0.000 A 
ATOM     17  C   UNL     1     -24.882   5.151 -50.331  0.00  0.00    +0.000 A 
ATOM     18  C   UNL     1     -24.197   6.330 -47.924  0.00  0.00    +0.000 A 
ATOM     19  C   UNL     1     -25.477   4.709 -49.150  0.00  0.00    +0.000 A 
ATOM     20  C   UNL     1     -25.134   5.300 -47.944  0.00  0.00    +0.000 A 
ENDBRANCH  10  15
ENDBRANCH   4   9
BRANCH   5  22
ATOM     21  N   UNL     1     -19.280   6.223 -56.045  0.00  0.00    +0.000 NA
ATOM     22  C   UNL     1     -19.639   7.438 -55.750  0.00  0.00    +0.000 C 
BRANCH  21  23
ATOM     23  O   UNL     1     -20.178   5.612 -56.929  0.00  0.00    +0.000 OA
BRANCH  23  24
ATOM     24  C   UNL     1     -20.667   4.399 -56.353  0.00  0.00    +0.000 C 
BRANCH  24  27
ATOM     25 CL   UNL     1     -24.914   6.438 -58.588  0.00  0.00    +0.000 Cl
ATOM     26 CL   UNL     1     -26.517   3.747 -57.708  0.00  0.00    +0.000 Cl
ATOM     27  C   UNL     1     -22.116   4.257 -56.744  0.00  0.00    +0.000 A 
ATOM     28  C   UNL     1     -22.791   5.277 -57.430  0.00  0.00    +0.000 A 
ATOM     29  C   UNL     1     -22.814   3.091 -56.393  0.00  0.00    +0.000 A 
ATOM     30  C   UNL     1     -24.149   5.138 -57.745  0.00  0.00    +0.000 A 
ATOM     31  C   UNL     1     -24.164   2.950 -56.707  0.00  0.00    +0.000 A 
ATOM     32  C   UNL     1     -24.839   3.974 -57.377  0.00  0.00    +0.000 A 
ENDBRANCH  24  27
ENDBRANCH  23  24
ENDBRANCH  21  23
ENDBRANCH   5  22
TORSDOF 6
ENDMDL
MODEL 8
REMARK VINA RESULT:      -6.7     23.371     24.972
REMARK  Name = 155269226
REMARK  6 active torsions:
REMARK  status: ('A' for Active; 'I' for Inactive)
REMARK    1  A    between atoms: O_4  and  N_7
REMARK    2  A    between atoms: O_4  and  C_23
REMARK    3  A    between atoms: C_8  and  C_10
REMARK    4  A    between atoms: C_9  and  C_18
REMARK    5  A    between atoms: C_12  and  C_19
REMARK    6  A    between atoms: C_23  and  C_24
REMARK                            x       y       z     vdW  Elec       q    Type
REMARK                         _______ _______ _______ _____ _____    ______ ____
ROOT
ATOM      1  S   UNL     1     -22.813  13.089 -55.172  0.00  0.00    +0.000 S 
ATOM      2  N   UNL     1     -21.221  11.573 -56.502  0.00  0.00    +0.000 N 
ATOM      3  N   UNL     1     -23.254  10.649 -56.501  0.00  0.00    +0.000 NA
ATOM      4  C   UNL     1     -22.365   9.859 -57.227  0.00  0.00    +0.000 A 
ATOM      5  C   UNL     1     -21.077  10.421 -57.233  0.00  0.00    +0.000 A 
ATOM      6  C   UNL     1     -22.518  11.641 -56.087  0.00  0.00    +0.000 A 
ATOM      7  C   UNL     1     -20.440  12.647 -56.135  0.00  0.00    +0.000 A 
ATOM      8  C   UNL     1     -21.117  13.542 -55.404  0.00  0.00    +0.000 A 
ENDROOT
BRANCH   4   9
ATOM      9  C   UNL     1     -22.820   8.632 -57.890  0.00  0.00    +0.000 A 
ATOM     10  C   UNL     1     -23.614   6.150 -59.095  0.00  0.00    +0.000 A 
ATOM     11  C   UNL     1     -22.012   7.990 -58.842  0.00  0.00    +0.000 A 
ATOM     12  C   UNL     1     -24.045   8.040 -57.598  0.00  0.00    +0.000 A 
ATOM     13  C   UNL     1     -22.407   6.778 -59.448  0.00  0.00    +0.000 A 
ATOM     14  C   UNL     1     -24.410   6.813 -58.148  0.00  0.00    +0.000 A 
BRANCH  10  15
ATOM     15  C   UNL     1     -24.075   4.858 -59.659  0.00  0.00    +0.000 A 
ATOM     16  C   UNL     1     -24.466   4.714 -60.998  0.00  0.00    +0.000 A 
ATOM     17  C   UNL     1     -24.084   3.689 -58.864  0.00  0.00    +0.000 A 
ATOM     18  C   UNL     1     -24.821   3.461 -61.521  0.00  0.00    +0.000 A 
ATOM     19  C   UNL     1     -24.413   2.438 -59.386  0.00  0.00    +0.000 A 
ATOM     20  C   UNL     1     -24.781   2.324 -60.718  0.00  0.00    +0.000 A 
ENDBRANCH  10  15
ENDBRANCH   4   9
BRANCH   5  22
ATOM     21  N   UNL     1     -18.872   9.350 -57.403  0.00  0.00    +0.000 NA
ATOM     22  C   UNL     1     -19.856  10.046 -57.894  0.00  0.00    +0.000 C 
BRANCH  21  23
ATOM     23  O   UNL     1     -19.171   8.845 -56.131  0.00  0.00    +0.000 OA
BRANCH  23  24
ATOM     24  C   UNL     1     -18.887   7.446 -56.093  0.00  0.00    +0.000 C 
BRANCH  24  27
ATOM     25 CL   UNL     1     -23.540   7.191 -53.752  0.00  0.00    +0.000 Cl
ATOM     26 CL   UNL     1     -23.996   4.337 -55.245  0.00  0.00    +0.000 Cl
ATOM     27  C   UNL     1     -20.192   6.719 -55.886  0.00  0.00    +0.000 A 
ATOM     28  C   UNL     1     -21.182   7.223 -55.031  0.00  0.00    +0.000 A 
ATOM     29  C   UNL     1     -20.413   5.498 -56.543  0.00  0.00    +0.000 A 
ATOM     30  C   UNL     1     -22.368   6.508 -54.823  0.00  0.00    +0.000 A 
ATOM     31  C   UNL     1     -21.593   4.786 -56.340  0.00  0.00    +0.000 A 
ATOM     32  C   UNL     1     -22.572   5.284 -55.474  0.00  0.00    +0.000 A 
ENDBRANCH  24  27
ENDBRANCH  23  24
ENDBRANCH  21  23
ENDBRANCH   5  22
TORSDOF 6
ENDMDL
MODEL 9
REMARK VINA RESULT:      -6.4     21.660     25.732
REMARK  Name = 155269226
REMARK  6 active torsions:
REMARK  status: ('A' for Active; 'I' for Inactive)
REMARK    1  A    between atoms: O_4  and  N_7
REMARK    2  A    between atoms: O_4  and  C_23
REMARK    3  A    between atoms: C_8  and  C_10
REMARK    4  A    between atoms: C_9  and  C_18
REMARK    5  A    between atoms: C_12  and  C_19
REMARK    6  A    between atoms: C_23  and  C_24
REMARK                            x       y       z     vdW  Elec       q    Type
REMARK                         _______ _______ _______ _____ _____    ______ ____
ROOT
ATOM      1  S   UNL     1      -3.958   6.628 -60.877  0.00  0.00    +0.000 S 
ATOM      2  N   UNL     1      -3.162   6.929 -58.452  0.00  0.00    +0.000 N 
ATOM      3  N   UNL     1      -4.482   5.131 -58.553  0.00  0.00    +0.000 NA
ATOM      4  C   UNL     1      -4.019   5.317 -57.252  0.00  0.00    +0.000 A 
ATOM      5  C   UNL     1      -3.191   6.450 -57.167  0.00  0.00    +0.000 A 
ATOM      6  C   UNL     1      -3.952   6.120 -59.215  0.00  0.00    +0.000 A 
ATOM      7  C   UNL     1      -2.534   7.942 -59.144  0.00  0.00    +0.000 A 
ATOM      8  C   UNL     1      -2.859   7.947 -60.444  0.00  0.00    +0.000 A 
ENDROOT
BRANCH   4   9
ATOM      9  C   UNL     1      -4.380   4.379 -56.185  0.00  0.00    +0.000 A 
ATOM     10  C   UNL     1      -5.235   2.561 -54.133  0.00  0.00    +0.000 A 
ATOM     11  C   UNL     1      -4.899   4.844 -54.966  0.00  0.00    +0.000 A 
ATOM     12  C   UNL     1      -4.249   3.001 -56.331  0.00  0.00    +0.000 A 
ATOM     13  C   UNL     1      -5.306   3.953 -53.950  0.00  0.00    +0.000 A 
ATOM     14  C   UNL     1      -4.705   2.118 -55.354  0.00  0.00    +0.000 A 
BRANCH  10  15
ATOM     15  C   UNL     1      -5.681   1.565 -53.128  0.00  0.00    +0.000 A 
ATOM     16  C   UNL     1      -6.400   0.412 -53.474  0.00  0.00    +0.000 A 
ATOM     17  C   UNL     1      -5.342   1.719 -51.765  0.00  0.00    +0.000 A 
ATOM     18  C   UNL     1      -6.738  -0.550 -52.510  0.00  0.00    +0.000 A 
ATOM     19  C   UNL     1      -5.656   0.754 -50.808  0.00  0.00    +0.000 A 
ATOM     20  C   UNL     1      -6.354  -0.384 -51.182  0.00  0.00    +0.000 A 
ENDBRANCH  10  15
ENDBRANCH   4   9
BRANCH   5  22
ATOM     21  N   UNL     1      -1.152   6.821 -55.846  0.00  0.00    +0.000 NA
ATOM     22  C   UNL     1      -2.416   7.010 -56.092  0.00  0.00    +0.000 C 
BRANCH  21  23
ATOM     23  O   UNL     1      -0.527   6.080 -56.857  0.00  0.00    +0.000 OA
BRANCH  23  24
ATOM     24  C   UNL     1       0.110   4.936 -56.288  0.00  0.00    +0.000 C 
BRANCH  24  27
ATOM     25 CL   UNL     1      -2.146   2.788 -60.470  0.00  0.00    +0.000 Cl
ATOM     26 CL   UNL     1      -2.243  -0.016 -58.822  0.00  0.00    +0.000 Cl
ATOM     27  C   UNL     1      -0.450   3.712 -56.970  0.00  0.00    +0.000 A 
ATOM     28  C   UNL     1      -0.969   3.774 -58.270  0.00  0.00    +0.000 A 
ATOM     29  C   UNL     1      -0.475   2.490 -56.280  0.00  0.00    +0.000 A 
ATOM     30  C   UNL     1      -1.522   2.634 -58.866  0.00  0.00    +0.000 A 
ATOM     31  C   UNL     1      -1.023   1.353 -56.871  0.00  0.00    +0.000 A 
ATOM     32  C   UNL     1      -1.554   1.421 -58.162  0.00  0.00    +0.000 A 
ENDBRANCH  24  27
ENDBRANCH  23  24
ENDBRANCH  21  23
ENDBRANCH   5  22
TORSDOF 6
ENDMDL
MODEL 10
REMARK VINA RESULT:      -6.4     26.027     28.326
REMARK  Name = 155269226
REMARK  6 active torsions:
REMARK  status: ('A' for Active; 'I' for Inactive)
REMARK    1  A    between atoms: O_4  and  N_7
REMARK    2  A    between atoms: O_4  and  C_23
REMARK    3  A    between atoms: C_8  and  C_10
REMARK    4  A    between atoms: C_9  and  C_18
REMARK    5  A    between atoms: C_12  and  C_19
REMARK    6  A    between atoms: C_23  and  C_24
REMARK                            x       y       z     vdW  Elec       q    Type
REMARK                         _______ _______ _______ _____ _____    ______ ____
ROOT
ATOM      1  S   UNL     1      -9.395  12.541 -66.409  0.00  0.00    +0.000 S 
ATOM      2  N   UNL     1     -11.413  11.749 -65.028  0.00  0.00    +0.000 N 
ATOM      3  N   UNL     1      -9.757  12.288 -63.631  0.00  0.00    +0.000 NA
ATOM      4  C   UNL     1     -10.875  11.867 -62.914  0.00  0.00    +0.000 A 
ATOM      5  C   UNL     1     -11.927  11.515 -63.778  0.00  0.00    +0.000 A 
ATOM      6  C   UNL     1     -10.130  12.186 -64.875  0.00  0.00    +0.000 A 
ATOM      7  C   UNL     1     -11.853  11.700 -66.333  0.00  0.00    +0.000 A 
ATOM      8  C   UNL     1     -10.905  12.067 -67.204  0.00  0.00    +0.000 A 
ENDROOT
BRANCH   4   9
ATOM      9  C   UNL     1     -10.868  11.856 -61.448  0.00  0.00    +0.000 A 
ATOM     10  C   UNL     1     -10.905  11.983 -58.579  0.00  0.00    +0.000 A 
ATOM     11  C   UNL     1      -9.843  12.493 -60.731  0.00  0.00    +0.000 A 
ATOM     12  C   UNL     1     -11.873  11.244 -60.704  0.00  0.00    +0.000 A 
ATOM     13  C   UNL     1      -9.850  12.543 -59.320  0.00  0.00    +0.000 A 
ATOM     14  C   UNL     1     -11.915  11.344 -59.315  0.00  0.00    +0.000 A 
BRANCH  10  15
ATOM     15  C   UNL     1     -11.001  12.033 -57.100  0.00  0.00    +0.000 A 
ATOM     16  C   UNL     1     -10.332  12.997 -56.331  0.00  0.00    +0.000 A 
ATOM     17  C   UNL     1     -11.831  11.127 -56.402  0.00  0.00    +0.000 A 
ATOM     18  C   UNL     1     -10.507  13.067 -54.941  0.00  0.00    +0.000 A 
ATOM     19  C   UNL     1     -12.025  11.207 -55.024  0.00  0.00    +0.000 A 
ATOM     20  C   UNL     1     -11.362  12.180 -54.291  0.00  0.00    +0.000 A 
ENDBRANCH  10  15
ENDBRANCH   4   9
BRANCH   5  22
ATOM     21  N   UNL     1     -14.304  11.873 -63.269  0.00  0.00    +0.000 NA
ATOM     22  C   UNL     1     -13.286  11.109 -63.541  0.00  0.00    +0.000 C 
BRANCH  21  23
ATOM     23  O   UNL     1     -13.978  13.232 -63.360  0.00  0.00    +0.000 OA
BRANCH  23  24
ATOM     24  C   UNL     1     -14.726  13.971 -62.393  0.00  0.00    +0.000 C 
BRANCH  24  27
ATOM     25 CL   UNL     1     -13.522  14.583 -57.356  0.00  0.00    +0.000 Cl
ATOM     26 CL   UNL     1     -10.836  16.148 -58.317  0.00  0.00    +0.000 Cl
ATOM     27  C   UNL     1     -13.761  14.465 -61.345  0.00  0.00    +0.000 A 
ATOM     28  C   UNL     1     -14.023  14.307 -59.977  0.00  0.00    +0.000 A 
ATOM     29  C   UNL     1     -12.586  15.120 -61.746  0.00  0.00    +0.000 A 
ATOM     30  C   UNL     1     -13.130  14.813 -59.024  0.00  0.00    +0.000 A 
ATOM     31  C   UNL     1     -11.695  15.622 -60.799  0.00  0.00    +0.000 A 
ATOM     32  C   UNL     1     -11.966  15.477 -59.435  0.00  0.00    +0.000 A 
ENDBRANCH  24  27
ENDBRANCH  23  24
ENDBRANCH  21  23
ENDBRANCH   5  22
TORSDOF 6
ENDMDL
