MODEL 1
REMARK VINA RESULT:      -6.3      0.000      0.000
REMARK  Name = 155533563
REMARK  8 active torsions:
REMARK  status: ('A' for Active; 'I' for Inactive)
REMARK    1  A    between atoms: O_4  and  N_7
REMARK    2  A    between atoms: O_4  and  C_23
REMARK    3  A    between atoms: C_8  and  C_9
REMARK    4  A    between atoms: C_8  and  C_17
REMARK    5  A    between atoms: C_8  and  C_18
REMARK    6  A    between atoms: C_10  and  C_11
REMARK    7  A    between atoms: C_12  and  C_21
REMARK    8  A    between atoms: C_23  and  C_24
REMARK                            x       y       z     vdW  Elec       q    Type
REMARK                         _______ _______ _______ _____ _____    ______ ____
ROOT
ATOM      1  S   UNL     1     -10.550   9.629  15.923  0.00  0.00    +0.000 S 
ATOM      2  N   UNL     1     -11.015  10.093  18.405  0.00  0.00    +0.000 N 
ATOM      3  N   UNL     1     -11.891   8.112  17.872  0.00  0.00    +0.000 NA
ATOM      4  C   UNL     1     -12.154   8.417  19.205  0.00  0.00    +0.000 A 
ATOM      5  C   UNL     1     -11.606   9.655  19.556  0.00  0.00    +0.000 A 
ATOM      6  C   UNL     1     -11.211   9.139  17.453  0.00  0.00    +0.000 A 
ATOM      7  C   UNL     1     -10.371  11.234  17.973  0.00  0.00    +0.000 A 
ATOM      8  C   UNL     1     -10.051  11.159  16.668  0.00  0.00    +0.000 A 
ENDROOT
BRANCH   4  10
ATOM      9  C   UNL     1     -14.378   5.696  21.695  0.00  0.00    +0.000 A 
ATOM     10  C   UNL     1     -12.933   7.514  20.053  0.00  0.00    +0.000 A 
ATOM     11  C   UNL     1     -15.042   6.555  20.806  0.00  0.00    +0.000 A 
ATOM     12  C   UNL     1     -12.981   5.773  21.762  0.00  0.00    +0.000 A 
ATOM     13  C   UNL     1     -14.331   7.466  20.019  0.00  0.00    +0.000 A 
ATOM     14  C   UNL     1     -12.269   6.667  20.949  0.00  0.00    +0.000 A 
BRANCH   9  15
ATOM     15  C   UNL     1     -15.207   4.826  22.626  0.00  0.00    +0.000 C 
ATOM     16  C   UNL     1     -14.523   4.429  23.938  0.00  0.00    +0.000 C 
ATOM     17  C   UNL     1     -16.538   5.527  22.909  0.00  0.00    +0.000 C 
ENDBRANCH   9  15
ENDBRANCH   4  10
BRANCH   5  19
ATOM     18  N   UNL     1     -12.796  10.907  21.142  0.00  0.00    +0.000 NA
ATOM     19  C   UNL     1     -11.664  10.429  20.755  0.00  0.00    +0.000 C 
BRANCH  18  20
ATOM     20  O   UNL     1     -12.656  11.631  22.327  0.00  0.00    +0.000 OA
BRANCH  20  21
ATOM     21  C   UNL     1     -12.510  10.670  23.374  0.00  0.00    +0.000 C 
BRANCH  21  24
ATOM     22 CL   UNL     1     -13.092  14.716  26.612  0.00  0.00    +0.000 Cl
ATOM     23 CL   UNL     1     -11.748  12.869  28.931  0.00  0.00    +0.000 Cl
ATOM     24  C   UNL     1     -12.203  11.320  24.698  0.00  0.00    +0.000 A 
ATOM     25  C   UNL     1     -12.651  12.612  25.012  0.00  0.00    +0.000 A 
ATOM     26  C   UNL     1     -11.559  10.564  25.686  0.00  0.00    +0.000 A 
ATOM     27  C   UNL     1     -12.493  13.124  26.303  0.00  0.00    +0.000 A 
ATOM     28  C   UNL     1     -11.407  11.071  26.976  0.00  0.00    +0.000 A 
ATOM     29  C   UNL     1     -11.891  12.342  27.292  0.00  0.00    +0.000 A 
ENDBRANCH  21  24
ENDBRANCH  20  21
ENDBRANCH  18  20
ENDBRANCH   5  19
TORSDOF 6
ENDMDL
MODEL 2
REMARK VINA RESULT:      -5.9      4.913      7.636
REMARK  Name = 155533563
REMARK  8 active torsions:
REMARK  status: ('A' for Active; 'I' for Inactive)
REMARK    1  A    between atoms: O_4  and  N_7
REMARK    2  A    between atoms: O_4  and  C_23
REMARK    3  A    between atoms: C_8  and  C_9
REMARK    4  A    between atoms: C_8  and  C_17
REMARK    5  A    between atoms: C_8  and  C_18
REMARK    6  A    between atoms: C_10  and  C_11
REMARK    7  A    between atoms: C_12  and  C_21
REMARK    8  A    between atoms: C_23  and  C_24
REMARK                            x       y       z     vdW  Elec       q    Type
REMARK                         _______ _______ _______ _____ _____    ______ ____
ROOT
ATOM      1  S   UNL     1     -19.327   4.301  20.062  0.00  0.00    +0.000 S 
ATOM      2  N   UNL     1     -17.128   4.868  21.260  0.00  0.00    +0.000 N 
ATOM      3  N   UNL     1     -18.423   3.704  22.655  0.00  0.00    +0.000 NA
ATOM      4  C   UNL     1     -17.232   4.062  23.281  0.00  0.00    +0.000 A 
ATOM      5  C   UNL     1     -16.406   4.788  22.417  0.00  0.00    +0.000 A 
ATOM      6  C   UNL     1     -18.301   4.205  21.461  0.00  0.00    +0.000 A 
ATOM      7  C   UNL     1     -17.001   5.483  20.032  0.00  0.00    +0.000 A 
ATOM      8  C   UNL     1     -18.088   5.286  19.264  0.00  0.00    +0.000 A 
ENDROOT
BRANCH   4  10
ATOM      9  C   UNL     1     -16.416   3.098  27.399  0.00  0.00    +0.000 A 
ATOM     10  C   UNL     1     -16.968   3.706  24.676  0.00  0.00    +0.000 A 
ATOM     11  C   UNL     1     -16.359   2.105  26.409  0.00  0.00    +0.000 A 
ATOM     12  C   UNL     1     -16.769   4.396  27.008  0.00  0.00    +0.000 A 
ATOM     13  C   UNL     1     -16.657   2.401  25.075  0.00  0.00    +0.000 A 
ATOM     14  C   UNL     1     -17.037   4.695  25.664  0.00  0.00    +0.000 A 
BRANCH   9  15
ATOM     15  C   UNL     1     -16.219   2.692  28.851  0.00  0.00    +0.000 C 
ATOM     16  C   UNL     1     -15.012   3.324  29.552  0.00  0.00    +0.000 C 
ATOM     17  C   UNL     1     -17.504   2.990  29.629  0.00  0.00    +0.000 C 
ENDBRANCH   9  15
ENDBRANCH   4  10
BRANCH   5  19
ATOM     18  N   UNL     1     -14.103   4.956  22.009  0.00  0.00    +0.000 NA
ATOM     19  C   UNL     1     -15.144   5.430  22.603  0.00  0.00    +0.000 C 
BRANCH  18  20
ATOM     20  O   UNL     1     -12.969   5.711  22.308  0.00  0.00    +0.000 OA
BRANCH  20  21
ATOM     21  C   UNL     1     -12.303   5.952  21.067  0.00  0.00    +0.000 C 
BRANCH  21  24
ATOM     22 CL   UNL     1      -9.991   9.716  18.297  0.00  0.00    +0.000 Cl
ATOM     23 CL   UNL     1     -11.935  11.835  19.822  0.00  0.00    +0.000 Cl
ATOM     24  C   UNL     1     -12.062   7.419  20.831  0.00  0.00    +0.000 A 
ATOM     25  C   UNL     1     -11.175   7.877  19.845  0.00  0.00    +0.000 A 
ATOM     26  C   UNL     1     -12.839   8.351  21.532  0.00  0.00    +0.000 A 
ATOM     27  C   UNL     1     -11.094   9.238  19.539  0.00  0.00    +0.000 A 
ATOM     28  C   UNL     1     -12.766   9.708  21.222  0.00  0.00    +0.000 A 
ATOM     29  C   UNL     1     -11.910  10.152  20.212  0.00  0.00    +0.000 A 
ENDBRANCH  21  24
ENDBRANCH  20  21
ENDBRANCH  18  20
ENDBRANCH   5  19
TORSDOF 6
ENDMDL
MODEL 3
REMARK VINA RESULT:      -5.9     42.312     45.014
REMARK  Name = 155533563
REMARK  8 active torsions:
REMARK  status: ('A' for Active; 'I' for Inactive)
REMARK    1  A    between atoms: O_4  and  N_7
REMARK    2  A    between atoms: O_4  and  C_23
REMARK    3  A    between atoms: C_8  and  C_9
REMARK    4  A    between atoms: C_8  and  C_17
REMARK    5  A    between atoms: C_8  and  C_18
REMARK    6  A    between atoms: C_10  and  C_11
REMARK    7  A    between atoms: C_12  and  C_21
REMARK    8  A    between atoms: C_23  and  C_24
REMARK                            x       y       z     vdW  Elec       q    Type
REMARK                         _______ _______ _______ _____ _____    ______ ____
ROOT
ATOM      1  S   UNL     1      19.536 -15.898  -4.520  0.00  0.00    +0.000 S 
ATOM      2  N   UNL     1      17.281 -16.450  -3.424  0.00  0.00    +0.000 N 
ATOM      3  N   UNL     1      18.386 -15.028  -2.107  0.00  0.00    +0.000 NA
ATOM      4  C   UNL     1      17.170 -15.380  -1.529  0.00  0.00    +0.000 A 
ATOM      5  C   UNL     1      16.462 -16.268  -2.345  0.00  0.00    +0.000 A 
ATOM      6  C   UNL     1      18.394 -15.688  -3.228  0.00  0.00    +0.000 A 
ATOM      7  C   UNL     1      17.293 -17.229  -4.563  0.00  0.00    +0.000 A 
ATOM      8  C   UNL     1      18.427 -17.061  -5.267  0.00  0.00    +0.000 A 
ENDROOT
BRANCH   4  10
ATOM      9  C   UNL     1      16.001 -13.945   2.360  0.00  0.00    +0.000 A 
ATOM     10  C   UNL     1      16.771 -14.863  -0.220  0.00  0.00    +0.000 A 
ATOM     11  C   UNL     1      15.457 -13.379   1.197  0.00  0.00    +0.000 A 
ATOM     12  C   UNL     1      16.949 -14.965   2.212  0.00  0.00    +0.000 A 
ATOM     13  C   UNL     1      15.856 -13.814  -0.070  0.00  0.00    +0.000 A 
ATOM     14  C   UNL     1      17.324 -15.420   0.939  0.00  0.00    +0.000 A 
BRANCH   9  15
ATOM     15  C   UNL     1      15.636 -13.340   3.706  0.00  0.00    +0.000 C 
ATOM     16  C   UNL     1      15.998 -14.189   4.928  0.00  0.00    +0.000 C 
ATOM     17  C   UNL     1      16.269 -11.950   3.815  0.00  0.00    +0.000 C 
ENDBRANCH   9  15
ENDBRANCH   4  10
BRANCH   5  19
ATOM     18  N   UNL     1      15.243 -18.160  -1.688  0.00  0.00    +0.000 NA
ATOM     19  C   UNL     1      15.227 -16.965  -2.169  0.00  0.00    +0.000 C 
BRANCH  18  20
ATOM     20  O   UNL     1      13.950 -18.676  -1.589  0.00  0.00    +0.000 OA
BRANCH  20  21
ATOM     21  C   UNL     1      13.422 -18.706  -2.916  0.00  0.00    +0.000 C 
BRANCH  21  24
ATOM     22 CL   UNL     1       9.160 -20.620  -5.230  0.00  0.00    +0.000 Cl
ATOM     23 CL   UNL     1       7.532 -19.903  -2.504  0.00  0.00    +0.000 Cl
ATOM     24  C   UNL     1      11.927 -18.884  -2.926  0.00  0.00    +0.000 A 
ATOM     25  C   UNL     1      11.262 -19.520  -3.983  0.00  0.00    +0.000 A 
ATOM     26  C   UNL     1      11.198 -18.513  -1.788  0.00  0.00    +0.000 A 
ATOM     27  C   UNL     1       9.899 -19.816  -3.890  0.00  0.00    +0.000 A 
ATOM     28  C   UNL     1       9.841 -18.814  -1.690  0.00  0.00    +0.000 A 
ATOM     29  C   UNL     1       9.193 -19.484  -2.730  0.00  0.00    +0.000 A 
ENDBRANCH  21  24
ENDBRANCH  20  21
ENDBRANCH  18  20
ENDBRANCH   5  19
TORSDOF 6
ENDMDL
MODEL 4
REMARK VINA RESULT:      -5.7     23.460     26.164
REMARK  Name = 155533563
REMARK  8 active torsions:
REMARK  status: ('A' for Active; 'I' for Inactive)
REMARK    1  A    between atoms: O_4  and  N_7
REMARK    2  A    between atoms: O_4  and  C_23
REMARK    3  A    between atoms: C_8  and  C_9
REMARK    4  A    between atoms: C_8  and  C_17
REMARK    5  A    between atoms: C_8  and  C_18
REMARK    6  A    between atoms: C_10  and  C_11
REMARK    7  A    between atoms: C_12  and  C_21
REMARK    8  A    between atoms: C_23  and  C_24
REMARK                            x       y       z     vdW  Elec       q    Type
REMARK                         _______ _______ _______ _____ _____    ______ ____
ROOT
ATOM      1  S   UNL     1      -6.608 -10.973  41.666  0.00  0.00    +0.000 S 
ATOM      2  N   UNL     1      -5.581  -8.827  40.702  0.00  0.00    +0.000 N 
ATOM      3  N   UNL     1      -7.656  -8.380  41.389  0.00  0.00    +0.000 NA
ATOM      4  C   UNL     1      -7.077  -7.247  40.826  0.00  0.00    +0.000 A 
ATOM      5  C   UNL     1      -5.773  -7.509  40.394  0.00  0.00    +0.000 A 
ATOM      6  C   UNL     1      -6.723  -9.281  41.291  0.00  0.00    +0.000 A 
ATOM      7  C   UNL     1      -4.601  -9.777  40.505  0.00  0.00    +0.000 A 
ATOM      8  C   UNL     1      -4.983 -10.985  40.959  0.00  0.00    +0.000 A 
ENDROOT
BRANCH   4  10
ATOM      9  C   UNL     1      -9.256  -3.540  40.594  0.00  0.00    +0.000 A 
ATOM     10  C   UNL     1      -7.815  -5.989  40.715  0.00  0.00    +0.000 A 
ATOM     11  C   UNL     1      -9.429  -4.531  39.617  0.00  0.00    +0.000 A 
ATOM     12  C   UNL     1      -8.338  -3.785  41.623  0.00  0.00    +0.000 A 
ATOM     13  C   UNL     1      -8.701  -5.724  39.665  0.00  0.00    +0.000 A 
ATOM     14  C   UNL     1      -7.631  -4.995  41.684  0.00  0.00    +0.000 A 
BRANCH   9  15
ATOM     15  C   UNL     1      -9.969  -2.208  40.417  0.00  0.00    +0.000 C 
ATOM     16  C   UNL     1      -9.856  -1.582  39.024  0.00  0.00    +0.000 C 
ATOM     17  C   UNL     1     -11.440  -2.376  40.810  0.00  0.00    +0.000 C 
ENDBRANCH   9  15
ENDBRANCH   4  10
BRANCH   5  19
ATOM     18  N   UNL     1      -3.907  -6.089  40.373  0.00  0.00    +0.000 NA
ATOM     19  C   UNL     1      -4.809  -6.716  39.699  0.00  0.00    +0.000 C 
BRANCH  18  20
ATOM     20  O   UNL     1      -3.060  -5.371  39.527  0.00  0.00    +0.000 OA
BRANCH  20  21
ATOM     21  C   UNL     1      -1.745  -5.888  39.737  0.00  0.00    +0.000 C 
BRANCH  21  24
ATOM     22 CL   UNL     1       2.633  -5.132  42.466  0.00  0.00    +0.000 Cl
ATOM     23 CL   UNL     1       1.538  -2.138  43.122  0.00  0.00    +0.000 Cl
ATOM     24  C   UNL     1      -0.958  -5.052  40.711  0.00  0.00    +0.000 A 
ATOM     25  C   UNL     1       0.305  -5.446  41.178  0.00  0.00    +0.000 A 
ATOM     26  C   UNL     1      -1.449  -3.788  41.064  0.00  0.00    +0.000 A 
ATOM     27  C   UNL     1       1.080  -4.577  41.950  0.00  0.00    +0.000 A 
ATOM     28  C   UNL     1      -0.674  -2.917  41.827  0.00  0.00    +0.000 A 
ATOM     29  C   UNL     1       0.599  -3.300  42.255  0.00  0.00    +0.000 A 
ENDBRANCH  21  24
ENDBRANCH  20  21
ENDBRANCH  18  20
ENDBRANCH   5  19
TORSDOF 6
ENDMDL
MODEL 5
REMARK VINA RESULT:      -5.7      1.654      2.326
REMARK  Name = 155533563
REMARK  8 active torsions:
REMARK  status: ('A' for Active; 'I' for Inactive)
REMARK    1  A    between atoms: O_4  and  N_7
REMARK    2  A    between atoms: O_4  and  C_23
REMARK    3  A    between atoms: C_8  and  C_9
REMARK    4  A    between atoms: C_8  and  C_17
REMARK    5  A    between atoms: C_8  and  C_18
REMARK    6  A    between atoms: C_10  and  C_11
REMARK    7  A    between atoms: C_12  and  C_21
REMARK    8  A    between atoms: C_23  and  C_24
REMARK                            x       y       z     vdW  Elec       q    Type
REMARK                         _______ _______ _______ _____ _____    ______ ____
ROOT
ATOM      1  S   UNL     1     -12.369  10.532  17.847  0.00  0.00    +0.000 S 
ATOM      2  N   UNL     1     -12.559  10.304  20.397  0.00  0.00    +0.000 N 
ATOM      3  N   UNL     1     -13.302   8.423  19.454  0.00  0.00    +0.000 NA
ATOM      4  C   UNL     1     -13.423   8.353  20.839  0.00  0.00    +0.000 A 
ATOM      5  C   UNL     1     -12.956   9.523  21.446  0.00  0.00    +0.000 A 
ATOM      6  C   UNL     1     -12.782   9.598  19.253  0.00  0.00    +0.000 A 
ATOM      7  C   UNL     1     -12.087  11.587  20.216  0.00  0.00    +0.000 A 
ATOM      8  C   UNL     1     -11.930  11.878  18.912  0.00  0.00    +0.000 A 
ENDROOT
BRANCH   4  10
ATOM      9  C   UNL     1     -15.166   4.952  22.825  0.00  0.00    +0.000 A 
ATOM     10  C   UNL     1     -13.998   7.178  21.495  0.00  0.00    +0.000 A 
ATOM     11  C   UNL     1     -13.837   4.913  22.378  0.00  0.00    +0.000 A 
ATOM     12  C   UNL     1     -15.907   6.115  22.582  0.00  0.00    +0.000 A 
ATOM     13  C   UNL     1     -13.273   5.998  21.701  0.00  0.00    +0.000 A 
ATOM     14  C   UNL     1     -15.328   7.214  21.929  0.00  0.00    +0.000 A 
BRANCH   9  15
ATOM     15  C   UNL     1     -15.770   3.694  23.430  0.00  0.00    +0.000 C 
ATOM     16  C   UNL     1     -15.600   3.547  24.945  0.00  0.00    +0.000 C 
ATOM     17  C   UNL     1     -17.251   3.621  23.049  0.00  0.00    +0.000 C 
ENDBRANCH   9  15
ENDBRANCH   4  10
BRANCH   5  19
ATOM     18  N   UNL     1     -14.034  10.341  23.361  0.00  0.00    +0.000 NA
ATOM     19  C   UNL     1     -12.935   9.962  22.805  0.00  0.00    +0.000 C 
BRANCH  18  20
ATOM     20  O   UNL     1     -13.818  10.733  24.683  0.00  0.00    +0.000 OA
BRANCH  20  21
ATOM     21  C   UNL     1     -12.446  11.122  24.771  0.00  0.00    +0.000 C 
BRANCH  21  24
ATOM     22 CL   UNL     1     -11.920  13.901  29.151  0.00  0.00    +0.000 Cl
ATOM     23 CL   UNL     1     -11.111  11.125  30.646  0.00  0.00    +0.000 Cl
ATOM     24  C   UNL     1     -11.974  11.206  26.198  0.00  0.00    +0.000 A 
ATOM     25  C   UNL     1     -12.061  12.393  26.940  0.00  0.00    +0.000 A 
ATOM     26  C   UNL     1     -11.552  10.033  26.838  0.00  0.00    +0.000 A 
ATOM     27  C   UNL     1     -11.768  12.400  28.307  0.00  0.00    +0.000 A 
ATOM     28  C   UNL     1     -11.267  10.036  28.203  0.00  0.00    +0.000 A 
ATOM     29  C   UNL     1     -11.394  11.213  28.944  0.00  0.00    +0.000 A 
ENDBRANCH  21  24
ENDBRANCH  20  21
ENDBRANCH  18  20
ENDBRANCH   5  19
TORSDOF 6
ENDMDL
MODEL 6
REMARK VINA RESULT:      -5.6     25.388     26.884
REMARK  Name = 155533563
REMARK  8 active torsions:
REMARK  status: ('A' for Active; 'I' for Inactive)
REMARK    1  A    between atoms: O_4  and  N_7
REMARK    2  A    between atoms: O_4  and  C_23
REMARK    3  A    between atoms: C_8  and  C_9
REMARK    4  A    between atoms: C_8  and  C_17
REMARK    5  A    between atoms: C_8  and  C_18
REMARK    6  A    between atoms: C_10  and  C_11
REMARK    7  A    between atoms: C_12  and  C_21
REMARK    8  A    between atoms: C_23  and  C_24
REMARK                            x       y       z     vdW  Elec       q    Type
REMARK                         _______ _______ _______ _____ _____    ______ ____
ROOT
ATOM      1  S   UNL     1     -17.579 -13.093  32.411  0.00  0.00    +0.000 S 
ATOM      2  N   UNL     1     -15.168 -13.972  32.340  0.00  0.00    +0.000 N 
ATOM      3  N   UNL     1     -15.333 -12.471  33.983  0.00  0.00    +0.000 NA
ATOM      4  C   UNL     1     -14.028 -12.947  33.888  0.00  0.00    +0.000 A 
ATOM      5  C   UNL     1     -13.909 -13.893  32.865  0.00  0.00    +0.000 A 
ATOM      6  C   UNL     1     -15.961 -13.117  33.044  0.00  0.00    +0.000 A 
ATOM      7  C   UNL     1     -15.782 -14.611  31.283  0.00  0.00    +0.000 A 
ATOM      8  C   UNL     1     -17.075 -14.256  31.172  0.00  0.00    +0.000 A 
ENDROOT
BRANCH   4  10
ATOM      9  C   UNL     1     -10.897 -11.569  36.504  0.00  0.00    +0.000 A 
ATOM     10  C   UNL     1     -12.970 -12.449  34.768  0.00  0.00    +0.000 A 
ATOM     11  C   UNL     1     -12.055 -10.801  36.311  0.00  0.00    +0.000 A 
ATOM     12  C   UNL     1     -10.785 -12.776  35.803  0.00  0.00    +0.000 A 
ATOM     13  C   UNL     1     -13.061 -11.223  35.437  0.00  0.00    +0.000 A 
ATOM     14  C   UNL     1     -11.810 -13.210  34.950  0.00  0.00    +0.000 A 
BRANCH   9  15
ATOM     15  C   UNL     1      -9.775 -10.997  37.357  0.00  0.00    +0.000 C 
ATOM     16  C   UNL     1      -8.371 -11.111  36.757  0.00  0.00    +0.000 C 
ATOM     17  C   UNL     1     -10.097  -9.538  37.689  0.00  0.00    +0.000 C 
ENDBRANCH   9  15
ENDBRANCH   4  10
BRANCH   5  19
ATOM     18  N   UNL     1     -12.549 -15.799  32.743  0.00  0.00    +0.000 NA
ATOM     19  C   UNL     1     -12.789 -14.602  32.333  0.00  0.00    +0.000 C 
BRANCH  18  20
ATOM     20  O   UNL     1     -11.421 -16.328  32.114  0.00  0.00    +0.000 OA
BRANCH  20  21
ATOM     21  C   UNL     1     -10.718 -15.221  31.546  0.00  0.00    +0.000 C 
BRANCH  21  24
ATOM     22 CL   UNL     1      -6.928 -13.740  34.806  0.00  0.00    +0.000 Cl
ATOM     23 CL   UNL     1      -4.984 -15.859  33.281  0.00  0.00    +0.000 Cl
ATOM     24  C   UNL     1      -9.259 -15.227  31.918  0.00  0.00    +0.000 A 
ATOM     25  C   UNL     1      -8.769 -14.502  33.015  0.00  0.00    +0.000 A 
ATOM     26  C   UNL     1      -8.390 -16.080  31.224  0.00  0.00    +0.000 A 
ATOM     27  C   UNL     1      -7.445 -14.655  33.434  0.00  0.00    +0.000 A 
ATOM     28  C   UNL     1      -7.072 -16.241  31.646  0.00  0.00    +0.000 A 
ATOM     29  C   UNL     1      -6.602 -15.545  32.762  0.00  0.00    +0.000 A 
ENDBRANCH  21  24
ENDBRANCH  20  21
ENDBRANCH  18  20
ENDBRANCH   5  19
TORSDOF 6
ENDMDL
MODEL 7
REMARK VINA RESULT:      -5.6     17.216     19.383
REMARK  Name = 155533563
REMARK  8 active torsions:
REMARK  status: ('A' for Active; 'I' for Inactive)
REMARK    1  A    between atoms: O_4  and  N_7
REMARK    2  A    between atoms: O_4  and  C_23
REMARK    3  A    between atoms: C_8  and  C_9
REMARK    4  A    between atoms: C_8  and  C_17
REMARK    5  A    between atoms: C_8  and  C_18
REMARK    6  A    between atoms: C_10  and  C_11
REMARK    7  A    between atoms: C_12  and  C_21
REMARK    8  A    between atoms: C_23  and  C_24
REMARK                            x       y       z     vdW  Elec       q    Type
REMARK                         _______ _______ _______ _____ _____    ______ ____
ROOT
ATOM      1  S   UNL     1       8.720  18.078  15.914  0.00  0.00    +0.000 S 
ATOM      2  N   UNL     1       8.237  16.911  18.149  0.00  0.00    +0.000 N 
ATOM      3  N   UNL     1       6.322  17.118  17.023  0.00  0.00    +0.000 NA
ATOM      4  C   UNL     1       6.097  16.520  18.260  0.00  0.00    +0.000 A 
ATOM      5  C   UNL     1       7.289  16.379  18.977  0.00  0.00    +0.000 A 
ATOM      6  C   UNL     1       7.607  17.322  17.013  0.00  0.00    +0.000 A 
ATOM      7  C   UNL     1       9.588  17.189  18.208  0.00  0.00    +0.000 A 
ATOM      8  C   UNL     1      10.014  17.815  17.096  0.00  0.00    +0.000 A 
ENDROOT
BRANCH   4  10
ATOM      9  C   UNL     1       2.105  15.406  19.432  0.00  0.00    +0.000 A 
ATOM     10  C   UNL     1       4.750  16.142  18.689  0.00  0.00    +0.000 A 
ATOM     11  C   UNL     1       2.873  16.261  20.237  0.00  0.00    +0.000 A 
ATOM     12  C   UNL     1       2.687  14.911  18.258  0.00  0.00    +0.000 A 
ATOM     13  C   UNL     1       4.182  16.600  19.883  0.00  0.00    +0.000 A 
ATOM     14  C   UNL     1       3.990  15.279  17.891  0.00  0.00    +0.000 A 
BRANCH   9  15
ATOM     15  C   UNL     1       0.741  14.960  19.935  0.00  0.00    +0.000 C 
ATOM     16  C   UNL     1       0.680  14.575  21.416  0.00  0.00    +0.000 C 
ATOM     17  C   UNL     1      -0.285  16.053  19.624  0.00  0.00    +0.000 C 
ENDBRANCH   9  15
ENDBRANCH   4  10
BRANCH   5  19
ATOM     18  N   UNL     1       7.774  16.757  21.240  0.00  0.00    +0.000 NA
ATOM     19  C   UNL     1       7.572  15.905  20.294  0.00  0.00    +0.000 C 
BRANCH  18  20
ATOM     20  O   UNL     1       8.033  16.111  22.449  0.00  0.00    +0.000 OA
BRANCH  20  21
ATOM     21  C   UNL     1       7.626  17.009  23.484  0.00  0.00    +0.000 C 
BRANCH  21  24
ATOM     22 CL   UNL     1       3.269  19.039  25.504  0.00  0.00    +0.000 Cl
ATOM     23 CL   UNL     1       1.660  16.541  24.177  0.00  0.00    +0.000 Cl
ATOM     24  C   UNL     1       6.165  16.859  23.818  0.00  0.00    +0.000 A 
ATOM     25  C   UNL     1       5.455  17.853  24.508  0.00  0.00    +0.000 A 
ATOM     26  C   UNL     1       5.470  15.751  23.316  0.00  0.00    +0.000 A 
ATOM     27  C   UNL     1       4.069  17.761  24.660  0.00  0.00    +0.000 A 
ATOM     28  C   UNL     1       4.086  15.661  23.459  0.00  0.00    +0.000 A 
ATOM     29  C   UNL     1       3.381  16.674  24.113  0.00  0.00    +0.000 A 
ENDBRANCH  21  24
ENDBRANCH  20  21
ENDBRANCH  18  20
ENDBRANCH   5  19
TORSDOF 6
ENDMDL
MODEL 8
REMARK VINA RESULT:      -5.6     24.267     26.848
REMARK  Name = 155533563
REMARK  8 active torsions:
REMARK  status: ('A' for Active; 'I' for Inactive)
REMARK    1  A    between atoms: O_4  and  N_7
REMARK    2  A    between atoms: O_4  and  C_23
REMARK    3  A    between atoms: C_8  and  C_9
REMARK    4  A    between atoms: C_8  and  C_17
REMARK    5  A    between atoms: C_8  and  C_18
REMARK    6  A    between atoms: C_10  and  C_11
REMARK    7  A    between atoms: C_12  and  C_21
REMARK    8  A    between atoms: C_23  and  C_24
REMARK                            x       y       z     vdW  Elec       q    Type
REMARK                         _______ _______ _______ _____ _____    ______ ____
ROOT
ATOM      1  S   UNL     1      -9.922  -6.440   7.884  0.00  0.00    +0.000 S 
ATOM      2  N   UNL     1      -8.281  -8.145   6.887  0.00  0.00    +0.000 N 
ATOM      3  N   UNL     1      -7.789  -7.857   9.044  0.00  0.00    +0.000 NA
ATOM      4  C   UNL     1      -6.897  -8.750   8.458  0.00  0.00    +0.000 A 
ATOM      5  C   UNL     1      -7.196  -8.946   7.105  0.00  0.00    +0.000 A 
ATOM      6  C   UNL     1      -8.587  -7.537   8.067  0.00  0.00    +0.000 A 
ATOM      7  C   UNL     1      -9.055  -7.764   5.810  0.00  0.00    +0.000 A 
ATOM      8  C   UNL     1      -9.981  -6.855   6.162  0.00  0.00    +0.000 A 
ENDROOT
BRANCH   4  10
ATOM      9  C   UNL     1      -3.729 -10.518  10.777  0.00  0.00    +0.000 A 
ATOM     10  C   UNL     1      -5.800  -9.344   9.222  0.00  0.00    +0.000 A 
ATOM     11  C   UNL     1      -3.480  -9.402   9.964  0.00  0.00    +0.000 A 
ATOM     12  C   UNL     1      -5.025 -11.048  10.788  0.00  0.00    +0.000 A 
ATOM     13  C   UNL     1      -4.494  -8.843   9.181  0.00  0.00    +0.000 A 
ATOM     14  C   UNL     1      -6.047 -10.465  10.023  0.00  0.00    +0.000 A 
BRANCH   9  15
ATOM     15  C   UNL     1      -2.560 -11.170  11.500  0.00  0.00    +0.000 C 
ATOM     16  C   UNL     1      -2.023 -10.399  12.709  0.00  0.00    +0.000 C 
ATOM     17  C   UNL     1      -2.956 -12.592  11.905  0.00  0.00    +0.000 C 
ENDBRANCH   9  15
ENDBRANCH   4  10
BRANCH   5  19
ATOM     18  N   UNL     1      -7.055 -10.813   5.694  0.00  0.00    +0.000 NA
ATOM     19  C   UNL     1      -6.548  -9.690   6.073  0.00  0.00    +0.000 C 
BRANCH  18  20
ATOM     20  O   UNL     1      -6.288 -11.393   4.682  0.00  0.00    +0.000 OA
BRANCH  20  21
ATOM     21  C   UNL     1      -6.133 -12.770   5.029  0.00  0.00    +0.000 C 
BRANCH  21  24
ATOM     22 CL   UNL     1      -2.642 -16.117   6.978  0.00  0.00    +0.000 Cl
ATOM     23 CL   UNL     1      -0.344 -14.382   5.459  0.00  0.00    +0.000 Cl
ATOM     24  C   UNL     1      -4.695 -13.126   5.297  0.00  0.00    +0.000 A 
ATOM     25  C   UNL     1      -4.335 -14.280   6.009  0.00  0.00    +0.000 A 
ATOM     26  C   UNL     1      -3.688 -12.347   4.711  0.00  0.00    +0.000 A 
ATOM     27  C   UNL     1      -2.996 -14.671   6.100  0.00  0.00    +0.000 A 
ATOM     28  C   UNL     1      -2.353 -12.739   4.794  0.00  0.00    +0.000 A 
ATOM     29  C   UNL     1      -2.006 -13.911   5.471  0.00  0.00    +0.000 A 
ENDBRANCH  21  24
ENDBRANCH  20  21
ENDBRANCH  18  20
ENDBRANCH   5  19
TORSDOF 6
ENDMDL
MODEL 9
REMARK VINA RESULT:      -5.5     38.104     40.602
REMARK  Name = 155533563
REMARK  8 active torsions:
REMARK  status: ('A' for Active; 'I' for Inactive)
REMARK    1  A    between atoms: O_4  and  N_7
REMARK    2  A    between atoms: O_4  and  C_23
REMARK    3  A    between atoms: C_8  and  C_9
REMARK    4  A    between atoms: C_8  and  C_17
REMARK    5  A    between atoms: C_8  and  C_18
REMARK    6  A    between atoms: C_10  and  C_11
REMARK    7  A    between atoms: C_12  and  C_21
REMARK    8  A    between atoms: C_23  and  C_24
REMARK                            x       y       z     vdW  Elec       q    Type
REMARK                         _______ _______ _______ _____ _____    ______ ____
ROOT
ATOM      1  S   UNL     1       2.197 -15.928  -1.164  0.00  0.00    +0.000 S 
ATOM      2  N   UNL     1       4.369 -17.115  -0.482  0.00  0.00    +0.000 N 
ATOM      3  N   UNL     1       2.988 -17.089   1.271  0.00  0.00    +0.000 NA
ATOM      4  C   UNL     1       4.194 -17.695   1.611  0.00  0.00    +0.000 A 
ATOM      5  C   UNL     1       5.070 -17.724   0.521  0.00  0.00    +0.000 A 
ATOM      6  C   UNL     1       3.149 -16.771   0.019  0.00  0.00    +0.000 A 
ATOM      7  C   UNL     1       4.605 -16.718  -1.782  0.00  0.00    +0.000 A 
ATOM      8  C   UNL     1       3.549 -16.065  -2.301  0.00  0.00    +0.000 A 
ENDROOT
BRANCH   4  10
ATOM      9  C   UNL     1       4.979 -19.071   5.616  0.00  0.00    +0.000 A 
ATOM     10  C   UNL     1       4.443 -18.188   2.966  0.00  0.00    +0.000 A 
ATOM     11  C   UNL     1       4.850 -19.985   4.559  0.00  0.00    +0.000 A 
ATOM     12  C   UNL     1       4.819 -17.710   5.329  0.00  0.00    +0.000 A 
ATOM     13  C   UNL     1       4.561 -19.551   3.263  0.00  0.00    +0.000 A 
ATOM     14  C   UNL     1       4.559 -17.275   4.021  0.00  0.00    +0.000 A 
BRANCH   9  15
ATOM     15  C   UNL     1       5.156 -19.607   7.028  0.00  0.00    +0.000 C 
ATOM     16  C   UNL     1       6.501 -19.291   7.687  0.00  0.00    +0.000 C 
ATOM     17  C   UNL     1       4.002 -19.103   7.899  0.00  0.00    +0.000 C 
ENDBRANCH   9  15
ENDBRANCH   4  10
BRANCH   5  19
ATOM     18  N   UNL     1       6.659 -19.382   0.048  0.00  0.00    +0.000 NA
ATOM     19  C   UNL     1       6.423 -18.160   0.382  0.00  0.00    +0.000 C 
BRANCH  18  20
ATOM     20  O   UNL     1       8.031 -19.621  -0.038  0.00  0.00    +0.000 OA
BRANCH  20  21
ATOM     21  C   UNL     1       8.603 -18.477  -0.676  0.00  0.00    +0.000 C 
BRANCH  21  24
ATOM     22 CL   UNL     1      13.482 -18.420  -2.512  0.00  0.00    +0.000 Cl
ATOM     23 CL   UNL     1      12.529 -20.624  -4.709  0.00  0.00    +0.000 Cl
ATOM     24  C   UNL     1       9.582 -18.862  -1.753  0.00  0.00    +0.000 A 
ATOM     25  C   UNL     1      10.924 -18.454  -1.717  0.00  0.00    +0.000 A 
ATOM     26  C   UNL     1       9.169 -19.754  -2.751  0.00  0.00    +0.000 A 
ATOM     27  C   UNL     1      11.845 -18.958  -2.639  0.00  0.00    +0.000 A 
ATOM     28  C   UNL     1      10.088 -20.265  -3.666  0.00  0.00    +0.000 A 
ATOM     29  C   UNL     1      11.430 -19.885  -3.600  0.00  0.00    +0.000 A 
ENDBRANCH  21  24
ENDBRANCH  20  21
ENDBRANCH  18  20
ENDBRANCH   5  19
TORSDOF 6
ENDMDL
MODEL 10
REMARK VINA RESULT:      -5.4     16.885     19.020
REMARK  Name = 155533563
REMARK  8 active torsions:
REMARK  status: ('A' for Active; 'I' for Inactive)
REMARK    1  A    between atoms: O_4  and  N_7
REMARK    2  A    between atoms: O_4  and  C_23
REMARK    3  A    between atoms: C_8  and  C_9
REMARK    4  A    between atoms: C_8  and  C_17
REMARK    5  A    between atoms: C_8  and  C_18
REMARK    6  A    between atoms: C_10  and  C_11
REMARK    7  A    between atoms: C_12  and  C_21
REMARK    8  A    between atoms: C_23  and  C_24
REMARK                            x       y       z     vdW  Elec       q    Type
REMARK                         _______ _______ _______ _____ _____    ______ ____
ROOT
ATOM      1  S   UNL     1       5.806  21.770  17.495  0.00  0.00    +0.000 S 
ATOM      2  N   UNL     1       6.323  19.543  18.662  0.00  0.00    +0.000 N 
ATOM      3  N   UNL     1       4.109  19.817  18.594  0.00  0.00    +0.000 NA
ATOM      4  C   UNL     1       4.432  18.634  19.252  0.00  0.00    +0.000 A 
ATOM      5  C   UNL     1       5.817  18.445  19.300  0.00  0.00    +0.000 A 
ATOM      6  C   UNL     1       5.268  20.309  18.264  0.00  0.00    +0.000 A 
ATOM      7  C   UNL     1       7.569  20.076  18.404  0.00  0.00    +0.000 A 
ATOM      8  C   UNL     1       7.480  21.267  17.786  0.00  0.00    +0.000 A 
ENDROOT
BRANCH   4  10
ATOM      9  C   UNL     1       1.373  16.045  20.829  0.00  0.00    +0.000 A 
ATOM     10  C   UNL     1       3.395  17.769  19.816  0.00  0.00    +0.000 A 
ATOM     11  C   UNL     1       1.476  17.374  21.263  0.00  0.00    +0.000 A 
ATOM     12  C   UNL     1       2.308  15.586  19.893  0.00  0.00    +0.000 A 
ATOM     13  C   UNL     1       2.487  18.213  20.783  0.00  0.00    +0.000 A 
ATOM     14  C   UNL     1       3.303  16.439  19.391  0.00  0.00    +0.000 A 
BRANCH   9  15
ATOM     15  C   UNL     1       0.343  15.139  21.486  0.00  0.00    +0.000 C 
ATOM     16  C   UNL     1      -0.085  15.548  22.898  0.00  0.00    +0.000 C 
ATOM     17  C   UNL     1      -0.878  15.028  20.569  0.00  0.00    +0.000 C 
ENDBRANCH   9  15
ENDBRANCH   4  10
BRANCH   5  19
ATOM     18  N   UNL     1       6.692  17.390  21.202  0.00  0.00    +0.000 NA
ATOM     19  C   UNL     1       6.634  17.448  19.916  0.00  0.00    +0.000 C 
BRANCH  18  20
ATOM     20  O   UNL     1       7.535  16.359  21.619  0.00  0.00    +0.000 OA
BRANCH  20  21
ATOM     21  C   UNL     1       6.706  15.396  22.273  0.00  0.00    +0.000 C 
BRANCH  21  24
ATOM     22 CL   UNL     1       5.525  19.269  25.558  0.00  0.00    +0.000 Cl
ATOM     23 CL   UNL     1       2.443  18.229  25.451  0.00  0.00    +0.000 Cl
ATOM     24  C   UNL     1       5.715  16.044  23.204  0.00  0.00    +0.000 A 
ATOM     25  C   UNL     1       6.035  17.186  23.952  0.00  0.00    +0.000 A 
ATOM     26  C   UNL     1       4.399  15.563  23.226  0.00  0.00    +0.000 A 
ATOM     27  C   UNL     1       5.050  17.859  24.680  0.00  0.00    +0.000 A 
ATOM     28  C   UNL     1       3.413  16.237  23.944  0.00  0.00    +0.000 A 
ATOM     29  C   UNL     1       3.731  17.396  24.656  0.00  0.00    +0.000 A 
ENDBRANCH  21  24
ENDBRANCH  20  21
ENDBRANCH  18  20
ENDBRANCH   5  19
TORSDOF 6
ENDMDL
