REMARK  Name = 155533563
REMARK  8 active torsions:
REMARK  status: ('A' for Active; 'I' for Inactive)
REMARK    1  A    between atoms: O_4  and  N_7
REMARK    2  A    between atoms: O_4  and  C_23
REMARK    3  A    between atoms: C_8  and  C_9
REMARK    4  A    between atoms: C_8  and  C_17
REMARK    5  A    between atoms: C_8  and  C_18
REMARK    6  A    between atoms: C_10  and  C_11
REMARK    7  A    between atoms: C_12  and  C_21
REMARK    8  A    between atoms: C_23  and  C_24
REMARK                            x       y       z     vdW  Elec       q    Type
REMARK                         _______ _______ _______ _____ _____    ______ ____
ROOT
ATOM      1  S   UNL     1      -4.436   2.108  -8.434  0.00  0.00    +0.000 S 
ATOM      2  N   UNL     1      -4.729   1.602  -5.934  0.00  0.00    +0.000 N 
ATOM      3  N   UNL     1      -2.644   1.076  -6.530  0.00  0.00    +0.000 NA
ATOM      4  C   UNL     1      -2.854   0.782  -5.186  0.00  0.00    +0.000 A 
ATOM      5  C   UNL     1      -4.156   1.111  -4.795  0.00  0.00    +0.000 A 
ATOM      6  C   UNL     1      -3.787   1.562  -6.918  0.00  0.00    +0.000 A 
ATOM      7  C   UNL     1      -5.978   2.033  -6.331  0.00  0.00    +0.000 A 
ATOM      8  C   UNL     1      -6.003   2.343  -7.640  0.00  0.00    +0.000 A 
ENDROOT
BRANCH   4  10
ATOM      9  C   UNL     1       0.235  -1.060  -2.817  0.00  0.00    +0.000 A 
ATOM     10  C   UNL     1      -1.802   0.183  -4.364  0.00  0.00    +0.000 A 
ATOM     11  C   UNL     1      -0.668  -0.158  -2.235  0.00  0.00    +0.000 A 
ATOM     12  C   UNL     1       0.114  -1.318  -4.188  0.00  0.00    +0.000 A 
ATOM     13  C   UNL     1      -1.652   0.472  -3.003  0.00  0.00    +0.000 A 
ATOM     14  C   UNL     1      -0.894  -0.707  -4.949  0.00  0.00    +0.000 A 
BRANCH   9  15
ATOM     15  C   UNL     1       1.370  -1.608  -1.966  0.00  0.00    +0.000 C 
ATOM     16  C   UNL     1       1.782  -3.051  -2.271  0.00  0.00    +0.000 C 
ATOM     17  C   UNL     1       2.576  -0.672  -2.083  0.00  0.00    +0.000 C 
ENDBRANCH   9  15
ENDBRANCH   4  10
BRANCH   5  19
ATOM     18  N   UNL     1      -4.556  -0.046  -2.795  0.00  0.00    +0.000 NA
ATOM     19  C   UNL     1      -4.868   0.936  -3.569  0.00  0.00    +0.000 C 
BRANCH  18  20
ATOM     20  O   UNL     1      -5.355  -0.055  -1.651  0.00  0.00    +0.000 OA
BRANCH  20  21
ATOM     21  C   UNL     1      -5.160  -1.327  -1.030  0.00  0.00    +0.000 C 
BRANCH  21  24
ATOM     22 CL   UNL     1      -9.628  -0.192   1.406  0.00  0.00    +0.000 Cl
ATOM     23 CL   UNL     1      -9.012  -2.693   3.396  0.00  0.00    +0.000 Cl
ATOM     24  C   UNL     1      -6.075  -1.526   0.149  0.00  0.00    +0.000 A 
ATOM     25  C   UNL     1      -7.267  -0.801   0.295  0.00  0.00    +0.000 A 
ATOM     26  C   UNL     1      -5.787  -2.552   1.059  0.00  0.00    +0.000 A 
ATOM     27  C   UNL     1      -8.174  -1.121   1.309  0.00  0.00    +0.000 A 
ATOM     28  C   UNL     1      -6.694  -2.878   2.066  0.00  0.00    +0.000 A 
ATOM     29  C   UNL     1      -7.897  -2.178   2.181  0.00  0.00    +0.000 A 
ENDBRANCH  21  24
ENDBRANCH  20  21
ENDBRANCH  18  20
ENDBRANCH   5  19
TORSDOF 6
