MODEL 1
REMARK VINA RESULT:      -6.2      0.000      0.000
REMARK  Name = 155533563
REMARK  8 active torsions:
REMARK  status: ('A' for Active; 'I' for Inactive)
REMARK    1  A    between atoms: O_4  and  N_7
REMARK    2  A    between atoms: O_4  and  C_23
REMARK    3  A    between atoms: C_8  and  C_9
REMARK    4  A    between atoms: C_8  and  C_17
REMARK    5  A    between atoms: C_8  and  C_18
REMARK    6  A    between atoms: C_10  and  C_11
REMARK    7  A    between atoms: C_12  and  C_21
REMARK    8  A    between atoms: C_23  and  C_24
REMARK                            x       y       z     vdW  Elec       q    Type
REMARK                         _______ _______ _______ _____ _____    ______ ____
ROOT
ATOM      1  S   UNL     1      -2.182   8.213 -57.650  0.00  0.00    +0.000 S 
ATOM      2  N   UNL     1      -3.423   6.060 -58.296  0.00  0.00    +0.000 N 
ATOM      3  N   UNL     1      -3.323   6.187 -56.070  0.00  0.00    +0.000 NA
ATOM      4  C   UNL     1      -3.959   5.013 -56.462  0.00  0.00    +0.000 A 
ATOM      5  C   UNL     1      -4.034   4.920 -57.855  0.00  0.00    +0.000 A 
ATOM      6  C   UNL     1      -3.033   6.767 -57.198  0.00  0.00    +0.000 A 
ATOM      7  C   UNL     1      -3.056   6.604 -59.509  0.00  0.00    +0.000 A 
ATOM      8  C   UNL     1      -2.381   7.757 -59.352  0.00  0.00    +0.000 A 
ENDROOT
BRANCH   4  10
ATOM      9  C   UNL     1      -5.359   2.218 -53.499  0.00  0.00    +0.000 A 
ATOM     10  C   UNL     1      -4.436   4.041 -55.477  0.00  0.00    +0.000 A 
ATOM     11  C   UNL     1      -4.510   1.796 -54.533  0.00  0.00    +0.000 A 
ATOM     12  C   UNL     1      -5.753   3.562 -53.480  0.00  0.00    +0.000 A 
ATOM     13  C   UNL     1      -4.078   2.688 -55.519  0.00  0.00    +0.000 A 
ATOM     14  C   UNL     1      -5.294   4.460 -54.454  0.00  0.00    +0.000 A 
BRANCH   9  15
ATOM     15  C   UNL     1      -5.909   1.178 -52.535  0.00  0.00    +0.000 C 
ATOM     16  C   UNL     1      -5.851  -0.271 -53.030  0.00  0.00    +0.000 C 
ATOM     17  C   UNL     1      -5.186   1.313 -51.192  0.00  0.00    +0.000 C 
ENDBRANCH   9  15
ENDBRANCH   4  10
BRANCH   5  19
ATOM     18  N   UNL     1      -5.714   3.977 -59.192  0.00  0.00    +0.000 NA
ATOM     19  C   UNL     1      -4.514   3.897 -58.729  0.00  0.00    +0.000 C 
BRANCH  18  20
ATOM     20  O   UNL     1      -6.003   2.894 -60.023  0.00  0.00    +0.000 OA
BRANCH  20  21
ATOM     21  C   UNL     1      -6.951   3.361 -60.984  0.00  0.00    +0.000 C 
BRANCH  21  24
ATOM     22 CL   UNL     1      -9.578  -0.326 -63.570  0.00  0.00    +0.000 Cl
ATOM     23 CL   UNL     1      -7.573   0.206 -66.079  0.00  0.00    +0.000 Cl
ATOM     24  C   UNL     1      -7.054   2.440 -62.171  0.00  0.00    +0.000 A 
ATOM     25  C   UNL     1      -8.095   1.509 -62.301  0.00  0.00    +0.000 A 
ATOM     26  C   UNL     1      -6.152   2.605 -63.231  0.00  0.00    +0.000 A 
ATOM     27  C   UNL     1      -8.257   0.784 -63.485  0.00  0.00    +0.000 A 
ATOM     28  C   UNL     1      -6.316   1.889 -64.416  0.00  0.00    +0.000 A 
ATOM     29  C   UNL     1      -7.379   0.993 -64.553  0.00  0.00    +0.000 A 
ENDBRANCH  21  24
ENDBRANCH  20  21
ENDBRANCH  18  20
ENDBRANCH   5  19
TORSDOF 6
ENDMDL
MODEL 2
REMARK VINA RESULT:      -6.2      7.692     11.557
REMARK  Name = 155533563
REMARK  8 active torsions:
REMARK  status: ('A' for Active; 'I' for Inactive)
REMARK    1  A    between atoms: O_4  and  N_7
REMARK    2  A    between atoms: O_4  and  C_23
REMARK    3  A    between atoms: C_8  and  C_9
REMARK    4  A    between atoms: C_8  and  C_17
REMARK    5  A    between atoms: C_8  and  C_18
REMARK    6  A    between atoms: C_10  and  C_11
REMARK    7  A    between atoms: C_12  and  C_21
REMARK    8  A    between atoms: C_23  and  C_24
REMARK                            x       y       z     vdW  Elec       q    Type
REMARK                         _______ _______ _______ _____ _____    ______ ____
ROOT
ATOM      1  S   UNL     1      -7.920  -1.913 -53.167  0.00  0.00    +0.000 S 
ATOM      2  N   UNL     1      -6.324  -0.235 -52.060  0.00  0.00    +0.000 N 
ATOM      3  N   UNL     1      -6.761   0.457 -54.136  0.00  0.00    +0.000 NA
ATOM      4  C   UNL     1      -5.868   1.324 -53.512  0.00  0.00    +0.000 A 
ATOM      5  C   UNL     1      -5.587   0.907 -52.207  0.00  0.00    +0.000 A 
ATOM      6  C   UNL     1      -6.998  -0.443 -53.226  0.00  0.00    +0.000 A 
ATOM      7  C   UNL     1      -6.485  -1.215 -51.103  0.00  0.00    +0.000 A 
ATOM      8  C   UNL     1      -7.306  -2.193 -51.528  0.00  0.00    +0.000 A 
ENDROOT
BRANCH   4  10
ATOM      9  C   UNL     1      -4.181   4.696 -55.594  0.00  0.00    +0.000 A 
ATOM     10  C   UNL     1      -5.321   2.487 -54.213  0.00  0.00    +0.000 A 
ATOM     11  C   UNL     1      -4.972   4.886 -54.451  0.00  0.00    +0.000 A 
ATOM     12  C   UNL     1      -3.983   3.385 -56.045  0.00  0.00    +0.000 A 
ATOM     13  C   UNL     1      -5.553   3.800 -53.789  0.00  0.00    +0.000 A 
ATOM     14  C   UNL     1      -4.543   2.296 -55.360  0.00  0.00    +0.000 A 
BRANCH   9  15
ATOM     15  C   UNL     1      -3.691   5.918 -56.354  0.00  0.00    +0.000 C 
ATOM     16  C   UNL     1      -3.160   7.062 -55.485  0.00  0.00    +0.000 C 
ATOM     17  C   UNL     1      -2.630   5.481 -57.368  0.00  0.00    +0.000 C 
ENDBRANCH   9  15
ENDBRANCH   4  10
BRANCH   5  19
ATOM     18  N   UNL     1      -3.440   1.503 -51.479  0.00  0.00    +0.000 NA
ATOM     19  C   UNL     1      -4.695   1.402 -51.208  0.00  0.00    +0.000 C 
BRANCH  18  20
ATOM     20  O   UNL     1      -2.730   2.003 -50.386  0.00  0.00    +0.000 OA
BRANCH  20  21
ATOM     21  C   UNL     1      -1.430   1.412 -50.443  0.00  0.00    +0.000 C 
BRANCH  21  24
ATOM     22 CL   UNL     1      -0.203   5.054 -46.919  0.00  0.00    +0.000 Cl
ATOM     23 CL   UNL     1       2.923   4.354 -47.495  0.00  0.00    +0.000 Cl
ATOM     24  C   UNL     1      -0.386   2.282 -49.794  0.00  0.00    +0.000 A 
ATOM     25  C   UNL     1      -0.715   3.235 -48.819  0.00  0.00    +0.000 A 
ATOM     26  C   UNL     1       0.964   2.044 -50.085  0.00  0.00    +0.000 A 
ATOM     27  C   UNL     1       0.288   3.911 -48.119  0.00  0.00    +0.000 A 
ATOM     28  C   UNL     1       1.966   2.712 -49.383  0.00  0.00    +0.000 A 
ATOM     29  C   UNL     1       1.632   3.630 -48.385  0.00  0.00    +0.000 A 
ENDBRANCH  21  24
ENDBRANCH  20  21
ENDBRANCH  18  20
ENDBRANCH   5  19
TORSDOF 6
ENDMDL
MODEL 3
REMARK VINA RESULT:      -6.1     19.263     21.514
REMARK  Name = 155533563
REMARK  8 active torsions:
REMARK  status: ('A' for Active; 'I' for Inactive)
REMARK    1  A    between atoms: O_4  and  N_7
REMARK    2  A    between atoms: O_4  and  C_23
REMARK    3  A    between atoms: C_8  and  C_9
REMARK    4  A    between atoms: C_8  and  C_17
REMARK    5  A    between atoms: C_8  and  C_18
REMARK    6  A    between atoms: C_10  and  C_11
REMARK    7  A    between atoms: C_12  and  C_21
REMARK    8  A    between atoms: C_23  and  C_24
REMARK                            x       y       z     vdW  Elec       q    Type
REMARK                         _______ _______ _______ _____ _____    ______ ____
ROOT
ATOM      1  S   UNL     1     -22.839  14.428 -43.766  0.00  0.00    +0.000 S 
ATOM      2  N   UNL     1     -21.423  14.685 -45.893  0.00  0.00    +0.000 N 
ATOM      3  N   UNL     1     -20.108  14.998 -44.117  0.00  0.00    +0.000 NA
ATOM      4  C   UNL     1     -19.384  15.165 -45.293  0.00  0.00    +0.000 A 
ATOM      5  C   UNL     1     -20.193  14.967 -46.417  0.00  0.00    +0.000 A 
ATOM      6  C   UNL     1     -21.307  14.712 -44.535  0.00  0.00    +0.000 A 
ATOM      7  C   UNL     1     -22.699  14.468 -46.371  0.00  0.00    +0.000 A 
ATOM      8  C   UNL     1     -23.584  14.312 -45.369  0.00  0.00    +0.000 A 
ENDROOT
BRANCH   4  10
ATOM      9  C   UNL     1     -15.196  16.161 -45.160  0.00  0.00    +0.000 A 
ATOM     10  C   UNL     1     -17.966  15.526 -45.270  0.00  0.00    +0.000 A 
ATOM     11  C   UNL     1     -16.161  17.159 -45.363  0.00  0.00    +0.000 A 
ATOM     12  C   UNL     1     -15.637  14.838 -45.030  0.00  0.00    +0.000 A 
ATOM     13  C   UNL     1     -17.520  16.841 -45.443  0.00  0.00    +0.000 A 
ATOM     14  C   UNL     1     -17.004  14.527 -45.080  0.00  0.00    +0.000 A 
BRANCH   9  15
ATOM     15  C   UNL     1     -13.726  16.543 -45.221  0.00  0.00    +0.000 C 
ATOM     16  C   UNL     1     -13.002  16.588 -43.872  0.00  0.00    +0.000 C 
ATOM     17  C   UNL     1     -13.004  15.595 -46.183  0.00  0.00    +0.000 C 
ENDBRANCH   9  15
ENDBRANCH   4  10
BRANCH   5  19
ATOM     18  N   UNL     1     -19.810  16.271 -48.327  0.00  0.00    +0.000 NA
ATOM     19  C   UNL     1     -19.947  15.096 -47.818  0.00  0.00    +0.000 C 
BRANCH  18  20
ATOM     20  O   UNL     1     -19.576  16.198 -49.701  0.00  0.00    +0.000 OA
BRANCH  20  21
ATOM     21  C   UNL     1     -18.858  14.983 -49.926  0.00  0.00    +0.000 C 
BRANCH  21  24
ATOM     22 CL   UNL     1     -14.678  15.992 -52.873  0.00  0.00    +0.000 Cl
ATOM     23 CL   UNL     1     -13.038  16.527 -50.112  0.00  0.00    +0.000 Cl
ATOM     24  C   UNL     1     -17.374  15.213 -50.026  0.00  0.00    +0.000 A 
ATOM     25  C   UNL     1     -16.732  15.395 -51.260  0.00  0.00    +0.000 A 
ATOM     26  C   UNL     1     -16.637  15.374 -48.845  0.00  0.00    +0.000 A 
ATOM     27  C   UNL     1     -15.386  15.769 -51.313  0.00  0.00    +0.000 A 
ATOM     28  C   UNL     1     -15.297  15.755 -48.896  0.00  0.00    +0.000 A 
ATOM     29  C   UNL     1     -14.674  15.973 -50.127  0.00  0.00    +0.000 A 
ENDBRANCH  21  24
ENDBRANCH  20  21
ENDBRANCH  18  20
ENDBRANCH   5  19
TORSDOF 6
ENDMDL
MODEL 4
REMARK VINA RESULT:      -6.0     10.729     12.019
REMARK  Name = 155533563
REMARK  8 active torsions:
REMARK  status: ('A' for Active; 'I' for Inactive)
REMARK    1  A    between atoms: O_4  and  N_7
REMARK    2  A    between atoms: O_4  and  C_23
REMARK    3  A    between atoms: C_8  and  C_9
REMARK    4  A    between atoms: C_8  and  C_17
REMARK    5  A    between atoms: C_8  and  C_18
REMARK    6  A    between atoms: C_10  and  C_11
REMARK    7  A    between atoms: C_12  and  C_21
REMARK    8  A    between atoms: C_23  and  C_24
REMARK                            x       y       z     vdW  Elec       q    Type
REMARK                         _______ _______ _______ _____ _____    ______ ____
ROOT
ATOM      1  S   UNL     1      -7.687  13.418 -52.734  0.00  0.00    +0.000 S 
ATOM      2  N   UNL     1      -8.036  13.990 -55.213  0.00  0.00    +0.000 N 
ATOM      3  N   UNL     1      -9.800  12.829 -54.492  0.00  0.00    +0.000 NA
ATOM      4  C   UNL     1      -9.935  13.128 -55.845  0.00  0.00    +0.000 A 
ATOM      5  C   UNL     1      -8.838  13.861 -56.311  0.00  0.00    +0.000 A 
ATOM      6  C   UNL     1      -8.659  13.368 -54.173  0.00  0.00    +0.000 A 
ATOM      7  C   UNL     1      -6.785  14.500 -54.930  0.00  0.00    +0.000 A 
ATOM      8  C   UNL     1      -6.438  14.280 -53.649  0.00  0.00    +0.000 A 
ENDROOT
BRANCH   4  10
ATOM      9  C   UNL     1     -13.294  11.730 -58.148  0.00  0.00    +0.000 A 
ATOM     10  C   UNL     1     -11.095  12.675 -56.613  0.00  0.00    +0.000 A 
ATOM     11  C   UNL     1     -13.170  13.088 -57.819  0.00  0.00    +0.000 A 
ATOM     12  C   UNL     1     -12.310  10.849 -57.683  0.00  0.00    +0.000 A 
ATOM     13  C   UNL     1     -12.102  13.546 -57.042  0.00  0.00    +0.000 A 
ATOM     14  C   UNL     1     -11.223  11.318 -56.929  0.00  0.00    +0.000 A 
BRANCH   9  15
ATOM     15  C   UNL     1     -14.546  11.266 -58.876  0.00  0.00    +0.000 C 
ATOM     16  C   UNL     1     -14.952   9.811 -58.623  0.00  0.00    +0.000 C 
ATOM     17  C   UNL     1     -15.701  12.210 -58.530  0.00  0.00    +0.000 C 
ENDBRANCH   9  15
ENDBRANCH   4  10
BRANCH   5  19
ATOM     18  N   UNL     1      -8.226  13.479 -58.542  0.00  0.00    +0.000 NA
ATOM     19  C   UNL     1      -8.476  14.333 -57.610  0.00  0.00    +0.000 C 
BRANCH  18  20
ATOM     20  O   UNL     1      -7.891  14.122 -59.734  0.00  0.00    +0.000 OA
BRANCH  20  21
ATOM     21  C   UNL     1      -9.038  14.881 -60.120  0.00  0.00    +0.000 C 
BRANCH  21  24
ATOM     22 CL   UNL     1     -14.018  14.424 -61.596  0.00  0.00    +0.000 Cl
ATOM     23 CL   UNL     1     -13.373  11.314 -62.305  0.00  0.00    +0.000 Cl
ATOM     24  C   UNL     1     -10.192  13.999 -60.516  0.00  0.00    +0.000 A 
ATOM     25  C   UNL     1     -11.471  14.518 -60.770  0.00  0.00    +0.000 A 
ATOM     26  C   UNL     1      -9.949  12.640 -60.755  0.00  0.00    +0.000 A 
ATOM     27  C   UNL     1     -12.478  13.701 -61.292  0.00  0.00    +0.000 A 
ATOM     28  C   UNL     1     -10.950  11.826 -61.283  0.00  0.00    +0.000 A 
ATOM     29  C   UNL     1     -12.209  12.358 -61.571  0.00  0.00    +0.000 A 
ENDBRANCH  21  24
ENDBRANCH  20  21
ENDBRANCH  18  20
ENDBRANCH   5  19
TORSDOF 6
ENDMDL
MODEL 5
REMARK VINA RESULT:      -5.8     18.877     21.158
REMARK  Name = 155533563
REMARK  8 active torsions:
REMARK  status: ('A' for Active; 'I' for Inactive)
REMARK    1  A    between atoms: O_4  and  N_7
REMARK    2  A    between atoms: O_4  and  C_23
REMARK    3  A    between atoms: C_8  and  C_9
REMARK    4  A    between atoms: C_8  and  C_17
REMARK    5  A    between atoms: C_8  and  C_18
REMARK    6  A    between atoms: C_10  and  C_11
REMARK    7  A    between atoms: C_12  and  C_21
REMARK    8  A    between atoms: C_23  and  C_24
REMARK                            x       y       z     vdW  Elec       q    Type
REMARK                         _______ _______ _______ _____ _____    ______ ____
ROOT
ATOM      1  S   UNL     1     -21.104  14.753 -42.941  0.00  0.00    +0.000 S 
ATOM      2  N   UNL     1     -19.879  14.980 -45.186  0.00  0.00    +0.000 N 
ATOM      3  N   UNL     1     -18.427  15.373 -43.537  0.00  0.00    +0.000 NA
ATOM      4  C   UNL     1     -17.808  15.521 -44.774  0.00  0.00    +0.000 A 
ATOM      5  C   UNL     1     -18.704  15.274 -45.819  0.00  0.00    +0.000 A 
ATOM      6  C   UNL     1     -19.649  15.048 -43.844  0.00  0.00    +0.000 A 
ATOM      7  C   UNL     1     -21.184  14.721 -45.548  0.00  0.00    +0.000 A 
ATOM      8  C   UNL     1     -21.978  14.575 -44.472  0.00  0.00    +0.000 A 
ENDROOT
BRANCH   4  10
ATOM      9  C   UNL     1     -13.699  16.764 -45.109  0.00  0.00    +0.000 A 
ATOM     10  C   UNL     1     -16.403  15.914 -44.881  0.00  0.00    +0.000 A 
ATOM     11  C   UNL     1     -14.086  15.469 -45.487  0.00  0.00    +0.000 A 
ATOM     12  C   UNL     1     -14.682  17.621 -44.600  0.00  0.00    +0.000 A 
ATOM     13  C   UNL     1     -15.411  15.045 -45.349  0.00  0.00    +0.000 A 
ATOM     14  C   UNL     1     -16.016  17.201 -44.492  0.00  0.00    +0.000 A 
BRANCH   9  15
ATOM     15  C   UNL     1     -12.222  17.125 -45.150  0.00  0.00    +0.000 C 
ATOM     16  C   UNL     1     -11.909  18.560 -45.585  0.00  0.00    +0.000 C 
ATOM     17  C   UNL     1     -11.601  16.834 -43.781  0.00  0.00    +0.000 C 
ENDBRANCH   9  15
ENDBRANCH   4  10
BRANCH   5  19
ATOM     18  N   UNL     1     -18.334  16.513 -47.775  0.00  0.00    +0.000 NA
ATOM     19  C   UNL     1     -18.579  15.367 -47.239  0.00  0.00    +0.000 C 
BRANCH  18  20
ATOM     20  O   UNL     1     -18.246  16.408 -49.164  0.00  0.00    +0.000 OA
BRANCH  20  21
ATOM     21  C   UNL     1     -17.358  15.321 -49.433  0.00  0.00    +0.000 C 
BRANCH  21  24
ATOM     22 CL   UNL     1     -12.301  16.246 -48.562  0.00  0.00    +0.000 Cl
ATOM     23 CL   UNL     1     -11.963  16.622 -51.778  0.00  0.00    +0.000 Cl
ATOM     24  C   UNL     1     -16.025  15.796 -49.947  0.00  0.00    +0.000 A 
ATOM     25  C   UNL     1     -14.898  15.887 -49.116  0.00  0.00    +0.000 A 
ATOM     26  C   UNL     1     -15.878  16.034 -51.320  0.00  0.00    +0.000 A 
ATOM     27  C   UNL     1     -13.640  16.173 -49.653  0.00  0.00    +0.000 A 
ATOM     28  C   UNL     1     -14.623  16.311 -51.859  0.00  0.00    +0.000 A 
ATOM     29  C   UNL     1     -13.499  16.361 -51.031  0.00  0.00    +0.000 A 
ENDBRANCH  21  24
ENDBRANCH  20  21
ENDBRANCH  18  20
ENDBRANCH   5  19
TORSDOF 6
ENDMDL
MODEL 6
REMARK VINA RESULT:      -5.8     23.158     26.583
REMARK  Name = 155533563
REMARK  8 active torsions:
REMARK  status: ('A' for Active; 'I' for Inactive)
REMARK    1  A    between atoms: O_4  and  N_7
REMARK    2  A    between atoms: O_4  and  C_23
REMARK    3  A    between atoms: C_8  and  C_9
REMARK    4  A    between atoms: C_8  and  C_17
REMARK    5  A    between atoms: C_8  and  C_18
REMARK    6  A    between atoms: C_10  and  C_11
REMARK    7  A    between atoms: C_12  and  C_21
REMARK    8  A    between atoms: C_23  and  C_24
REMARK                            x       y       z     vdW  Elec       q    Type
REMARK                         _______ _______ _______ _____ _____    ______ ____
ROOT
ATOM      1  S   UNL     1     -13.925   1.483 -31.544  0.00  0.00    +0.000 S 
ATOM      2  N   UNL     1     -13.504   3.664 -32.831  0.00  0.00    +0.000 N 
ATOM      3  N   UNL     1     -15.636   3.624 -32.172  0.00  0.00    +0.000 NA
ATOM      4  C   UNL     1     -15.376   4.777 -32.905  0.00  0.00    +0.000 A 
ATOM      5  C   UNL     1     -14.042   4.820 -33.322  0.00  0.00    +0.000 A 
ATOM      6  C   UNL     1     -14.490   3.007 -32.158  0.00  0.00    +0.000 A 
ATOM      7  C   UNL     1     -12.298   2.998 -32.908  0.00  0.00    +0.000 A 
ATOM      8  C   UNL     1     -12.345   1.812 -32.276  0.00  0.00    +0.000 A 
ENDROOT
BRANCH   4  10
ATOM      9  C   UNL     1     -18.405   7.728 -33.719  0.00  0.00    +0.000 A 
ATOM     10  C   UNL     1     -16.427   5.757 -33.182  0.00  0.00    +0.000 A 
ATOM     11  C   UNL     1     -18.690   6.617 -32.912  0.00  0.00    +0.000 A 
ATOM     12  C   UNL     1     -17.121   7.829 -34.267  0.00  0.00    +0.000 A 
ATOM     13  C   UNL     1     -17.724   5.635 -32.671  0.00  0.00    +0.000 A 
ATOM     14  C   UNL     1     -16.145   6.858 -33.998  0.00  0.00    +0.000 A 
BRANCH   9  15
ATOM     15  C   UNL     1     -19.532   8.690 -34.061  0.00  0.00    +0.000 C 
ATOM     16  C   UNL     1     -19.498   9.264 -35.481  0.00  0.00    +0.000 C 
ATOM     17  C   UNL     1     -20.873   8.000 -33.797  0.00  0.00    +0.000 C 
ENDBRANCH   9  15
ENDBRANCH   4  10
BRANCH   5  19
ATOM     18  N   UNL     1     -12.358   6.424 -33.628  0.00  0.00    +0.000 NA
ATOM     19  C   UNL     1     -13.317   5.736 -34.145  0.00  0.00    +0.000 C 
BRANCH  18  20
ATOM     20  O   UNL     1     -11.771   7.259 -34.580  0.00  0.00    +0.000 OA
BRANCH  20  21
ATOM     21  C   UNL     1     -11.551   6.458 -35.742  0.00  0.00    +0.000 C 
BRANCH  21  24
ATOM     22 CL   UNL     1      -7.804   3.310 -37.541  0.00  0.00    +0.000 Cl
ATOM     23 CL   UNL     1      -5.745   5.809 -37.214  0.00  0.00    +0.000 Cl
ATOM     24  C   UNL     1     -10.087   6.195 -35.977  0.00  0.00    +0.000 A 
ATOM     25  C   UNL     1      -9.626   4.982 -36.512  0.00  0.00    +0.000 A 
ATOM     26  C   UNL     1      -9.174   7.238 -35.771  0.00  0.00    +0.000 A 
ATOM     27  C   UNL     1      -8.284   4.828 -36.871  0.00  0.00    +0.000 A 
ATOM     28  C   UNL     1      -7.837   7.089 -36.136  0.00  0.00    +0.000 A 
ATOM     29  C   UNL     1      -7.394   5.893 -36.705  0.00  0.00    +0.000 A 
ENDBRANCH  21  24
ENDBRANCH  20  21
ENDBRANCH  18  20
ENDBRANCH   5  19
TORSDOF 6
ENDMDL
MODEL 7
REMARK VINA RESULT:      -5.7     20.280     22.630
REMARK  Name = 155533563
REMARK  8 active torsions:
REMARK  status: ('A' for Active; 'I' for Inactive)
REMARK    1  A    between atoms: O_4  and  N_7
REMARK    2  A    between atoms: O_4  and  C_23
REMARK    3  A    between atoms: C_8  and  C_9
REMARK    4  A    between atoms: C_8  and  C_17
REMARK    5  A    between atoms: C_8  and  C_18
REMARK    6  A    between atoms: C_10  and  C_11
REMARK    7  A    between atoms: C_12  and  C_21
REMARK    8  A    between atoms: C_23  and  C_24
REMARK                            x       y       z     vdW  Elec       q    Type
REMARK                         _______ _______ _______ _____ _____    ______ ____
ROOT
ATOM      1  S   UNL     1     -22.079  13.949 -41.505  0.00  0.00    +0.000 S 
ATOM      2  N   UNL     1     -21.445  14.786 -43.848  0.00  0.00    +0.000 N 
ATOM      3  N   UNL     1     -19.581  14.557 -42.643  0.00  0.00    +0.000 NA
ATOM      4  C   UNL     1     -19.283  15.045 -43.911  0.00  0.00    +0.000 A 
ATOM      5  C   UNL     1     -20.441  15.189 -44.682  0.00  0.00    +0.000 A 
ATOM      6  C   UNL     1     -20.875  14.420 -42.665  0.00  0.00    +0.000 A 
ATOM      7  C   UNL     1     -22.824  14.734 -43.879  0.00  0.00    +0.000 A 
ATOM      8  C   UNL     1     -23.330  14.309 -42.707  0.00  0.00    +0.000 A 
ENDROOT
BRANCH   4  10
ATOM      9  C   UNL     1     -15.258  16.075 -45.045  0.00  0.00    +0.000 A 
ATOM     10  C   UNL     1     -17.909  15.364 -44.301  0.00  0.00    +0.000 A 
ATOM     11  C   UNL     1     -15.915  14.993 -45.650  0.00  0.00    +0.000 A 
ATOM     12  C   UNL     1     -15.941  16.785 -44.050  0.00  0.00    +0.000 A 
ATOM     13  C   UNL     1     -17.208  14.629 -45.264  0.00  0.00    +0.000 A 
ATOM     14  C   UNL     1     -17.250  16.435 -43.687  0.00  0.00    +0.000 A 
BRANCH   9  15
ATOM     15  C   UNL     1     -13.804  16.339 -45.404  0.00  0.00    +0.000 C 
ATOM     16  C   UNL     1     -13.035  17.224 -44.419  0.00  0.00    +0.000 C 
ATOM     17  C   UNL     1     -13.086  15.000 -45.591  0.00  0.00    +0.000 C 
ENDBRANCH   9  15
ENDBRANCH   4  10
BRANCH   5  19
ATOM     18  N   UNL     1     -20.273  15.037 -47.016  0.00  0.00    +0.000 NA
ATOM     19  C   UNL     1     -20.669  15.711 -45.992  0.00  0.00    +0.000 C 
BRANCH  18  20
ATOM     20  O   UNL     1     -20.581  15.701 -48.203  0.00  0.00    +0.000 OA
BRANCH  20  21
ATOM     21  C   UNL     1     -19.654  15.231 -49.184  0.00  0.00    +0.000 C 
BRANCH  21  24
ATOM     22 CL   UNL     1     -16.711  18.957 -47.029  0.00  0.00    +0.000 Cl
ATOM     23 CL   UNL     1     -14.143  17.549 -48.449  0.00  0.00    +0.000 Cl
ATOM     24  C   UNL     1     -18.329  15.939 -49.093  0.00  0.00    +0.000 A 
ATOM     25  C   UNL     1     -18.138  17.057 -48.268  0.00  0.00    +0.000 A 
ATOM     26  C   UNL     1     -17.225  15.388 -49.758  0.00  0.00    +0.000 A 
ATOM     27  C   UNL     1     -16.861  17.592 -48.079  0.00  0.00    +0.000 A 
ATOM     28  C   UNL     1     -15.949  15.916 -49.565  0.00  0.00    +0.000 A 
ATOM     29  C   UNL     1     -15.761  17.004 -48.710  0.00  0.00    +0.000 A 
ENDBRANCH  21  24
ENDBRANCH  20  21
ENDBRANCH  18  20
ENDBRANCH   5  19
TORSDOF 6
ENDMDL
MODEL 8
REMARK VINA RESULT:      -5.6     18.517     20.280
REMARK  Name = 155533563
REMARK  8 active torsions:
REMARK  status: ('A' for Active; 'I' for Inactive)
REMARK    1  A    between atoms: O_4  and  N_7
REMARK    2  A    between atoms: O_4  and  C_23
REMARK    3  A    between atoms: C_8  and  C_9
REMARK    4  A    between atoms: C_8  and  C_17
REMARK    5  A    between atoms: C_8  and  C_18
REMARK    6  A    between atoms: C_10  and  C_11
REMARK    7  A    between atoms: C_12  and  C_21
REMARK    8  A    between atoms: C_23  and  C_24
REMARK                            x       y       z     vdW  Elec       q    Type
REMARK                         _______ _______ _______ _____ _____    ______ ____
ROOT
ATOM      1  S   UNL     1      -8.468  22.071 -44.935  0.00  0.00    +0.000 S 
ATOM      2  N   UNL     1      -9.504  19.725 -44.813  0.00  0.00    +0.000 N 
ATOM      3  N   UNL     1      -7.291  19.541 -44.600  0.00  0.00    +0.000 NA
ATOM      4  C   UNL     1      -7.888  18.284 -44.575  0.00  0.00    +0.000 A 
ATOM      5  C   UNL     1      -9.277  18.383 -44.702  0.00  0.00    +0.000 A 
ATOM      6  C   UNL     1      -8.297  20.354 -44.739  0.00  0.00    +0.000 A 
ATOM      7  C   UNL     1     -10.585  20.551 -45.045  0.00  0.00    +0.000 A 
ATOM      8  C   UNL     1     -10.213  21.840 -45.141  0.00  0.00    +0.000 A 
ENDROOT
BRANCH   4  10
ATOM      9  C   UNL     1      -5.577  14.660 -44.295  0.00  0.00    +0.000 A 
ATOM     10  C   UNL     1      -7.089  17.064 -44.453  0.00  0.00    +0.000 A 
ATOM     11  C   UNL     1      -6.034  15.306 -43.137  0.00  0.00    +0.000 A 
ATOM     12  C   UNL     1      -5.873  15.244 -45.533  0.00  0.00    +0.000 A 
ATOM     13  C   UNL     1      -6.755  16.502 -43.216  0.00  0.00    +0.000 A 
ATOM     14  C   UNL     1      -6.623  16.428 -45.609  0.00  0.00    +0.000 A 
BRANCH   9  15
ATOM     15  C   UNL     1      -4.681  13.441 -44.145  0.00  0.00    +0.000 C 
ATOM     16  C   UNL     1      -3.272  13.586 -44.728  0.00  0.00    +0.000 C 
ATOM     17  C   UNL     1      -4.609  13.055 -42.665  0.00  0.00    +0.000 C 
ENDBRANCH   9  15
ENDBRANCH   4  10
BRANCH   5  19
ATOM     18  N   UNL     1     -10.960  17.057 -43.748  0.00  0.00    +0.000 NA
ATOM     19  C   UNL     1     -10.308  17.399 -44.806  0.00  0.00    +0.000 C 
BRANCH  18  20
ATOM     20  O   UNL     1     -11.922  16.091 -44.044  0.00  0.00    +0.000 OA
BRANCH  20  21
ATOM     21  C   UNL     1     -12.292  16.291 -45.409  0.00  0.00    +0.000 C 
BRANCH  21  24
ATOM     22 CL   UNL     1     -16.288  15.263 -48.597  0.00  0.00    +0.000 Cl
ATOM     23 CL   UNL     1     -18.183  15.154 -45.953  0.00  0.00    +0.000 Cl
ATOM     24  C   UNL     1     -13.778  16.157 -45.617  0.00  0.00    +0.000 A 
ATOM     25  C   UNL     1     -14.330  15.887 -46.877  0.00  0.00    +0.000 A 
ATOM     26  C   UNL     1     -14.619  16.181 -44.496  0.00  0.00    +0.000 A 
ATOM     27  C   UNL     1     -15.693  15.606 -47.011  0.00  0.00    +0.000 A 
ATOM     28  C   UNL     1     -15.976  15.893 -44.626  0.00  0.00    +0.000 A 
ATOM     29  C   UNL     1     -16.512  15.586 -45.879  0.00  0.00    +0.000 A 
ENDBRANCH  21  24
ENDBRANCH  20  21
ENDBRANCH  18  20
ENDBRANCH   5  19
TORSDOF 6
ENDMDL
MODEL 9
REMARK VINA RESULT:      -5.6     21.102     23.338
REMARK  Name = 155533563
REMARK  8 active torsions:
REMARK  status: ('A' for Active; 'I' for Inactive)
REMARK    1  A    between atoms: O_4  and  N_7
REMARK    2  A    between atoms: O_4  and  C_23
REMARK    3  A    between atoms: C_8  and  C_9
REMARK    4  A    between atoms: C_8  and  C_17
REMARK    5  A    between atoms: C_8  and  C_18
REMARK    6  A    between atoms: C_10  and  C_11
REMARK    7  A    between atoms: C_12  and  C_21
REMARK    8  A    between atoms: C_23  and  C_24
REMARK                            x       y       z     vdW  Elec       q    Type
REMARK                         _______ _______ _______ _____ _____    ______ ____
ROOT
ATOM      1  S   UNL     1     -24.431  -5.688 -56.561  0.00  0.00    +0.000 S 
ATOM      2  N   UNL     1     -23.780  -5.780 -54.079  0.00  0.00    +0.000 N 
ATOM      3  N   UNL     1     -24.490  -3.719 -54.556  0.00  0.00    +0.000 NA
ATOM      4  C   UNL     1     -24.093  -3.800 -53.224  0.00  0.00    +0.000 A 
ATOM      5  C   UNL     1     -23.650  -5.088 -52.908  0.00  0.00    +0.000 A 
ATOM      6  C   UNL     1     -24.286  -4.921 -55.009  0.00  0.00    +0.000 A 
ATOM      7  C   UNL     1     -23.473  -7.041 -54.546  0.00  0.00    +0.000 A 
ATOM      8  C   UNL     1     -23.754  -7.167 -55.856  0.00  0.00    +0.000 A 
ENDROOT
BRANCH   4  10
ATOM      9  C   UNL     1     -24.328  -0.373 -50.626  0.00  0.00    +0.000 A 
ATOM     10  C   UNL     1     -24.141  -2.633 -52.343  0.00  0.00    +0.000 A 
ATOM     11  C   UNL     1     -23.355  -0.439 -51.635  0.00  0.00    +0.000 A 
ATOM     12  C   UNL     1     -25.195  -1.463 -50.479  0.00  0.00    +0.000 A 
ATOM     13  C   UNL     1     -23.248  -1.562 -52.460  0.00  0.00    +0.000 A 
ATOM     14  C   UNL     1     -25.104  -2.575 -51.329  0.00  0.00    +0.000 A 
BRANCH   9  15
ATOM     15  C   UNL     1     -24.309   0.808 -49.669  0.00  0.00    +0.000 C 
ATOM     16  C   UNL     1     -24.725   2.151 -50.276  0.00  0.00    +0.000 C 
ATOM     17  C   UNL     1     -25.181   0.478 -48.455  0.00  0.00    +0.000 C 
ENDBRANCH   9  15
ENDBRANCH   4  10
BRANCH   5  19
ATOM     18  N   UNL     1     -23.825  -6.362 -50.947  0.00  0.00    +0.000 NA
ATOM     19  C   UNL     1     -23.083  -5.649 -51.722  0.00  0.00    +0.000 C 
BRANCH  18  20
ATOM     20  O   UNL     1     -23.101  -6.822 -49.846  0.00  0.00    +0.000 OA
BRANCH  20  21
ATOM     21  C   UNL     1     -23.802  -7.964 -49.348  0.00  0.00    +0.000 C 
BRANCH  21  24
ATOM     22 CL   UNL     1     -26.068  -8.357 -44.669  0.00  0.00    +0.000 Cl
ATOM     23 CL   UNL     1     -23.148  -9.169 -43.482  0.00  0.00    +0.000 Cl
ATOM     24  C   UNL     1     -23.666  -8.103 -47.855  0.00  0.00    +0.000 A 
ATOM     25  C   UNL     1     -24.781  -8.085 -47.003  0.00  0.00    +0.000 A 
ATOM     26  C   UNL     1     -22.403  -8.381 -47.316  0.00  0.00    +0.000 A 
ATOM     27  C   UNL     1     -24.642  -8.379 -45.644  0.00  0.00    +0.000 A 
ATOM     28  C   UNL     1     -22.263  -8.682 -45.963  0.00  0.00    +0.000 A 
ATOM     29  C   UNL     1     -23.383  -8.702 -45.128  0.00  0.00    +0.000 A 
ENDBRANCH  21  24
ENDBRANCH  20  21
ENDBRANCH  18  20
ENDBRANCH   5  19
TORSDOF 6
ENDMDL
MODEL 10
REMARK VINA RESULT:      -5.6     23.564     25.492
REMARK  Name = 155533563
REMARK  8 active torsions:
REMARK  status: ('A' for Active; 'I' for Inactive)
REMARK    1  A    between atoms: O_4  and  N_7
REMARK    2  A    between atoms: O_4  and  C_23
REMARK    3  A    between atoms: C_8  and  C_9
REMARK    4  A    between atoms: C_8  and  C_17
REMARK    5  A    between atoms: C_8  and  C_18
REMARK    6  A    between atoms: C_10  and  C_11
REMARK    7  A    between atoms: C_12  and  C_21
REMARK    8  A    between atoms: C_23  and  C_24
REMARK                            x       y       z     vdW  Elec       q    Type
REMARK                         _______ _______ _______ _____ _____    ______ ____
ROOT
ATOM      1  S   UNL     1     -14.861  -0.893 -32.748  0.00  0.00    +0.000 S 
ATOM      2  N   UNL     1     -13.582   1.101 -33.737  0.00  0.00    +0.000 N 
ATOM      3  N   UNL     1     -12.106  -0.357 -32.915  0.00  0.00    +0.000 NA
ATOM      4  C   UNL     1     -11.452   0.758 -33.430  0.00  0.00    +0.000 A 
ATOM      5  C   UNL     1     -12.363   1.681 -33.954  0.00  0.00    +0.000 A 
ATOM      6  C   UNL     1     -13.363  -0.099 -33.129  0.00  0.00    +0.000 A 
ATOM      7  C   UNL     1     -14.907   1.446 -33.903  0.00  0.00    +0.000 A 
ATOM      8  C   UNL     1     -15.730   0.494 -33.427  0.00  0.00    +0.000 A 
ENDROOT
BRANCH   4  10
ATOM      9  C   UNL     1      -7.175   1.212 -33.213  0.00  0.00    +0.000 A 
ATOM     10  C   UNL     1      -9.995   0.883 -33.368  0.00  0.00    +0.000 A 
ATOM     11  C   UNL     1      -7.761   0.463 -34.244  0.00  0.00    +0.000 A 
ATOM     12  C   UNL     1      -8.019   1.779 -32.251  0.00  0.00    +0.000 A 
ATOM     13  C   UNL     1      -9.146   0.281 -34.303  0.00  0.00    +0.000 A 
ATOM     14  C   UNL     1      -9.411   1.619 -32.331  0.00  0.00    +0.000 A 
BRANCH   9  15
ATOM     15  C   UNL     1      -5.658   1.261 -33.119  0.00  0.00    +0.000 C 
ATOM     16  C   UNL     1      -5.085   1.194 -31.701  0.00  0.00    +0.000 C 
ATOM     17  C   UNL     1      -5.069   0.145 -33.986  0.00  0.00    +0.000 C 
ENDBRANCH   9  15
ENDBRANCH   4  10
BRANCH   5  19
ATOM     18  N   UNL     1     -11.724   3.930 -33.779  0.00  0.00    +0.000 NA
ATOM     19  C   UNL     1     -12.201   2.985 -34.514  0.00  0.00    +0.000 C 
BRANCH  18  20
ATOM     20  O   UNL     1     -11.639   5.126 -34.494  0.00  0.00    +0.000 OA
BRANCH  20  21
ATOM     21  C   UNL     1     -11.091   4.796 -35.771  0.00  0.00    +0.000 C 
BRANCH  21  24
ATOM     22 CL   UNL     1      -6.206   3.036 -36.246  0.00  0.00    +0.000 Cl
ATOM     23 CL   UNL     1      -5.288   6.126 -36.697  0.00  0.00    +0.000 Cl
ATOM     24  C   UNL     1      -9.615   5.085 -35.843  0.00  0.00    +0.000 A 
ATOM     25  C   UNL     1      -8.660   4.060 -35.917  0.00  0.00    +0.000 A 
ATOM     26  C   UNL     1      -9.195   6.417 -35.965  0.00  0.00    +0.000 A 
ATOM     27  C   UNL     1      -7.314   4.358 -36.148  0.00  0.00    +0.000 A 
ATOM     28  C   UNL     1      -7.854   6.715 -36.202  0.00  0.00    +0.000 A 
ATOM     29  C   UNL     1      -6.915   5.688 -36.315  0.00  0.00    +0.000 A 
ENDBRANCH  21  24
ENDBRANCH  20  21
ENDBRANCH  18  20
ENDBRANCH   5  19
TORSDOF 6
ENDMDL
