MODEL 1
REMARK VINA RESULT:      -7.5      0.000      0.000
REMARK  Name = 155524887
REMARK  9 active torsions:
REMARK  status: ('A' for Active; 'I' for Inactive)
REMARK    1  A    between atoms: O_4  and  N_7
REMARK    2  A    between atoms: O_4  and  C_28
REMARK    3  A    between atoms: C_8  and  C_14
REMARK    4  A    between atoms: C_8  and  C_15
REMARK    5  A    between atoms: C_9  and  C_16
REMARK    6  A    between atoms: C_9  and  C_17
REMARK    7  A    between atoms: C_20  and  C_22
REMARK    8  A    between atoms: C_23  and  C_25
REMARK    9  A    between atoms: C_28  and  C_29
REMARK                            x       y       z     vdW  Elec       q    Type
REMARK                         _______ _______ _______ _____ _____    ______ ____
ROOT
ATOM      1  S   UNL     1     -10.270  13.597 -33.911  0.00  0.00    +0.000 S 
ATOM      2  N   UNL     1     -10.323  10.903 -34.709  0.00  0.00    +0.000 NA
ATOM      3  N   UNL     1      -9.556  11.456 -32.690  0.00  0.00    +0.000 N 
ATOM      4  C   UNL     1      -9.941   9.765 -34.005  0.00  0.00    +0.000 A 
ATOM      5  C   UNL     1      -9.466  10.090 -32.730  0.00  0.00    +0.000 A 
ATOM      6  C   UNL     1     -10.063  11.873 -33.881  0.00  0.00    +0.000 A 
ATOM      7  C   UNL     1      -9.326  12.453 -31.766  0.00  0.00    +0.000 A 
ATOM      8  C   UNL     1      -9.654  13.664 -32.250  0.00  0.00    +0.000 A 
ENDROOT
BRANCH   4  21
ATOM      9  C   UNL     1      -7.701   5.789 -36.057  0.00  0.00    +0.000 C 
ATOM     10  C   UNL     1     -10.437   4.403 -36.235  0.00  0.00    +0.000 C 
ATOM     11  C   UNL     1      -7.941   4.463 -36.819  0.00  0.00    +0.000 C 
ATOM     12  C   UNL     1      -9.095   3.641 -36.271  0.00  0.00    +0.000 C 
ATOM     13  C   UNL     1      -9.005   6.467 -35.625  0.00  0.00    +0.000 A 
ATOM     14  C   UNL     1     -10.262   5.834 -35.722  0.00  0.00    +0.000 A 
ATOM     15  C   UNL     1      -6.843   5.529 -34.796  0.00  0.00    +0.000 C 
ATOM     16  C   UNL     1      -6.892   6.696 -37.016  0.00  0.00    +0.000 C 
ATOM     17  C   UNL     1     -11.360   3.596 -35.284  0.00  0.00    +0.000 C 
ATOM     18  C   UNL     1     -11.093   4.429 -37.633  0.00  0.00    +0.000 C 
ATOM     19  C   UNL     1      -8.943   7.760 -35.047  0.00  0.00    +0.000 A 
ATOM     20  C   UNL     1     -11.402   6.540 -35.294  0.00  0.00    +0.000 A 
ATOM     21  C   UNL     1     -10.079   8.433 -34.584  0.00  0.00    +0.000 A 
ATOM     22  C   UNL     1     -11.305   7.793 -34.694  0.00  0.00    +0.000 A 
ENDBRANCH   4  21
BRANCH   5  24
ATOM     23  N   UNL     1      -7.852   9.459 -31.136  0.00  0.00    +0.000 NA
ATOM     24  C   UNL     1      -9.030   9.284 -31.628  0.00  0.00    +0.000 C 
BRANCH  23  25
ATOM     25  O   UNL     1      -7.641   8.604 -30.054  0.00  0.00    +0.000 OA
BRANCH  25  26
ATOM     26  C   UNL     1      -7.129   9.385 -28.971  0.00  0.00    +0.000 C 
BRANCH  26  29
ATOM     27 CL   UNL     1      -8.161   5.161 -26.108  0.00  0.00    +0.000 Cl
ATOM     28 CL   UNL     1      -5.246   5.549 -24.709  0.00  0.00    +0.000 Cl
ATOM     29  C   UNL     1      -6.750   8.491 -27.820  0.00  0.00    +0.000 A 
ATOM     30  C   UNL     1      -7.547   7.396 -27.453  0.00  0.00    +0.000 A 
ATOM     31  C   UNL     1      -5.522   8.677 -27.172  0.00  0.00    +0.000 A 
ATOM     32  C   UNL     1      -7.118   6.490 -26.480  0.00  0.00    +0.000 A 
ATOM     33  C   UNL     1      -5.087   7.770 -26.203  0.00  0.00    +0.000 A 
ATOM     34  C   UNL     1      -5.879   6.671 -25.865  0.00  0.00    +0.000 A 
ENDBRANCH  26  29
ENDBRANCH  25  26
ENDBRANCH  23  25
ENDBRANCH   5  24
TORSDOF 5
ENDMDL
MODEL 2
REMARK VINA RESULT:      -6.8     23.992     27.354
REMARK  Name = 155524887
REMARK  9 active torsions:
REMARK  status: ('A' for Active; 'I' for Inactive)
REMARK    1  A    between atoms: O_4  and  N_7
REMARK    2  A    between atoms: O_4  and  C_28
REMARK    3  A    between atoms: C_8  and  C_14
REMARK    4  A    between atoms: C_8  and  C_15
REMARK    5  A    between atoms: C_9  and  C_16
REMARK    6  A    between atoms: C_9  and  C_17
REMARK    7  A    between atoms: C_20  and  C_22
REMARK    8  A    between atoms: C_23  and  C_25
REMARK    9  A    between atoms: C_28  and  C_29
REMARK                            x       y       z     vdW  Elec       q    Type
REMARK                         _______ _______ _______ _____ _____    ______ ____
ROOT
ATOM      1  S   UNL     1      -8.197  -3.271 -61.629  0.00  0.00    +0.000 S 
ATOM      2  N   UNL     1      -7.070  -2.208 -59.284  0.00  0.00    +0.000 NA
ATOM      3  N   UNL     1      -7.280  -0.933 -61.102  0.00  0.00    +0.000 N 
ATOM      4  C   UNL     1      -6.600  -0.921 -59.035  0.00  0.00    +0.000 A 
ATOM      5  C   UNL     1      -6.732  -0.102 -60.161  0.00  0.00    +0.000 A 
ATOM      6  C   UNL     1      -7.452  -2.154 -60.528  0.00  0.00    +0.000 A 
ATOM      7  C   UNL     1      -7.729  -0.825 -62.401  0.00  0.00    +0.000 A 
ATOM      8  C   UNL     1      -8.254  -1.981 -62.844  0.00  0.00    +0.000 A 
ENDROOT
BRANCH   4  21
ATOM      9  C   UNL     1      -7.239  -0.892 -54.071  0.00  0.00    +0.000 C 
ATOM     10  C   UNL     1      -4.501   0.468 -53.778  0.00  0.00    +0.000 C 
ATOM     11  C   UNL     1      -6.711  -0.311 -52.737  0.00  0.00    +0.000 C 
ATOM     12  C   UNL     1      -5.196  -0.298 -52.632  0.00  0.00    +0.000 C 
ATOM     13  C   UNL     1      -6.377  -0.493 -55.273  0.00  0.00    +0.000 A 
ATOM     14  C   UNL     1      -5.127   0.145 -55.136  0.00  0.00    +0.000 A 
ATOM     15  C   UNL     1      -7.289  -2.437 -53.995  0.00  0.00    +0.000 C 
ATOM     16  C   UNL     1      -8.688  -0.368 -54.226  0.00  0.00    +0.000 C 
ATOM     17  C   UNL     1      -3.014   0.022 -53.748  0.00  0.00    +0.000 C 
ATOM     18  C   UNL     1      -4.550   1.991 -53.532  0.00  0.00    +0.000 C 
ATOM     19  C   UNL     1      -6.823  -0.833 -56.576  0.00  0.00    +0.000 A 
ATOM     20  C   UNL     1      -4.408   0.467 -56.303  0.00  0.00    +0.000 A 
ATOM     21  C   UNL     1      -6.077  -0.547 -57.725  0.00  0.00    +0.000 A 
ATOM     22  C   UNL     1      -4.852   0.085 -57.566  0.00  0.00    +0.000 A 
ENDBRANCH   4  21
BRANCH   5  24
ATOM     23  N   UNL     1      -5.280   1.661 -60.731  0.00  0.00    +0.000 NA
ATOM     24  C   UNL     1      -6.463   1.288 -60.380  0.00  0.00    +0.000 C 
BRANCH  23  25
ATOM     25  O   UNL     1      -5.240   3.042 -60.927  0.00  0.00    +0.000 OA
BRANCH  25  26
ATOM     26  C   UNL     1      -5.980   3.656 -59.867  0.00  0.00    +0.000 C 
BRANCH  26  29
ATOM     27 CL   UNL     1      -2.985   7.767 -58.758  0.00  0.00    +0.000 Cl
ATOM     28 CL   UNL     1      -2.674   6.573 -55.745  0.00  0.00    +0.000 Cl
ATOM     29  C   UNL     1      -5.041   4.338 -58.907  0.00  0.00    +0.000 A 
ATOM     30  C   UNL     1      -4.434   5.562 -59.226  0.00  0.00    +0.000 A 
ATOM     31  C   UNL     1      -4.855   3.808 -57.624  0.00  0.00    +0.000 A 
ATOM     32  C   UNL     1      -3.679   6.258 -58.279  0.00  0.00    +0.000 A 
ATOM     33  C   UNL     1      -4.106   4.503 -56.672  0.00  0.00    +0.000 A 
ATOM     34  C   UNL     1      -3.527   5.732 -56.995  0.00  0.00    +0.000 A 
ENDBRANCH  26  29
ENDBRANCH  25  26
ENDBRANCH  23  25
ENDBRANCH   5  24
TORSDOF 5
ENDMDL
MODEL 3
REMARK VINA RESULT:      -6.7      5.438      9.693
REMARK  Name = 155524887
REMARK  9 active torsions:
REMARK  status: ('A' for Active; 'I' for Inactive)
REMARK    1  A    between atoms: O_4  and  N_7
REMARK    2  A    between atoms: O_4  and  C_28
REMARK    3  A    between atoms: C_8  and  C_14
REMARK    4  A    between atoms: C_8  and  C_15
REMARK    5  A    between atoms: C_9  and  C_16
REMARK    6  A    between atoms: C_9  and  C_17
REMARK    7  A    between atoms: C_20  and  C_22
REMARK    8  A    between atoms: C_23  and  C_25
REMARK    9  A    between atoms: C_28  and  C_29
REMARK                            x       y       z     vdW  Elec       q    Type
REMARK                         _______ _______ _______ _____ _____    ______ ____
ROOT
ATOM      1  S   UNL     1      -8.772   4.686 -36.610  0.00  0.00    +0.000 S 
ATOM      2  N   UNL     1      -8.727   7.055 -35.100  0.00  0.00    +0.000 NA
ATOM      3  N   UNL     1     -10.633   6.348 -36.015  0.00  0.00    +0.000 N 
ATOM      4  C   UNL     1      -9.770   7.921 -34.784  0.00  0.00    +0.000 A 
ATOM      5  C   UNL     1     -10.978   7.490 -35.341  0.00  0.00    +0.000 A 
ATOM      6  C   UNL     1      -9.300   6.148 -35.837  0.00  0.00    +0.000 A 
ATOM      7  C   UNL     1     -11.283   5.373 -36.741  0.00  0.00    +0.000 A 
ATOM      8  C   UNL     1     -10.440   4.403 -37.137  0.00  0.00    +0.000 A 
ENDROOT
BRANCH   4  21
ATOM      9  C   UNL     1      -8.521   9.748 -30.295  0.00  0.00    +0.000 C 
ATOM     10  C   UNL     1      -8.791  12.588 -31.433  0.00  0.00    +0.000 C 
ATOM     11  C   UNL     1      -8.480  11.026 -29.423  0.00  0.00    +0.000 C 
ATOM     12  C   UNL     1      -7.981  12.256 -30.162  0.00  0.00    +0.000 C 
ATOM     13  C   UNL     1      -8.965  10.028 -31.735  0.00  0.00    +0.000 A 
ATOM     14  C   UNL     1      -9.103  11.333 -32.250  0.00  0.00    +0.000 A 
ATOM     15  C   UNL     1      -7.122   9.086 -30.333  0.00  0.00    +0.000 C 
ATOM     16  C   UNL     1      -9.498   8.776 -29.590  0.00  0.00    +0.000 C 
ATOM     17  C   UNL     1      -7.910  13.566 -32.256  0.00  0.00    +0.000 C 
ATOM     18  C   UNL     1     -10.106  13.314 -31.073  0.00  0.00    +0.000 C 
ATOM     19  C   UNL     1      -9.188   8.930 -32.606  0.00  0.00    +0.000 A 
ATOM     20  C   UNL     1      -9.513  11.485 -33.588  0.00  0.00    +0.000 A 
ATOM     21  C   UNL     1      -9.552   9.096 -33.947  0.00  0.00    +0.000 A 
ATOM     22  C   UNL     1      -9.685  10.390 -34.430  0.00  0.00    +0.000 A 
ENDBRANCH   4  21
BRANCH   5  24
ATOM     23  N   UNL     1     -13.180   7.369 -34.518  0.00  0.00    +0.000 NA
ATOM     24  C   UNL     1     -12.317   7.990 -35.247  0.00  0.00    +0.000 C 
BRANCH  23  25
ATOM     25  O   UNL     1     -14.405   8.038 -34.535  0.00  0.00    +0.000 OA
BRANCH  25  26
ATOM     26  C   UNL     1     -15.316   7.305 -33.710  0.00  0.00    +0.000 C 
BRANCH  26  29
ATOM     27 CL   UNL     1     -20.387   7.099 -32.551  0.00  0.00    +0.000 Cl
ATOM     28 CL   UNL     1     -20.922   9.049 -35.103  0.00  0.00    +0.000 Cl
ATOM     29  C   UNL     1     -16.736   7.610 -34.106  0.00  0.00    +0.000 A 
ATOM     30  C   UNL     1     -17.819   7.214 -33.306  0.00  0.00    +0.000 A 
ATOM     31  C   UNL     1     -16.986   8.405 -35.233  0.00  0.00    +0.000 A 
ATOM     32  C   UNL     1     -19.120   7.622 -33.605  0.00  0.00    +0.000 A 
ATOM     33  C   UNL     1     -18.285   8.820 -35.532  0.00  0.00    +0.000 A 
ATOM     34  C   UNL     1     -19.350   8.439 -34.713  0.00  0.00    +0.000 A 
ENDBRANCH  26  29
ENDBRANCH  25  26
ENDBRANCH  23  25
ENDBRANCH   5  24
TORSDOF 5
ENDMDL
MODEL 4
REMARK VINA RESULT:      -6.6     21.159     23.639
REMARK  Name = 155524887
REMARK  9 active torsions:
REMARK  status: ('A' for Active; 'I' for Inactive)
REMARK    1  A    between atoms: O_4  and  N_7
REMARK    2  A    between atoms: O_4  and  C_28
REMARK    3  A    between atoms: C_8  and  C_14
REMARK    4  A    between atoms: C_8  and  C_15
REMARK    5  A    between atoms: C_9  and  C_16
REMARK    6  A    between atoms: C_9  and  C_17
REMARK    7  A    between atoms: C_20  and  C_22
REMARK    8  A    between atoms: C_23  and  C_25
REMARK    9  A    between atoms: C_28  and  C_29
REMARK                            x       y       z     vdW  Elec       q    Type
REMARK                         _______ _______ _______ _____ _____    ______ ____
ROOT
ATOM      1  S   UNL     1       1.758  -3.010 -51.175  0.00  0.00    +0.000 S 
ATOM      2  N   UNL     1      -0.758  -2.806 -52.408  0.00  0.00    +0.000 NA
ATOM      3  N   UNL     1      -0.182  -1.375 -50.799  0.00  0.00    +0.000 N 
ATOM      4  C   UNL     1      -1.779  -1.887 -52.186  0.00  0.00    +0.000 A 
ATOM      5  C   UNL     1      -1.434  -0.972 -51.185  0.00  0.00    +0.000 A 
ATOM      6  C   UNL     1       0.156  -2.455 -51.551  0.00  0.00    +0.000 A 
ATOM      7  C   UNL     1       0.788  -0.939 -49.922  0.00  0.00    +0.000 A 
ATOM      8  C   UNL     1       1.897  -1.698 -49.991  0.00  0.00    +0.000 A 
ENDROOT
BRANCH   4  21
ATOM      9  C   UNL     1      -6.783  -1.980 -52.181  0.00  0.00    +0.000 C 
ATOM     10  C   UNL     1      -6.736  -1.931 -55.252  0.00  0.00    +0.000 C 
ATOM     11  C   UNL     1      -8.039  -2.197 -53.059  0.00  0.00    +0.000 C 
ATOM     12  C   UNL     1      -7.964  -1.515 -54.414  0.00  0.00    +0.000 C 
ATOM     13  C   UNL     1      -5.484  -1.997 -52.992  0.00  0.00    +0.000 A 
ATOM     14  C   UNL     1      -5.465  -1.990 -54.402  0.00  0.00    +0.000 A 
ATOM     15  C   UNL     1      -6.881  -0.625 -51.440  0.00  0.00    +0.000 C 
ATOM     16  C   UNL     1      -6.795  -3.112 -51.124  0.00  0.00    +0.000 C 
ATOM     17  C   UNL     1      -6.595  -0.858 -56.364  0.00  0.00    +0.000 C 
ATOM     18  C   UNL     1      -6.971  -3.298 -55.931  0.00  0.00    +0.000 C 
ATOM     19  C   UNL     1      -4.246  -1.956 -52.300  0.00  0.00    +0.000 A 
ATOM     20  C   UNL     1      -4.218  -2.002 -55.056  0.00  0.00    +0.000 A 
ATOM     21  C   UNL     1      -3.014  -1.923 -52.962  0.00  0.00    +0.000 A 
ATOM     22  C   UNL     1      -3.020  -1.921 -54.350  0.00  0.00    +0.000 A 
ENDBRANCH   4  21
BRANCH   5  24
ATOM     23  N   UNL     1      -2.182   1.252 -51.365  0.00  0.00    +0.000 NA
ATOM     24  C   UNL     1      -2.104   0.178 -50.656  0.00  0.00    +0.000 C 
BRANCH  23  25
ATOM     25  O   UNL     1      -2.901   2.236 -50.684  0.00  0.00    +0.000 OA
BRANCH  25  26
ATOM     26  C   UNL     1      -4.284   2.071 -51.010  0.00  0.00    +0.000 C 
BRANCH  26  29
ATOM     27 CL   UNL     1      -4.482   5.985 -54.436  0.00  0.00    +0.000 Cl
ATOM     28 CL   UNL     1      -4.794   3.751 -56.784  0.00  0.00    +0.000 Cl
ATOM     29  C   UNL     1      -4.543   2.530 -52.420  0.00  0.00    +0.000 A 
ATOM     30  C   UNL     1      -4.484   3.888 -52.769  0.00  0.00    +0.000 A 
ATOM     31  C   UNL     1      -4.732   1.581 -53.434  0.00  0.00    +0.000 A 
ATOM     32  C   UNL     1      -4.584   4.292 -54.102  0.00  0.00    +0.000 A 
ATOM     33  C   UNL     1      -4.827   1.981 -54.769  0.00  0.00    +0.000 A 
ATOM     34  C   UNL     1      -4.742   3.334 -55.104  0.00  0.00    +0.000 A 
ENDBRANCH  26  29
ENDBRANCH  25  26
ENDBRANCH  23  25
ENDBRANCH   5  24
TORSDOF 5
ENDMDL
MODEL 5
REMARK VINA RESULT:      -6.4     25.191     26.950
REMARK  Name = 155524887
REMARK  9 active torsions:
REMARK  status: ('A' for Active; 'I' for Inactive)
REMARK    1  A    between atoms: O_4  and  N_7
REMARK    2  A    between atoms: O_4  and  C_28
REMARK    3  A    between atoms: C_8  and  C_14
REMARK    4  A    between atoms: C_8  and  C_15
REMARK    5  A    between atoms: C_9  and  C_16
REMARK    6  A    between atoms: C_9  and  C_17
REMARK    7  A    between atoms: C_20  and  C_22
REMARK    8  A    between atoms: C_23  and  C_25
REMARK    9  A    between atoms: C_28  and  C_29
REMARK                            x       y       z     vdW  Elec       q    Type
REMARK                         _______ _______ _______ _____ _____    ______ ____
ROOT
ATOM      1  S   UNL     1     -25.737   7.516 -48.919  0.00  0.00    +0.000 S 
ATOM      2  N   UNL     1     -24.178   7.094 -51.218  0.00  0.00    +0.000 NA
ATOM      3  N   UNL     1     -25.354   8.974 -50.994  0.00  0.00    +0.000 N 
ATOM      4  C   UNL     1     -23.983   7.924 -52.318  0.00  0.00    +0.000 A 
ATOM      5  C   UNL     1     -24.705   9.116 -52.192  0.00  0.00    +0.000 A 
ATOM      6  C   UNL     1     -25.006   7.768 -50.474  0.00  0.00    +0.000 A 
ATOM      7  C   UNL     1     -26.183   9.741 -50.203  0.00  0.00    +0.000 A 
ATOM      8  C   UNL     1     -26.488   9.116 -49.051  0.00  0.00    +0.000 A 
ENDROOT
BRANCH   4  21
ATOM      9  C   UNL     1     -23.250   5.090 -56.376  0.00  0.00    +0.000 C 
ATOM     10  C   UNL     1     -20.511   6.428 -56.754  0.00  0.00    +0.000 C 
ATOM     11  C   UNL     1     -22.194   4.604 -57.399  0.00  0.00    +0.000 C 
ATOM     12  C   UNL     1     -21.265   5.702 -57.888  0.00  0.00    +0.000 C 
ATOM     13  C   UNL     1     -22.694   6.133 -55.402  0.00  0.00    +0.000 A 
ATOM     14  C   UNL     1     -21.429   6.735 -55.570  0.00  0.00    +0.000 A 
ATOM     15  C   UNL     1     -24.461   5.706 -57.116  0.00  0.00    +0.000 C 
ATOM     16  C   UNL     1     -23.733   3.826 -55.623  0.00  0.00    +0.000 C 
ATOM     17  C   UNL     1     -19.971   7.744 -57.375  0.00  0.00    +0.000 C 
ATOM     18  C   UNL     1     -19.303   5.594 -56.273  0.00  0.00    +0.000 C 
ATOM     19  C   UNL     1     -23.507   6.559 -54.321  0.00  0.00    +0.000 A 
ATOM     20  C   UNL     1     -21.010   7.687 -54.621  0.00  0.00    +0.000 A 
ATOM     21  C   UNL     1     -23.096   7.539 -53.410  0.00  0.00    +0.000 A 
ATOM     22  C   UNL     1     -21.846   8.114 -53.592  0.00  0.00    +0.000 A 
ENDBRANCH   4  21
BRANCH   5  24
ATOM     23  N   UNL     1     -23.860  11.191 -52.913  0.00  0.00    +0.000 NA
ATOM     24  C   UNL     1     -24.778  10.291 -53.009  0.00  0.00    +0.000 C 
BRANCH  23  25
ATOM     25  O   UNL     1     -24.098  12.230 -53.815  0.00  0.00    +0.000 OA
BRANCH  25  26
ATOM     26  C   UNL     1     -22.934  13.060 -53.844  0.00  0.00    +0.000 C 
BRANCH  26  29
ATOM     27 CL   UNL     1     -18.682  14.018 -56.690  0.00  0.00    +0.000 Cl
ATOM     28 CL   UNL     1     -19.160  11.146 -58.147  0.00  0.00    +0.000 Cl
ATOM     29  C   UNL     1     -22.052  12.677 -55.003  0.00  0.00    +0.000 A 
ATOM     30  C   UNL     1     -20.933  13.447 -55.355  0.00  0.00    +0.000 A 
ATOM     31  C   UNL     1     -22.277  11.468 -55.675  0.00  0.00    +0.000 A 
ATOM     32  C   UNL     1     -20.042  13.010 -56.337  0.00  0.00    +0.000 A 
ATOM     33  C   UNL     1     -21.385  11.026 -56.654  0.00  0.00    +0.000 A 
ATOM     34  C   UNL     1     -20.262  11.790 -56.977  0.00  0.00    +0.000 A 
ENDBRANCH  26  29
ENDBRANCH  25  26
ENDBRANCH  23  25
ENDBRANCH   5  24
TORSDOF 5
ENDMDL
MODEL 6
REMARK VINA RESULT:      -6.4     12.643     15.060
REMARK  Name = 155524887
REMARK  9 active torsions:
REMARK  status: ('A' for Active; 'I' for Inactive)
REMARK    1  A    between atoms: O_4  and  N_7
REMARK    2  A    between atoms: O_4  and  C_28
REMARK    3  A    between atoms: C_8  and  C_14
REMARK    4  A    between atoms: C_8  and  C_15
REMARK    5  A    between atoms: C_9  and  C_16
REMARK    6  A    between atoms: C_9  and  C_17
REMARK    7  A    between atoms: C_20  and  C_22
REMARK    8  A    between atoms: C_23  and  C_25
REMARK    9  A    between atoms: C_28  and  C_29
REMARK                            x       y       z     vdW  Elec       q    Type
REMARK                         _______ _______ _______ _____ _____    ______ ____
ROOT
ATOM      1  S   UNL     1       5.903   3.966 -35.447  0.00  0.00    +0.000 S 
ATOM      2  N   UNL     1       4.014   5.146 -37.161  0.00  0.00    +0.000 NA
ATOM      3  N   UNL     1       4.165   2.925 -37.021  0.00  0.00    +0.000 N 
ATOM      4  C   UNL     1       3.073   4.540 -37.988  0.00  0.00    +0.000 A 
ATOM      5  C   UNL     1       3.144   3.145 -37.908  0.00  0.00    +0.000 A 
ATOM      6  C   UNL     1       4.635   4.137 -36.622  0.00  0.00    +0.000 A 
ATOM      7  C   UNL     1       4.761   1.835 -36.423  0.00  0.00    +0.000 A 
ATOM      8  C   UNL     1       5.713   2.207 -35.549  0.00  0.00    +0.000 A 
ENDROOT
BRANCH   4  21
ATOM      9  C   UNL     1       2.059   6.728 -42.373  0.00  0.00    +0.000 C 
ATOM     10  C   UNL     1      -0.653   7.623 -41.242  0.00  0.00    +0.000 C 
ATOM     11  C   UNL     1       1.113   7.716 -43.098  0.00  0.00    +0.000 C 
ATOM     12  C   UNL     1      -0.354   7.525 -42.753  0.00  0.00    +0.000 C 
ATOM     13  C   UNL     1       1.627   6.447 -40.931  0.00  0.00    +0.000 A 
ATOM     14  C   UNL     1       0.388   6.872 -40.409  0.00  0.00    +0.000 A 
ATOM     15  C   UNL     1       2.112   5.385 -43.140  0.00  0.00    +0.000 C 
ATOM     16  C   UNL     1       3.468   7.369 -42.418  0.00  0.00    +0.000 C 
ATOM     17  C   UNL     1      -2.059   6.995 -41.045  0.00  0.00    +0.000 C 
ATOM     18  C   UNL     1      -0.718   9.097 -40.787  0.00  0.00    +0.000 C 
ATOM     19  C   UNL     1       2.480   5.675 -40.101  0.00  0.00    +0.000 A 
ATOM     20  C   UNL     1       0.082   6.560 -39.071  0.00  0.00    +0.000 A 
ATOM     21  C   UNL     1       2.144   5.333 -38.786  0.00  0.00    +0.000 A 
ATOM     22  C   UNL     1       0.921   5.766 -38.293  0.00  0.00    +0.000 A 
ENDBRANCH   4  21
BRANCH   5  24
ATOM     23  N   UNL     1       1.147   1.915 -38.104  0.00  0.00    +0.000 NA
ATOM     24  C   UNL     1       2.359   2.103 -38.500  0.00  0.00    +0.000 C 
BRANCH  23  25
ATOM     25  O   UNL     1       0.551   0.882 -38.829  0.00  0.00    +0.000 OA
BRANCH  25  26
ATOM     26  C   UNL     1      -0.756   1.317 -39.218  0.00  0.00    +0.000 C 
BRANCH  26  29
ATOM     27 CL   UNL     1      -0.320   0.862 -44.385  0.00  0.00    +0.000 Cl
ATOM     28 CL   UNL     1      -1.093   4.017 -44.604  0.00  0.00    +0.000 Cl
ATOM     29  C   UNL     1      -0.700   1.988 -40.565  0.00  0.00    +0.000 A 
ATOM     30  C   UNL     1      -0.488   1.250 -41.740  0.00  0.00    +0.000 A 
ATOM     31  C   UNL     1      -0.978   3.357 -40.670  0.00  0.00    +0.000 A 
ATOM     32  C   UNL     1      -0.579   1.856 -42.995  0.00  0.00    +0.000 A 
ATOM     33  C   UNL     1      -1.075   3.965 -41.923  0.00  0.00    +0.000 A 
ATOM     34  C   UNL     1      -0.887   3.214 -43.085  0.00  0.00    +0.000 A 
ENDBRANCH  26  29
ENDBRANCH  25  26
ENDBRANCH  23  25
ENDBRANCH   5  24
TORSDOF 5
ENDMDL
MODEL 7
REMARK VINA RESULT:      -6.2     17.725     20.938
REMARK  Name = 155524887
REMARK  9 active torsions:
REMARK  status: ('A' for Active; 'I' for Inactive)
REMARK    1  A    between atoms: O_4  and  N_7
REMARK    2  A    between atoms: O_4  and  C_28
REMARK    3  A    between atoms: C_8  and  C_14
REMARK    4  A    between atoms: C_8  and  C_15
REMARK    5  A    between atoms: C_9  and  C_16
REMARK    6  A    between atoms: C_9  and  C_17
REMARK    7  A    between atoms: C_20  and  C_22
REMARK    8  A    between atoms: C_23  and  C_25
REMARK    9  A    between atoms: C_28  and  C_29
REMARK                            x       y       z     vdW  Elec       q    Type
REMARK                         _______ _______ _______ _____ _____    ______ ____
ROOT
ATOM      1  S   UNL     1     -12.620  19.486 -54.337  0.00  0.00    +0.000 S 
ATOM      2  N   UNL     1     -12.704  18.659 -51.653  0.00  0.00    +0.000 NA
ATOM      3  N   UNL     1     -14.430  18.249 -53.004  0.00  0.00    +0.000 N 
ATOM      4  C   UNL     1     -13.704  17.970 -50.972  0.00  0.00    +0.000 A 
ATOM      5  C   UNL     1     -14.793  17.694 -51.805  0.00  0.00    +0.000 A 
ATOM      6  C   UNL     1     -13.197  18.801 -52.849  0.00  0.00    +0.000 A 
ATOM      7  C   UNL     1     -14.956  18.329 -54.276  0.00  0.00    +0.000 A 
ATOM      8  C   UNL     1     -14.119  18.958 -55.121  0.00  0.00    +0.000 A 
ENDROOT
BRANCH   4  21
ATOM      9  C   UNL     1     -14.865  18.876 -46.189  0.00  0.00    +0.000 C 
ATOM     10  C   UNL     1     -13.177  16.443 -45.371  0.00  0.00    +0.000 C 
ATOM     11  C   UNL     1     -14.512  18.533 -44.721  0.00  0.00    +0.000 C 
ATOM     12  C   UNL     1     -14.277  17.052 -44.477  0.00  0.00    +0.000 C 
ATOM     13  C   UNL     1     -14.079  18.033 -47.198  0.00  0.00    +0.000 A 
ATOM     14  C   UNL     1     -13.292  16.926 -46.818  0.00  0.00    +0.000 A 
ATOM     15  C   UNL     1     -16.376  18.653 -46.437  0.00  0.00    +0.000 C 
ATOM     16  C   UNL     1     -14.561  20.383 -46.364  0.00  0.00    +0.000 C 
ATOM     17  C   UNL     1     -13.371  14.904 -45.297  0.00  0.00    +0.000 C 
ATOM     18  C   UNL     1     -11.773  16.776 -44.822  0.00  0.00    +0.000 C 
ATOM     19  C   UNL     1     -14.193  18.339 -48.578  0.00  0.00    +0.000 A 
ATOM     20  C   UNL     1     -12.611  16.213 -47.823  0.00  0.00    +0.000 A 
ATOM     21  C   UNL     1     -13.545  17.595 -49.571  0.00  0.00    +0.000 A 
ATOM     22  C   UNL     1     -12.774  16.512 -49.173  0.00  0.00    +0.000 A 
ENDBRANCH   4  21
BRANCH   5  24
ATOM     23  N   UNL     1     -16.959  17.495 -50.907  0.00  0.00    +0.000 NA
ATOM     24  C   UNL     1     -16.008  16.965 -51.596  0.00  0.00    +0.000 C 
BRANCH  23  25
ATOM     25  O   UNL     1     -18.061  16.639 -50.854  0.00  0.00    +0.000 OA
BRANCH  25  26
ATOM     26  C   UNL     1     -17.615  15.384 -50.333  0.00  0.00    +0.000 C 
BRANCH  26  29
ATOM     27 CL   UNL     1     -20.213  15.805 -45.842  0.00  0.00    +0.000 Cl
ATOM     28 CL   UNL     1     -17.452  15.005 -44.313  0.00  0.00    +0.000 Cl
ATOM     29  C   UNL     1     -17.578  15.429 -48.829  0.00  0.00    +0.000 A 
ATOM     30  C   UNL     1     -18.742  15.643 -48.076  0.00  0.00    +0.000 A 
ATOM     31  C   UNL     1     -16.384  15.140 -48.156  0.00  0.00    +0.000 A 
ATOM     32  C   UNL     1     -18.725  15.543 -46.683  0.00  0.00    +0.000 A 
ATOM     33  C   UNL     1     -16.363  15.033 -46.763  0.00  0.00    +0.000 A 
ATOM     34  C   UNL     1     -17.535  15.224 -46.028  0.00  0.00    +0.000 A 
ENDBRANCH  26  29
ENDBRANCH  25  26
ENDBRANCH  23  25
ENDBRANCH   5  24
TORSDOF 5
ENDMDL
MODEL 8
REMARK VINA RESULT:      -6.2     23.883     27.901
REMARK  Name = 155524887
REMARK  9 active torsions:
REMARK  status: ('A' for Active; 'I' for Inactive)
REMARK    1  A    between atoms: O_4  and  N_7
REMARK    2  A    between atoms: O_4  and  C_28
REMARK    3  A    between atoms: C_8  and  C_14
REMARK    4  A    between atoms: C_8  and  C_15
REMARK    5  A    between atoms: C_9  and  C_16
REMARK    6  A    between atoms: C_9  and  C_17
REMARK    7  A    between atoms: C_20  and  C_22
REMARK    8  A    between atoms: C_23  and  C_25
REMARK    9  A    between atoms: C_28  and  C_29
REMARK                            x       y       z     vdW  Elec       q    Type
REMARK                         _______ _______ _______ _____ _____    ______ ____
ROOT
ATOM      1  S   UNL     1      -6.897  -5.649 -60.128  0.00  0.00    +0.000 S 
ATOM      2  N   UNL     1      -6.273  -3.659 -58.244  0.00  0.00    +0.000 NA
ATOM      3  N   UNL     1      -6.617  -3.111 -60.378  0.00  0.00    +0.000 N 
ATOM      4  C   UNL     1      -6.148  -2.284 -58.420  0.00  0.00    +0.000 A 
ATOM      5  C   UNL     1      -6.370  -1.918 -59.752  0.00  0.00    +0.000 A 
ATOM      6  C   UNL     1      -6.543  -4.094 -59.441  0.00  0.00    +0.000 A 
ATOM      7  C   UNL     1      -6.960  -3.530 -61.646  0.00  0.00    +0.000 A 
ATOM      8  C   UNL     1      -7.151  -4.860 -61.695  0.00  0.00    +0.000 A 
ENDROOT
BRANCH   4  21
ATOM      9  C   UNL     1      -6.972  -1.103 -53.628  0.00  0.00    +0.000 C 
ATOM     10  C   UNL     1      -4.910   1.159 -53.884  0.00  0.00    +0.000 C 
ATOM     11  C   UNL     1      -6.743  -0.026 -52.539  0.00  0.00    +0.000 C 
ATOM     12  C   UNL     1      -5.337   0.549 -52.532  0.00  0.00    +0.000 C 
ATOM     13  C   UNL     1      -6.256  -0.777 -54.942  0.00  0.00    +0.000 A 
ATOM     14  C   UNL     1      -5.321   0.272 -55.060  0.00  0.00    +0.000 A 
ATOM     15  C   UNL     1      -6.473  -2.479 -53.126  0.00  0.00    +0.000 C 
ATOM     16  C   UNL     1      -8.504  -1.188 -53.834  0.00  0.00    +0.000 C 
ATOM     17  C   UNL     1      -3.365   1.294 -53.821  0.00  0.00    +0.000 C 
ATOM     18  C   UNL     1      -5.507   2.572 -54.064  0.00  0.00    +0.000 C 
ATOM     19  C   UNL     1      -6.495  -1.600 -56.072  0.00  0.00    +0.000 A 
ATOM     20  C   UNL     1      -4.713   0.489 -56.312  0.00  0.00    +0.000 A 
ATOM     21  C   UNL     1      -5.850  -1.401 -57.298  0.00  0.00    +0.000 A 
ATOM     22  C   UNL     1      -4.937  -0.360 -57.392  0.00  0.00    +0.000 A 
ENDBRANCH   4  21
BRANCH   5  24
ATOM     23  N   UNL     1      -5.366  -0.180 -60.982  0.00  0.00    +0.000 NA
ATOM     24  C   UNL     1      -6.422  -0.644 -60.407  0.00  0.00    +0.000 C 
BRANCH  23  25
ATOM     25  O   UNL     1      -5.639   1.049 -61.587  0.00  0.00    +0.000 OA
BRANCH  25  26
ATOM     26  C   UNL     1      -6.577   1.745 -60.761  0.00  0.00    +0.000 C 
BRANCH  26  29
ATOM     27 CL   UNL     1      -3.613   3.897 -57.062  0.00  0.00    +0.000 Cl
ATOM     28 CL   UNL     1      -3.618   6.634 -58.824  0.00  0.00    +0.000 Cl
ATOM     29  C   UNL     1      -5.942   2.982 -60.184  0.00  0.00    +0.000 A 
ATOM     30  C   UNL     1      -5.208   2.936 -58.989  0.00  0.00    +0.000 A 
ATOM     31  C   UNL     1      -5.981   4.182 -60.905  0.00  0.00    +0.000 A 
ATOM     32  C   UNL     1      -4.504   4.054 -58.535  0.00  0.00    +0.000 A 
ATOM     33  C   UNL     1      -5.274   5.300 -60.458  0.00  0.00    +0.000 A 
ATOM     34  C   UNL     1      -4.527   5.234 -59.280  0.00  0.00    +0.000 A 
ENDBRANCH  26  29
ENDBRANCH  25  26
ENDBRANCH  23  25
ENDBRANCH   5  24
TORSDOF 5
ENDMDL
MODEL 9
REMARK VINA RESULT:      -6.1     26.195     28.381
REMARK  Name = 155524887
REMARK  9 active torsions:
REMARK  status: ('A' for Active; 'I' for Inactive)
REMARK    1  A    between atoms: O_4  and  N_7
REMARK    2  A    between atoms: O_4  and  C_28
REMARK    3  A    between atoms: C_8  and  C_14
REMARK    4  A    between atoms: C_8  and  C_15
REMARK    5  A    between atoms: C_9  and  C_16
REMARK    6  A    between atoms: C_9  and  C_17
REMARK    7  A    between atoms: C_20  and  C_22
REMARK    8  A    between atoms: C_23  and  C_25
REMARK    9  A    between atoms: C_28  and  C_29
REMARK                            x       y       z     vdW  Elec       q    Type
REMARK                         _______ _______ _______ _____ _____    ______ ____
ROOT
ATOM      1  S   UNL     1     -28.784   2.186 -57.377  0.00  0.00    +0.000 S 
ATOM      2  N   UNL     1     -26.355   3.576 -57.127  0.00  0.00    +0.000 NA
ATOM      3  N   UNL     1     -26.629   1.611 -56.110  0.00  0.00    +0.000 N 
ATOM      4  C   UNL     1     -25.198   3.216 -56.441  0.00  0.00    +0.000 A 
ATOM      5  C   UNL     1     -25.346   1.980 -55.803  0.00  0.00    +0.000 A 
ATOM      6  C   UNL     1     -27.168   2.589 -56.886  0.00  0.00    +0.000 A 
ATOM      7  C   UNL     1     -27.444   0.521 -55.885  0.00  0.00    +0.000 A 
ATOM      8  C   UNL     1     -28.636   0.659 -56.491  0.00  0.00    +0.000 A 
ENDROOT
BRANCH   4  21
ATOM      9  C   UNL     1     -22.934   7.362 -54.788  0.00  0.00    +0.000 C 
ATOM     10  C   UNL     1     -20.442   6.585 -56.407  0.00  0.00    +0.000 C 
ATOM     11  C   UNL     1     -21.720   8.300 -54.993  0.00  0.00    +0.000 C 
ATOM     12  C   UNL     1     -20.409   7.566 -55.216  0.00  0.00    +0.000 C 
ATOM     13  C   UNL     1     -22.878   6.119 -55.682  0.00  0.00    +0.000 A 
ATOM     14  C   UNL     1     -21.738   5.773 -56.436  0.00  0.00    +0.000 A 
ATOM     15  C   UNL     1     -23.007   6.902 -53.312  0.00  0.00    +0.000 C 
ATOM     16  C   UNL     1     -24.191   8.212 -55.094  0.00  0.00    +0.000 C 
ATOM     17  C   UNL     1     -19.219   5.647 -56.222  0.00  0.00    +0.000 C 
ATOM     18  C   UNL     1     -20.270   7.338 -57.745  0.00  0.00    +0.000 C 
ATOM     19  C   UNL     1     -23.995   5.245 -55.707  0.00  0.00    +0.000 A 
ATOM     20  C   UNL     1     -21.785   4.607 -57.224  0.00  0.00    +0.000 A 
ATOM     21  C   UNL     1     -24.012   4.066 -56.459  0.00  0.00    +0.000 A 
ATOM     22  C   UNL     1     -22.880   3.748 -57.197  0.00  0.00    +0.000 A 
ENDBRANCH   4  21
BRANCH   5  24
ATOM     23  N   UNL     1     -24.272  -0.069 -55.368  0.00  0.00    +0.000 NA
ATOM     24  C   UNL     1     -24.438   1.169 -55.049  0.00  0.00    +0.000 C 
BRANCH  23  25
ATOM     25  O   UNL     1     -23.325  -0.666 -54.535  0.00  0.00    +0.000 OA
BRANCH  25  26
ATOM     26  C   UNL     1     -23.899  -1.865 -54.006  0.00  0.00    +0.000 C 
BRANCH  26  29
ATOM     27 CL   UNL     1     -23.677   1.053 -49.701  0.00  0.00    +0.000 Cl
ATOM     28 CL   UNL     1     -26.094  -0.764 -48.494  0.00  0.00    +0.000 Cl
ATOM     29  C   UNL     1     -24.329  -1.648 -52.580  0.00  0.00    +0.000 A 
ATOM     30  C   UNL     1     -23.832  -0.576 -51.822  0.00  0.00    +0.000 A 
ATOM     31  C   UNL     1     -25.332  -2.455 -52.027  0.00  0.00    +0.000 A 
ATOM     32  C   UNL     1     -24.340  -0.298 -50.551  0.00  0.00    +0.000 A 
ATOM     33  C   UNL     1     -25.847  -2.177 -50.759  0.00  0.00    +0.000 A 
ATOM     34  C   UNL     1     -25.360  -1.093 -50.026  0.00  0.00    +0.000 A 
ENDBRANCH  26  29
ENDBRANCH  25  26
ENDBRANCH  23  25
ENDBRANCH   5  24
TORSDOF 5
ENDMDL
MODEL 10
REMARK VINA RESULT:      -6.0     22.206     24.407
REMARK  Name = 155524887
REMARK  9 active torsions:
REMARK  status: ('A' for Active; 'I' for Inactive)
REMARK    1  A    between atoms: O_4  and  N_7
REMARK    2  A    between atoms: O_4  and  C_28
REMARK    3  A    between atoms: C_8  and  C_14
REMARK    4  A    between atoms: C_8  and  C_15
REMARK    5  A    between atoms: C_9  and  C_16
REMARK    6  A    between atoms: C_9  and  C_17
REMARK    7  A    between atoms: C_20  and  C_22
REMARK    8  A    between atoms: C_23  and  C_25
REMARK    9  A    between atoms: C_28  and  C_29
REMARK                            x       y       z     vdW  Elec       q    Type
REMARK                         _______ _______ _______ _____ _____    ______ ____
ROOT
ATOM      1  S   UNL     1     -25.048  -0.167 -52.977  0.00  0.00    +0.000 S 
ATOM      2  N   UNL     1     -25.404   2.409 -51.912  0.00  0.00    +0.000 NA
ATOM      3  N   UNL     1     -25.094   0.669 -50.553  0.00  0.00    +0.000 N 
ATOM      4  C   UNL     1     -25.403   2.823 -50.583  0.00  0.00    +0.000 A 
ATOM      5  C   UNL     1     -25.199   1.747 -49.713  0.00  0.00    +0.000 A 
ATOM      6  C   UNL     1     -25.225   1.123 -51.828  0.00  0.00    +0.000 A 
ATOM      7  C   UNL     1     -24.842  -0.681 -50.430  0.00  0.00    +0.000 A 
ATOM      8  C   UNL     1     -24.782  -1.286 -51.629  0.00  0.00    +0.000 A 
ENDROOT
BRANCH   4  21
ATOM      9  C   UNL     1     -23.478   7.443 -50.561  0.00  0.00    +0.000 C 
ATOM     10  C   UNL     1     -26.073   8.462 -49.270  0.00  0.00    +0.000 C 
ATOM     11  C   UNL     1     -23.649   8.875 -49.999  0.00  0.00    +0.000 C 
ATOM     12  C   UNL     1     -25.083   9.376 -50.024  0.00  0.00    +0.000 C 
ATOM     13  C   UNL     1     -24.636   6.515 -50.178  0.00  0.00    +0.000 A 
ATOM     14  C   UNL     1     -25.819   6.984 -49.571  0.00  0.00    +0.000 A 
ATOM     15  C   UNL     1     -23.376   7.487 -52.105  0.00  0.00    +0.000 C 
ATOM     16  C   UNL     1     -22.134   6.917 -50.001  0.00  0.00    +0.000 C 
ATOM     17  C   UNL     1     -27.488   8.878 -49.751  0.00  0.00    +0.000 C 
ATOM     18  C   UNL     1     -25.994   8.703 -47.746  0.00  0.00    +0.000 C 
ATOM     19  C   UNL     1     -24.542   5.137 -50.501  0.00  0.00    +0.000 A 
ATOM     20  C   UNL     1     -26.828   6.051 -49.261  0.00  0.00    +0.000 A 
ATOM     21  C   UNL     1     -25.570   4.228 -50.228  0.00  0.00    +0.000 A 
ATOM     22  C   UNL     1     -26.723   4.711 -49.626  0.00  0.00    +0.000 A 
ENDBRANCH   4  21
BRANCH   5  24
ATOM     23  N   UNL     1     -26.100   1.647 -47.540  0.00  0.00    +0.000 NA
ATOM     24  C   UNL     1     -25.051   1.671 -48.290  0.00  0.00    +0.000 C 
BRANCH  23  25
ATOM     25  O   UNL     1     -25.737   1.536 -46.197  0.00  0.00    +0.000 OA
BRANCH  25  26
ATOM     26  C   UNL     1     -26.461   0.435 -45.638  0.00  0.00    +0.000 C 
BRANCH  26  29
ATOM     27 CL   UNL     1     -28.242  -1.349 -41.084  0.00  0.00    +0.000 Cl
ATOM     28 CL   UNL     1     -27.157   1.402 -39.722  0.00  0.00    +0.000 Cl
ATOM     29  C   UNL     1     -26.770   0.701 -44.189  0.00  0.00    +0.000 A 
ATOM     30  C   UNL     1     -27.363  -0.279 -43.377  0.00  0.00    +0.000 A 
ATOM     31  C   UNL     1     -26.357   1.903 -43.600  0.00  0.00    +0.000 A 
ATOM     32  C   UNL     1     -27.517  -0.077 -42.004  0.00  0.00    +0.000 A 
ATOM     33  C   UNL     1     -26.504   2.106 -42.226  0.00  0.00    +0.000 A 
ATOM     34  C   UNL     1     -27.073   1.113 -41.427  0.00  0.00    +0.000 A 
ENDBRANCH  26  29
ENDBRANCH  25  26
ENDBRANCH  23  25
ENDBRANCH   5  24
TORSDOF 5
ENDMDL
