MODEL 1
REMARK VINA RESULT:      -6.5      0.000      0.000
REMARK  Name = 155524887
REMARK  9 active torsions:
REMARK  status: ('A' for Active; 'I' for Inactive)
REMARK    1  A    between atoms: O_4  and  N_7
REMARK    2  A    between atoms: O_4  and  C_28
REMARK    3  A    between atoms: C_8  and  C_14
REMARK    4  A    between atoms: C_8  and  C_15
REMARK    5  A    between atoms: C_9  and  C_16
REMARK    6  A    between atoms: C_9  and  C_17
REMARK    7  A    between atoms: C_20  and  C_22
REMARK    8  A    between atoms: C_23  and  C_25
REMARK    9  A    between atoms: C_28  and  C_29
REMARK                            x       y       z     vdW  Elec       q    Type
REMARK                         _______ _______ _______ _____ _____    ______ ____
ROOT
ATOM      1  S   UNL     1      20.732   5.191  20.579  0.00  0.00    +0.000 S 
ATOM      2  N   UNL     1      18.070   6.090  20.627  0.00  0.00    +0.000 NA
ATOM      3  N   UNL     1      19.719   7.441  21.279  0.00  0.00    +0.000 N 
ATOM      4  C   UNL     1      17.564   7.332  20.999  0.00  0.00    +0.000 A 
ATOM      5  C   UNL     1      18.585   8.199  21.403  0.00  0.00    +0.000 A 
ATOM      6  C   UNL     1      19.351   6.215  20.823  0.00  0.00    +0.000 A 
ATOM      7  C   UNL     1      21.076   7.627  21.441  0.00  0.00    +0.000 A 
ATOM      8  C   UNL     1      21.771   6.525  21.109  0.00  0.00    +0.000 A 
ENDROOT
BRANCH   4  21
ATOM      9  C   UNL     1      13.728   8.999  18.251  0.00  0.00    +0.000 C 
ATOM     10  C   UNL     1      11.850   8.412  20.610  0.00  0.00    +0.000 C 
ATOM     11  C   UNL     1      12.247   9.447  18.297  0.00  0.00    +0.000 C 
ATOM     12  C   UNL     1      11.363   8.554  19.152  0.00  0.00    +0.000 C 
ATOM     13  C   UNL     1      14.227   8.465  19.597  0.00  0.00    +0.000 A 
ATOM     14  C   UNL     1      13.365   8.211  20.684  0.00  0.00    +0.000 A 
ATOM     15  C   UNL     1      13.914   7.892  17.185  0.00  0.00    +0.000 C 
ATOM     16  C   UNL     1      14.540  10.240  17.807  0.00  0.00    +0.000 C 
ATOM     17  C   UNL     1      11.111   7.175  21.187  0.00  0.00    +0.000 C 
ATOM     18  C   UNL     1      11.447   9.646  21.447  0.00  0.00    +0.000 C 
ATOM     19  C   UNL     1      15.604   8.155  19.741  0.00  0.00    +0.000 A 
ATOM     20  C   UNL     1      13.921   7.718  21.879  0.00  0.00    +0.000 A 
ATOM     21  C   UNL     1      16.137   7.623  20.920  0.00  0.00    +0.000 A 
ATOM     22  C   UNL     1      15.270   7.385  21.977  0.00  0.00    +0.000 A 
ENDBRANCH   4  21
BRANCH   5  24
ATOM     23  N   UNL     1      18.920  10.486  20.954  0.00  0.00    +0.000 NA
ATOM     24  C   UNL     1      18.580   9.575  21.801  0.00  0.00    +0.000 C 
BRANCH  23  25
ATOM     25  O   UNL     1      18.814  11.753  21.528  0.00  0.00    +0.000 OA
BRANCH  25  26
ATOM     26  C   UNL     1      17.791  11.697  22.527  0.00  0.00    +0.000 C 
BRANCH  26  29
ATOM     27 CL   UNL     1      15.145  14.510  19.037  0.00  0.00    +0.000 Cl
ATOM     28 CL   UNL     1      12.503  12.780  19.828  0.00  0.00    +0.000 Cl
ATOM     29  C   UNL     1      16.463  12.083  21.932  0.00  0.00    +0.000 A 
ATOM     30  C   UNL     1      16.370  13.056  20.924  0.00  0.00    +0.000 A 
ATOM     31  C   UNL     1      15.307  11.383  22.301  0.00  0.00    +0.000 A 
ATOM     32  C   UNL     1      15.157  13.307  20.278  0.00  0.00    +0.000 A 
ATOM     33  C   UNL     1      14.094  11.627  21.654  0.00  0.00    +0.000 A 
ATOM     34  C   UNL     1      14.021  12.580  20.636  0.00  0.00    +0.000 A 
ENDBRANCH  26  29
ENDBRANCH  25  26
ENDBRANCH  23  25
ENDBRANCH   5  24
TORSDOF 5
ENDMDL
MODEL 2
REMARK VINA RESULT:      -5.4     17.723     20.924
REMARK  Name = 155524887
REMARK  9 active torsions:
REMARK  status: ('A' for Active; 'I' for Inactive)
REMARK    1  A    between atoms: O_4  and  N_7
REMARK    2  A    between atoms: O_4  and  C_28
REMARK    3  A    between atoms: C_8  and  C_14
REMARK    4  A    between atoms: C_8  and  C_15
REMARK    5  A    between atoms: C_9  and  C_16
REMARK    6  A    between atoms: C_9  and  C_17
REMARK    7  A    between atoms: C_20  and  C_22
REMARK    8  A    between atoms: C_23  and  C_25
REMARK    9  A    between atoms: C_28  and  C_29
REMARK                            x       y       z     vdW  Elec       q    Type
REMARK                         _______ _______ _______ _____ _____    ______ ____
ROOT
ATOM      1  S   UNL     1      -7.453  13.947  16.786  0.00  0.00    +0.000 S 
ATOM      2  N   UNL     1      -4.775  14.715  17.151  0.00  0.00    +0.000 NA
ATOM      3  N   UNL     1      -6.425  16.061  17.813  0.00  0.00    +0.000 N 
ATOM      4  C   UNL     1      -4.259  15.869  17.733  0.00  0.00    +0.000 A 
ATOM      5  C   UNL     1      -5.279  16.724  18.164  0.00  0.00    +0.000 A 
ATOM      6  C   UNL     1      -6.063  14.892  17.221  0.00  0.00    +0.000 A 
ATOM      7  C   UNL     1      -7.782  16.253  17.957  0.00  0.00    +0.000 A 
ATOM      8  C   UNL     1      -8.486  15.217  17.465  0.00  0.00    +0.000 A 
ENDROOT
BRANCH   4  21
ATOM      9  C   UNL     1      -0.147  15.344  20.537  0.00  0.00    +0.000 C 
ATOM     10  C   UNL     1       1.504  16.573  18.256  0.00  0.00    +0.000 C 
ATOM     11  C   UNL     1       1.340  15.750  20.679  0.00  0.00    +0.000 C 
ATOM     12  C   UNL     1       2.116  15.702  19.374  0.00  0.00    +0.000 C 
ATOM     13  C   UNL     1      -0.777  15.852  19.236  0.00  0.00    +0.000 A 
ATOM     14  C   UNL     1      -0.018  16.429  18.197  0.00  0.00    +0.000 A 
ATOM     15  C   UNL     1      -0.283  13.803  20.579  0.00  0.00    +0.000 C 
ATOM     16  C   UNL     1      -0.873  15.929  21.773  0.00  0.00    +0.000 C 
ATOM     17  C   UNL     1       2.146  16.080  16.932  0.00  0.00    +0.000 C 
ATOM     18  C   UNL     1       1.879  18.058  18.447  0.00  0.00    +0.000 C 
ATOM     19  C   UNL     1      -2.171  15.679  19.040  0.00  0.00    +0.000 A 
ATOM     20  C   UNL     1      -0.690  16.861  17.037  0.00  0.00    +0.000 A 
ATOM     21  C   UNL     1      -2.820  16.073  17.864  0.00  0.00    +0.000 A 
ATOM     22  C   UNL     1      -2.054  16.643  16.857  0.00  0.00    +0.000 A 
ENDBRANCH   4  21
BRANCH   5  24
ATOM     23  N   UNL     1      -5.313  17.976  20.157  0.00  0.00    +0.000 NA
ATOM     24  C   UNL     1      -5.259  17.971  18.869  0.00  0.00    +0.000 C 
BRANCH  23  25
ATOM     25  O   UNL     1      -5.245  19.283  20.644  0.00  0.00    +0.000 OA
BRANCH  25  26
ATOM     26  C   UNL     1      -4.231  19.973  19.907  0.00  0.00    +0.000 C 
BRANCH  26  29
ATOM     27 CL   UNL     1      -1.601  19.494  24.373  0.00  0.00    +0.000 Cl
ATOM     28 CL   UNL     1       1.067  18.921  22.597  0.00  0.00    +0.000 Cl
ATOM     29  C   UNL     1      -2.904  19.848  20.607  0.00  0.00    +0.000 A 
ATOM     30  C   UNL     1      -2.819  19.804  22.007  0.00  0.00    +0.000 A 
ATOM     31  C   UNL     1      -1.739  19.653  19.855  0.00  0.00    +0.000 A 
ATOM     32  C   UNL     1      -1.604  19.546  22.645  0.00  0.00    +0.000 A 
ATOM     33  C   UNL     1      -0.523  19.389  20.488  0.00  0.00    +0.000 A 
ATOM     34  C   UNL     1      -0.457  19.324  21.882  0.00  0.00    +0.000 A 
ENDBRANCH  26  29
ENDBRANCH  25  26
ENDBRANCH  23  25
ENDBRANCH   5  24
TORSDOF 5
ENDMDL
MODEL 3
REMARK VINA RESULT:      -5.3      5.308      7.237
REMARK  Name = 155524887
REMARK  9 active torsions:
REMARK  status: ('A' for Active; 'I' for Inactive)
REMARK    1  A    between atoms: O_4  and  N_7
REMARK    2  A    between atoms: O_4  and  C_28
REMARK    3  A    between atoms: C_8  and  C_14
REMARK    4  A    between atoms: C_8  and  C_15
REMARK    5  A    between atoms: C_9  and  C_16
REMARK    6  A    between atoms: C_9  and  C_17
REMARK    7  A    between atoms: C_20  and  C_22
REMARK    8  A    between atoms: C_23  and  C_25
REMARK    9  A    between atoms: C_28  and  C_29
REMARK                            x       y       z     vdW  Elec       q    Type
REMARK                         _______ _______ _______ _____ _____    ______ ____
ROOT
ATOM      1  S   UNL     1      14.852  12.568  27.026  0.00  0.00    +0.000 S 
ATOM      2  N   UNL     1      14.725  11.205  24.572  0.00  0.00    +0.000 NA
ATOM      3  N   UNL     1      13.281  12.844  25.018  0.00  0.00    +0.000 N 
ATOM      4  C   UNL     1      13.863  11.401  23.497  0.00  0.00    +0.000 A 
ATOM      5  C   UNL     1      12.954  12.433  23.752  0.00  0.00    +0.000 A 
ATOM      6  C   UNL     1      14.324  12.084  25.444  0.00  0.00    +0.000 A 
ATOM      7  C   UNL     1      12.870  13.826  25.894  0.00  0.00    +0.000 A 
ATOM      8  C   UNL     1      13.603  13.825  27.021  0.00  0.00    +0.000 A 
ENDROOT
BRANCH   4  21
ATOM      9  C   UNL     1      12.002   7.737  20.641  0.00  0.00    +0.000 C 
ATOM     10  C   UNL     1      14.231   8.268  18.595  0.00  0.00    +0.000 C 
ATOM     11  C   UNL     1      12.286   6.819  19.427  0.00  0.00    +0.000 C 
ATOM     12  C   UNL     1      12.915   7.540  18.247  0.00  0.00    +0.000 C 
ATOM     13  C   UNL     1      13.099   8.783  20.861  0.00  0.00    +0.000 A 
ATOM     14  C   UNL     1      14.130   9.014  19.927  0.00  0.00    +0.000 A 
ATOM     15  C   UNL     1      10.654   8.472  20.446  0.00  0.00    +0.000 C 
ATOM     16  C   UNL     1      11.870   6.801  21.867  0.00  0.00    +0.000 C 
ATOM     17  C   UNL     1      14.486   9.266  17.434  0.00  0.00    +0.000 C 
ATOM     18  C   UNL     1      15.413   7.276  18.643  0.00  0.00    +0.000 C 
ATOM     19  C   UNL     1      13.044   9.596  22.022  0.00  0.00    +0.000 A 
ATOM     20  C   UNL     1      15.089  10.002  20.220  0.00  0.00    +0.000 A 
ATOM     21  C   UNL     1      13.978  10.605  22.279  0.00  0.00    +0.000 A 
ATOM     22  C   UNL     1      14.986  10.812  21.348  0.00  0.00    +0.000 A 
ENDBRANCH   4  21
BRANCH   5  24
ATOM     23  N   UNL     1      12.131  14.220  22.460  0.00  0.00    +0.000 NA
ATOM     24  C   UNL     1      11.937  13.043  22.950  0.00  0.00    +0.000 C 
BRANCH  23  25
ATOM     25  O   UNL     1      11.040  14.613  21.684  0.00  0.00    +0.000 OA
BRANCH  25  26
ATOM     26  C   UNL     1       9.874  13.973  22.211  0.00  0.00    +0.000 C 
BRANCH  26  29
ATOM     27 CL   UNL     1       9.248  18.333  24.986  0.00  0.00    +0.000 Cl
ATOM     28 CL   UNL     1       6.129  18.332  24.053  0.00  0.00    +0.000 Cl
ATOM     29  C   UNL     1       8.939  14.998  22.796  0.00  0.00    +0.000 A 
ATOM     30  C   UNL     1       9.416  16.048  23.597  0.00  0.00    +0.000 A 
ATOM     31  C   UNL     1       7.583  14.980  22.447  0.00  0.00    +0.000 A 
ATOM     32  C   UNL     1       8.566  17.073  24.018  0.00  0.00    +0.000 A 
ATOM     33  C   UNL     1       6.731  16.007  22.861  0.00  0.00    +0.000 A 
ATOM     34  C   UNL     1       7.224  17.058  23.637  0.00  0.00    +0.000 A 
ENDBRANCH  26  29
ENDBRANCH  25  26
ENDBRANCH  23  25
ENDBRANCH   5  24
TORSDOF 5
ENDMDL
MODEL 4
REMARK VINA RESULT:      -5.3     28.290     30.794
REMARK  Name = 155524887
REMARK  9 active torsions:
REMARK  status: ('A' for Active; 'I' for Inactive)
REMARK    1  A    between atoms: O_4  and  N_7
REMARK    2  A    between atoms: O_4  and  C_28
REMARK    3  A    between atoms: C_8  and  C_14
REMARK    4  A    between atoms: C_8  and  C_15
REMARK    5  A    between atoms: C_9  and  C_16
REMARK    6  A    between atoms: C_9  and  C_17
REMARK    7  A    between atoms: C_20  and  C_22
REMARK    8  A    between atoms: C_23  and  C_25
REMARK    9  A    between atoms: C_28  and  C_29
REMARK                            x       y       z     vdW  Elec       q    Type
REMARK                         _______ _______ _______ _____ _____    ______ ____
ROOT
ATOM      1  S   UNL     1     -16.622   3.148  23.683  0.00  0.00    +0.000 S 
ATOM      2  N   UNL     1     -15.906   4.785  21.515  0.00  0.00    +0.000 NA
ATOM      3  N   UNL     1     -16.704   5.695  23.388  0.00  0.00    +0.000 N 
ATOM      4  C   UNL     1     -15.949   6.172  21.403  0.00  0.00    +0.000 A 
ATOM      5  C   UNL     1     -16.439   6.764  22.573  0.00  0.00    +0.000 A 
ATOM      6  C   UNL     1     -16.373   4.564  22.709  0.00  0.00    +0.000 A 
ATOM      7  C   UNL     1     -17.147   5.500  24.679  0.00  0.00    +0.000 A 
ATOM      8  C   UNL     1     -17.164   4.195  25.006  0.00  0.00    +0.000 A 
ENDROOT
BRANCH   4  21
ATOM      9  C   UNL     1     -12.210   8.447  18.975  0.00  0.00    +0.000 C 
ATOM     10  C   UNL     1     -14.064   8.793  16.550  0.00  0.00    +0.000 C 
ATOM     11  C   UNL     1     -11.851   9.307  17.739  0.00  0.00    +0.000 C 
ATOM     12  C   UNL     1     -12.524   8.849  16.457  0.00  0.00    +0.000 C 
ATOM     13  C   UNL     1     -13.676   8.001  18.979  0.00  0.00    +0.000 A 
ATOM     14  C   UNL     1     -14.529   8.175  17.870  0.00  0.00    +0.000 A 
ATOM     15  C   UNL     1     -11.314   7.186  19.023  0.00  0.00    +0.000 C 
ATOM     16  C   UNL     1     -11.889   9.317  20.214  0.00  0.00    +0.000 C 
ATOM     17  C   UNL     1     -14.532   7.925  15.351  0.00  0.00    +0.000 C 
ATOM     18  C   UNL     1     -14.677  10.201  16.391  0.00  0.00    +0.000 C 
ATOM     19  C   UNL     1     -14.182   7.330  20.122  0.00  0.00    +0.000 A 
ATOM     20  C   UNL     1     -15.860   7.726  17.972  0.00  0.00    +0.000 A 
ATOM     21  C   UNL     1     -15.494   6.849  20.194  0.00  0.00    +0.000 A 
ATOM     22  C   UNL     1     -16.317   7.036  19.092  0.00  0.00    +0.000 A 
ENDBRANCH   4  21
BRANCH   5  24
ATOM     23  N   UNL     1     -15.604   8.777  23.461  0.00  0.00    +0.000 NA
ATOM     24  C   UNL     1     -16.603   8.131  22.966  0.00  0.00    +0.000 C 
BRANCH  23  25
ATOM     25  O   UNL     1     -15.965  10.096  23.743  0.00  0.00    +0.000 OA
BRANCH  25  26
ATOM     26  C   UNL     1     -14.910  10.947  23.283  0.00  0.00    +0.000 C 
BRANCH  26  29
ATOM     27 CL   UNL     1     -13.370  10.408  28.226  0.00  0.00    +0.000 Cl
ATOM     28 CL   UNL     1     -10.299  10.517  27.152  0.00  0.00    +0.000 Cl
ATOM     29  C   UNL     1     -13.789  10.971  24.288  0.00  0.00    +0.000 A 
ATOM     30  C   UNL     1     -14.030  10.779  25.657  0.00  0.00    +0.000 A 
ATOM     31  C   UNL     1     -12.463  11.071  23.845  0.00  0.00    +0.000 A 
ATOM     32  C   UNL     1     -12.974  10.662  26.563  0.00  0.00    +0.000 A 
ATOM     33  C   UNL     1     -11.404  10.948  24.747  0.00  0.00    +0.000 A 
ATOM     34  C   UNL     1     -11.659  10.732  26.103  0.00  0.00    +0.000 A 
ENDBRANCH  26  29
ENDBRANCH  25  26
ENDBRANCH  23  25
ENDBRANCH   5  24
TORSDOF 5
ENDMDL
MODEL 5
REMARK VINA RESULT:      -5.2     28.278     32.117
REMARK  Name = 155524887
REMARK  9 active torsions:
REMARK  status: ('A' for Active; 'I' for Inactive)
REMARK    1  A    between atoms: O_4  and  N_7
REMARK    2  A    between atoms: O_4  and  C_28
REMARK    3  A    between atoms: C_8  and  C_14
REMARK    4  A    between atoms: C_8  and  C_15
REMARK    5  A    between atoms: C_9  and  C_16
REMARK    6  A    between atoms: C_9  and  C_17
REMARK    7  A    between atoms: C_20  and  C_22
REMARK    8  A    between atoms: C_23  and  C_25
REMARK    9  A    between atoms: C_28  and  C_29
REMARK                            x       y       z     vdW  Elec       q    Type
REMARK                         _______ _______ _______ _____ _____    ______ ____
ROOT
ATOM      1  S   UNL     1     -20.357   7.936  18.696  0.00  0.00    +0.000 S 
ATOM      2  N   UNL     1     -17.636   8.384  18.156  0.00  0.00    +0.000 NA
ATOM      3  N   UNL     1     -18.238   7.116  19.888  0.00  0.00    +0.000 N 
ATOM      4  C   UNL     1     -16.512   7.901  18.820  0.00  0.00    +0.000 A 
ATOM      5  C   UNL     1     -16.869   7.094  19.906  0.00  0.00    +0.000 A 
ATOM      6  C   UNL     1     -18.627   7.891  18.840  0.00  0.00    +0.000 A 
ATOM      7  C   UNL     1     -19.263   6.528  20.599  0.00  0.00    +0.000 A 
ATOM      8  C   UNL     1     -20.467   6.857  20.097  0.00  0.00    +0.000 A 
ENDROOT
BRANCH   4  21
ATOM      9  C   UNL     1     -11.753   8.883  20.015  0.00  0.00    +0.000 C 
ATOM     10  C   UNL     1     -11.095   9.079  17.021  0.00  0.00    +0.000 C 
ATOM     11  C   UNL     1     -10.397   9.391  19.468  0.00  0.00    +0.000 C 
ATOM     12  C   UNL     1     -10.031   8.820  18.109  0.00  0.00    +0.000 C 
ATOM     13  C   UNL     1     -12.814   8.735  18.920  0.00  0.00    +0.000 A 
ATOM     14  C   UNL     1     -12.512   8.841  17.547  0.00  0.00    +0.000 A 
ATOM     15  C   UNL     1     -11.566   7.510  20.705  0.00  0.00    +0.000 C 
ATOM     16  C   UNL     1     -12.197   9.908  21.087  0.00  0.00    +0.000 C 
ATOM     17  C   UNL     1     -10.773   8.093  15.866  0.00  0.00    +0.000 C 
ATOM     18  C   UNL     1     -10.981  10.517  16.470  0.00  0.00    +0.000 C 
ATOM     19  C   UNL     1     -14.144   8.417  19.297  0.00  0.00    +0.000 A 
ATOM     20  C   UNL     1     -13.557   8.684  16.617  0.00  0.00    +0.000 A 
ATOM     21  C   UNL     1     -15.165   8.220  18.360  0.00  0.00    +0.000 A 
ATOM     22  C   UNL     1     -14.845   8.334  17.015  0.00  0.00    +0.000 A 
ENDBRANCH   4  21
BRANCH   5  24
ATOM     23  N   UNL     1     -15.887   5.075  20.614  0.00  0.00    +0.000 NA
ATOM     24  C   UNL     1     -16.092   6.328  20.835  0.00  0.00    +0.000 C 
BRANCH  23  25
ATOM     25  O   UNL     1     -15.082   4.527  21.614  0.00  0.00    +0.000 OA
BRANCH  25  26
ATOM     26  C   UNL     1     -15.528   5.048  22.870  0.00  0.00    +0.000 C 
BRANCH  26  29
ATOM     27 CL   UNL     1     -15.815   3.016  27.653  0.00  0.00    +0.000 Cl
ATOM     28 CL   UNL     1     -17.885   0.806  26.456  0.00  0.00    +0.000 Cl
ATOM     29  C   UNL     1     -15.990   3.927  23.761  0.00  0.00    +0.000 A 
ATOM     30  C   UNL     1     -15.685   3.910  25.131  0.00  0.00    +0.000 A 
ATOM     31  C   UNL     1     -16.839   2.938  23.248  0.00  0.00    +0.000 A 
ATOM     32  C   UNL     1     -16.235   2.945  25.978  0.00  0.00    +0.000 A 
ATOM     33  C   UNL     1     -17.396   1.975  24.093  0.00  0.00    +0.000 A 
ATOM     34  C   UNL     1     -17.103   1.985  25.458  0.00  0.00    +0.000 A 
ENDBRANCH  26  29
ENDBRANCH  25  26
ENDBRANCH  23  25
ENDBRANCH   5  24
TORSDOF 5
ENDMDL
MODEL 6
REMARK VINA RESULT:      -5.1     19.969     22.883
REMARK  Name = 155524887
REMARK  9 active torsions:
REMARK  status: ('A' for Active; 'I' for Inactive)
REMARK    1  A    between atoms: O_4  and  N_7
REMARK    2  A    between atoms: O_4  and  C_28
REMARK    3  A    between atoms: C_8  and  C_14
REMARK    4  A    between atoms: C_8  and  C_15
REMARK    5  A    between atoms: C_9  and  C_16
REMARK    6  A    between atoms: C_9  and  C_17
REMARK    7  A    between atoms: C_20  and  C_22
REMARK    8  A    between atoms: C_23  and  C_25
REMARK    9  A    between atoms: C_28  and  C_29
REMARK                            x       y       z     vdW  Elec       q    Type
REMARK                         _______ _______ _______ _____ _____    ______ ____
ROOT
ATOM      1  S   UNL     1      -1.425   8.298  37.889  0.00  0.00    +0.000 S 
ATOM      2  N   UNL     1      -0.281  10.581  36.718  0.00  0.00    +0.000 NA
ATOM      3  N   UNL     1      -2.482  10.247  36.600  0.00  0.00    +0.000 N 
ATOM      4  C   UNL     1      -0.897  11.630  36.041  0.00  0.00    +0.000 A 
ATOM      5  C   UNL     1      -2.282  11.444  35.964  0.00  0.00    +0.000 A 
ATOM      6  C   UNL     1      -1.271   9.791  37.017  0.00  0.00    +0.000 A 
ATOM      7  C   UNL     1      -3.560   9.464  36.952  0.00  0.00    +0.000 A 
ATOM      8  C   UNL     1      -3.179   8.379  37.650  0.00  0.00    +0.000 A 
ENDROOT
BRANCH   4  21
ATOM      9  C   UNL     1       1.015  14.001  32.070  0.00  0.00    +0.000 C 
ATOM     10  C   UNL     1       2.091  16.177  33.952  0.00  0.00    +0.000 C 
ATOM     11  C   UNL     1       1.985  15.119  31.619  0.00  0.00    +0.000 C 
ATOM     12  C   UNL     1       1.876  16.393  32.439  0.00  0.00    +0.000 C 
ATOM     13  C   UNL     1       0.853  13.938  33.592  0.00  0.00    +0.000 A 
ATOM     14  C   UNL     1       1.361  14.930  34.455  0.00  0.00    +0.000 A 
ATOM     15  C   UNL     1      -0.380  14.221  31.437  0.00  0.00    +0.000 C 
ATOM     16  C   UNL     1       1.595  12.677  31.516  0.00  0.00    +0.000 C 
ATOM     17  C   UNL     1       1.534  17.448  34.648  0.00  0.00    +0.000 C 
ATOM     18  C   UNL     1       3.595  16.069  34.285  0.00  0.00    +0.000 C 
ATOM     19  C   UNL     1       0.108  12.869  34.155  0.00  0.00    +0.000 A 
ATOM     20  C   UNL     1       1.156  14.783  35.840  0.00  0.00    +0.000 A 
ATOM     21  C   UNL     1      -0.126  12.758  35.531  0.00  0.00    +0.000 A 
ATOM     22  C   UNL     1       0.387  13.745  36.361  0.00  0.00    +0.000 A 
ENDBRANCH   4  21
BRANCH   5  24
ATOM     23  N   UNL     1      -3.668  12.152  34.198  0.00  0.00    +0.000 NA
ATOM     24  C   UNL     1      -3.336  12.259  35.439  0.00  0.00    +0.000 C 
BRANCH  23  25
ATOM     25  O   UNL     1      -4.734  13.003  33.902  0.00  0.00    +0.000 OA
BRANCH  25  26
ATOM     26  C   UNL     1      -4.393  14.312  34.367  0.00  0.00    +0.000 C 
BRANCH  26  29
ATOM     27 CL   UNL     1      -1.412  17.904  32.062  0.00  0.00    +0.000 Cl
ATOM     28 CL   UNL     1      -3.273  17.569  29.412  0.00  0.00    +0.000 Cl
ATOM     29  C   UNL     1      -4.167  15.235  33.199  0.00  0.00    +0.000 A 
ATOM     30  C   UNL     1      -3.074  16.114  33.163  0.00  0.00    +0.000 A 
ATOM     31  C   UNL     1      -4.993  15.140  32.071  0.00  0.00    +0.000 A 
ATOM     32  C   UNL     1      -2.792  16.862  32.018  0.00  0.00    +0.000 A 
ATOM     33  C   UNL     1      -4.710  15.883  30.922  0.00  0.00    +0.000 A 
ATOM     34  C   UNL     1      -3.605  16.735  30.891  0.00  0.00    +0.000 A 
ENDBRANCH  26  29
ENDBRANCH  25  26
ENDBRANCH  23  25
ENDBRANCH   5  24
TORSDOF 5
ENDMDL
MODEL 7
REMARK VINA RESULT:      -5.1     27.855     30.972
REMARK  Name = 155524887
REMARK  9 active torsions:
REMARK  status: ('A' for Active; 'I' for Inactive)
REMARK    1  A    between atoms: O_4  and  N_7
REMARK    2  A    between atoms: O_4  and  C_28
REMARK    3  A    between atoms: C_8  and  C_14
REMARK    4  A    between atoms: C_8  and  C_15
REMARK    5  A    between atoms: C_9  and  C_16
REMARK    6  A    between atoms: C_9  and  C_17
REMARK    7  A    between atoms: C_20  and  C_22
REMARK    8  A    between atoms: C_23  and  C_25
REMARK    9  A    between atoms: C_28  and  C_29
REMARK                            x       y       z     vdW  Elec       q    Type
REMARK                         _______ _______ _______ _____ _____    ______ ____
ROOT
ATOM      1  S   UNL     1     -10.791   9.541  18.297  0.00  0.00    +0.000 S 
ATOM      2  N   UNL     1     -12.285  10.022  20.628  0.00  0.00    +0.000 NA
ATOM      3  N   UNL     1     -12.054   7.943  19.856  0.00  0.00    +0.000 N 
ATOM      4  C   UNL     1     -12.942   9.118  21.458  0.00  0.00    +0.000 A 
ATOM      5  C   UNL     1     -12.801   7.805  20.997  0.00  0.00    +0.000 A 
ATOM      6  C   UNL     1     -11.786   9.266  19.693  0.00  0.00    +0.000 A 
ATOM      7  C   UNL     1     -11.490   7.107  18.916  0.00  0.00    +0.000 A 
ATOM      8  C   UNL     1     -10.776   7.793  18.006  0.00  0.00    +0.000 A 
ENDROOT
BRANCH   4  21
ATOM      9  C   UNL     1     -12.762  11.644  25.774  0.00  0.00    +0.000 C 
ATOM     10  C   UNL     1     -15.734  11.001  26.216  0.00  0.00    +0.000 C 
ATOM     11  C   UNL     1     -13.512  11.929  27.098  0.00  0.00    +0.000 C 
ATOM     12  C   UNL     1     -15.003  12.163  26.920  0.00  0.00    +0.000 C 
ATOM     13  C   UNL     1     -13.578  10.780  24.807  0.00  0.00    +0.000 A 
ATOM     14  C   UNL     1     -14.938  10.474  25.020  0.00  0.00    +0.000 A 
ATOM     15  C   UNL     1     -12.411  12.975  25.066  0.00  0.00    +0.000 C 
ATOM     16  C   UNL     1     -11.441  10.942  26.170  0.00  0.00    +0.000 C 
ATOM     17  C   UNL     1     -17.097  11.575  25.748  0.00  0.00    +0.000 C 
ATOM     18  C   UNL     1     -16.013   9.847  27.204  0.00  0.00    +0.000 C 
ATOM     19  C   UNL     1     -12.960  10.319  23.617  0.00  0.00    +0.000 A 
ATOM     20  C   UNL     1     -15.601   9.675  24.069  0.00  0.00    +0.000 A 
ATOM     21  C   UNL     1     -13.643   9.563  22.658  0.00  0.00    +0.000 A 
ATOM     22  C   UNL     1     -14.979   9.270  22.891  0.00  0.00    +0.000 A 
ENDBRANCH   4  21
BRANCH   5  24
ATOM     23  N   UNL     1     -14.346   6.036  21.149  0.00  0.00    +0.000 NA
ATOM     24  C   UNL     1     -13.225   6.544  21.529  0.00  0.00    +0.000 C 
BRANCH  23  25
ATOM     25  O   UNL     1     -14.552   4.796  21.755  0.00  0.00    +0.000 OA
BRANCH  25  26
ATOM     26  C   UNL     1     -14.205   4.921  23.137  0.00  0.00    +0.000 C 
BRANCH  26  29
ATOM     27 CL   UNL     1     -16.662   1.730  26.435  0.00  0.00    +0.000 Cl
ATOM     28 CL   UNL     1     -18.780   4.139  26.994  0.00  0.00    +0.000 Cl
ATOM     29  C   UNL     1     -15.408   4.647  24.001  0.00  0.00    +0.000 A 
ATOM     30  C   UNL     1     -15.544   3.437  24.700  0.00  0.00    +0.000 A 
ATOM     31  C   UNL     1     -16.357   5.656  24.210  0.00  0.00    +0.000 A 
ATOM     32  C   UNL     1     -16.587   3.246  25.608  0.00  0.00    +0.000 A 
ATOM     33  C   UNL     1     -17.399   5.471  25.121  0.00  0.00    +0.000 A 
ATOM     34  C   UNL     1     -17.508   4.272  25.828  0.00  0.00    +0.000 A 
ENDBRANCH  26  29
ENDBRANCH  25  26
ENDBRANCH  23  25
ENDBRANCH   5  24
TORSDOF 5
ENDMDL
MODEL 8
REMARK VINA RESULT:      -5.1     27.811     29.969
REMARK  Name = 155524887
REMARK  9 active torsions:
REMARK  status: ('A' for Active; 'I' for Inactive)
REMARK    1  A    between atoms: O_4  and  N_7
REMARK    2  A    between atoms: O_4  and  C_28
REMARK    3  A    between atoms: C_8  and  C_14
REMARK    4  A    between atoms: C_8  and  C_15
REMARK    5  A    between atoms: C_9  and  C_16
REMARK    6  A    between atoms: C_9  and  C_17
REMARK    7  A    between atoms: C_20  and  C_22
REMARK    8  A    between atoms: C_23  and  C_25
REMARK    9  A    between atoms: C_28  and  C_29
REMARK                            x       y       z     vdW  Elec       q    Type
REMARK                         _______ _______ _______ _____ _____    ______ ____
ROOT
ATOM      1  S   UNL     1     -12.066  10.014  12.850  0.00  0.00    +0.000 S 
ATOM      2  N   UNL     1     -12.826  10.889  15.410  0.00  0.00    +0.000 NA
ATOM      3  N   UNL     1     -11.653   9.007  15.173  0.00  0.00    +0.000 N 
ATOM      4  C   UNL     1     -12.562  10.318  16.653  0.00  0.00    +0.000 A 
ATOM      5  C   UNL     1     -11.819   9.140  16.526  0.00  0.00    +0.000 A 
ATOM      6  C   UNL     1     -12.268  10.061  14.574  0.00  0.00    +0.000 A 
ATOM      7  C   UNL     1     -11.001   8.142  14.320  0.00  0.00    +0.000 A 
ATOM      8  C   UNL     1     -11.116   8.530  13.037  0.00  0.00    +0.000 A 
ENDROOT
BRANCH   4  21
ATOM      9  C   UNL     1     -16.373  11.335  19.734  0.00  0.00    +0.000 C 
ATOM     10  C   UNL     1     -14.402  12.740  21.625  0.00  0.00    +0.000 C 
ATOM     11  C   UNL     1     -16.812  12.174  20.958  0.00  0.00    +0.000 C 
ATOM     12  C   UNL     1     -15.782  12.215  22.074  0.00  0.00    +0.000 C 
ATOM     13  C   UNL     1     -14.882  11.490  19.415  0.00  0.00    +0.000 A 
ATOM     14  C   UNL     1     -13.983  12.149  20.278  0.00  0.00    +0.000 A 
ATOM     15  C   UNL     1     -16.667   9.836  19.983  0.00  0.00    +0.000 C 
ATOM     16  C   UNL     1     -17.249  11.810  18.549  0.00  0.00    +0.000 C 
ATOM     17  C   UNL     1     -13.403  12.317  22.736  0.00  0.00    +0.000 C 
ATOM     18  C   UNL     1     -14.400  14.281  21.540  0.00  0.00    +0.000 C 
ATOM     19  C   UNL     1     -14.372  10.895  18.233  0.00  0.00    +0.000 A 
ATOM     20  C   UNL     1     -12.630  12.235  19.896  0.00  0.00    +0.000 A 
ATOM     21  C   UNL     1     -13.017  10.949  17.887  0.00  0.00    +0.000 A 
ATOM     22  C   UNL     1     -12.151  11.606  18.749  0.00  0.00    +0.000 A 
ENDBRANCH   4  21
BRANCH   5  24
ATOM     23  N   UNL     1     -12.031   7.512  18.213  0.00  0.00    +0.000 NA
ATOM     24  C   UNL     1     -11.254   8.247  17.494  0.00  0.00    +0.000 C 
BRANCH  23  25
ATOM     25  O   UNL     1     -11.284   6.694  19.061  0.00  0.00    +0.000 OA
BRANCH  25  26
ATOM     26  C   UNL     1     -11.152   7.367  20.316  0.00  0.00    +0.000 C 
BRANCH  26  29
ATOM     27 CL   UNL     1     -15.210   4.909  22.459  0.00  0.00    +0.000 Cl
ATOM     28 CL   UNL     1     -16.236   7.805  23.538  0.00  0.00    +0.000 Cl
ATOM     29  C   UNL     1     -12.490   7.456  21.000  0.00  0.00    +0.000 A 
ATOM     30  C   UNL     1     -13.220   6.303  21.329  0.00  0.00    +0.000 A 
ATOM     31  C   UNL     1     -12.972   8.701  21.424  0.00  0.00    +0.000 A 
ATOM     32  C   UNL     1     -14.390   6.385  22.088  0.00  0.00    +0.000 A 
ATOM     33  C   UNL     1     -14.138   8.787  22.188  0.00  0.00    +0.000 A 
ATOM     34  C   UNL     1     -14.840   7.630  22.529  0.00  0.00    +0.000 A 
ENDBRANCH  26  29
ENDBRANCH  25  26
ENDBRANCH  23  25
ENDBRANCH   5  24
TORSDOF 5
ENDMDL
MODEL 9
REMARK VINA RESULT:      -5.1     27.703     30.572
REMARK  Name = 155524887
REMARK  9 active torsions:
REMARK  status: ('A' for Active; 'I' for Inactive)
REMARK    1  A    between atoms: O_4  and  N_7
REMARK    2  A    between atoms: O_4  and  C_28
REMARK    3  A    between atoms: C_8  and  C_14
REMARK    4  A    between atoms: C_8  and  C_15
REMARK    5  A    between atoms: C_9  and  C_16
REMARK    6  A    between atoms: C_9  and  C_17
REMARK    7  A    between atoms: C_20  and  C_22
REMARK    8  A    between atoms: C_23  and  C_25
REMARK    9  A    between atoms: C_28  and  C_29
REMARK                            x       y       z     vdW  Elec       q    Type
REMARK                         _______ _______ _______ _____ _____    ______ ____
ROOT
ATOM      1  S   UNL     1      -5.370   2.734  46.262  0.00  0.00    +0.000 S 
ATOM      2  N   UNL     1      -4.525   4.390  44.155  0.00  0.00    +0.000 NA
ATOM      3  N   UNL     1      -6.675   4.337  44.743  0.00  0.00    +0.000 N 
ATOM      4  C   UNL     1      -5.268   5.263  43.365  0.00  0.00    +0.000 A 
ATOM      5  C   UNL     1      -6.620   5.252  43.725  0.00  0.00    +0.000 A 
ATOM      6  C   UNL     1      -5.416   3.866  44.946  0.00  0.00    +0.000 A 
ATOM      7  C   UNL     1      -7.634   3.847  45.604  0.00  0.00    +0.000 A 
ATOM      8  C   UNL     1      -7.111   2.977  46.487  0.00  0.00    +0.000 A 
ENDROOT
BRANCH   4  21
ATOM      9  C   UNL     1      -1.248   6.085  40.500  0.00  0.00    +0.000 C 
ATOM     10  C   UNL     1      -2.738   8.417  39.167  0.00  0.00    +0.000 C 
ATOM     11  C   UNL     1      -0.575   7.090  39.533  0.00  0.00    +0.000 C 
ATOM     12  C   UNL     1      -1.531   7.702  38.524  0.00  0.00    +0.000 C 
ATOM     13  C   UNL     1      -2.654   6.522  40.922  0.00  0.00    +0.000 A 
ATOM     14  C   UNL     1      -3.330   7.602  40.319  0.00  0.00    +0.000 A 
ATOM     15  C   UNL     1      -1.347   4.692  39.834  0.00  0.00    +0.000 C 
ATOM     16  C   UNL     1      -0.309   5.971  41.725  0.00  0.00    +0.000 C 
ATOM     17  C   UNL     1      -3.784   8.590  38.033  0.00  0.00    +0.000 C 
ATOM     18  C   UNL     1      -2.342   9.821  39.673  0.00  0.00    +0.000 C 
ATOM     19  C   UNL     1      -3.332   5.773  41.918  0.00  0.00    +0.000 A 
ATOM     20  C   UNL     1      -4.623   7.923  40.775  0.00  0.00    +0.000 A 
ATOM     21  C   UNL     1      -4.634   6.074  42.331  0.00  0.00    +0.000 A 
ATOM     22  C   UNL     1      -5.278   7.144  41.727  0.00  0.00    +0.000 A 
ENDBRANCH   4  21
BRANCH   5  24
ATOM     23  N   UNL     1      -8.106   7.068  43.909  0.00  0.00    +0.000 NA
ATOM     24  C   UNL     1      -7.746   6.010  43.267  0.00  0.00    +0.000 C 
BRANCH  23  25
ATOM     25  O   UNL     1      -9.195   7.675  43.281  0.00  0.00    +0.000 OA
BRANCH  25  26
ATOM     26  C   UNL     1      -8.759   8.938  42.771  0.00  0.00    +0.000 C 
BRANCH  26  29
ATOM     27 CL   UNL     1      -6.804  10.471  38.196  0.00  0.00    +0.000 Cl
ATOM     28 CL   UNL     1      -8.969   8.513  36.755  0.00  0.00    +0.000 Cl
ATOM     29  C   UNL     1      -8.871   8.959  41.270  0.00  0.00    +0.000 A 
ATOM     30  C   UNL     1      -7.957   9.671  40.478  0.00  0.00    +0.000 A 
ATOM     31  C   UNL     1      -9.833   8.162  40.635  0.00  0.00    +0.000 A 
ATOM     32  C   UNL     1      -7.982   9.571  39.086  0.00  0.00    +0.000 A 
ATOM     33  C   UNL     1      -9.857   8.054  39.243  0.00  0.00    +0.000 A 
ATOM     34  C   UNL     1      -8.926   8.749  38.469  0.00  0.00    +0.000 A 
ENDBRANCH  26  29
ENDBRANCH  25  26
ENDBRANCH  23  25
ENDBRANCH   5  24
TORSDOF 5
ENDMDL
MODEL 10
REMARK VINA RESULT:      -5.0      5.696      7.885
REMARK  Name = 155524887
REMARK  9 active torsions:
REMARK  status: ('A' for Active; 'I' for Inactive)
REMARK    1  A    between atoms: O_4  and  N_7
REMARK    2  A    between atoms: O_4  and  C_28
REMARK    3  A    between atoms: C_8  and  C_14
REMARK    4  A    between atoms: C_8  and  C_15
REMARK    5  A    between atoms: C_9  and  C_16
REMARK    6  A    between atoms: C_9  and  C_17
REMARK    7  A    between atoms: C_20  and  C_22
REMARK    8  A    between atoms: C_23  and  C_25
REMARK    9  A    between atoms: C_28  and  C_29
REMARK                            x       y       z     vdW  Elec       q    Type
REMARK                         _______ _______ _______ _____ _____    ______ ____
ROOT
ATOM      1  S   UNL     1      14.015  13.111  26.626  0.00  0.00    +0.000 S 
ATOM      2  N   UNL     1      13.792  11.836  24.131  0.00  0.00    +0.000 NA
ATOM      3  N   UNL     1      12.459  13.552  24.634  0.00  0.00    +0.000 N 
ATOM      4  C   UNL     1      12.942  12.122  23.066  0.00  0.00    +0.000 A 
ATOM      5  C   UNL     1      12.103  13.202  23.358  0.00  0.00    +0.000 A 
ATOM      6  C   UNL     1      13.452  12.712  25.032  0.00  0.00    +0.000 A 
ATOM      7  C   UNL     1      12.115  14.530  25.542  0.00  0.00    +0.000 A 
ATOM      8  C   UNL     1      12.850  14.446  26.665  0.00  0.00    +0.000 A 
ENDROOT
BRANCH   4  21
ATOM      9  C   UNL     1      13.629   7.687  20.851  0.00  0.00    +0.000 C 
ATOM     10  C   UNL     1      13.094   9.019  18.135  0.00  0.00    +0.000 C 
ATOM     11  C   UNL     1      13.854   6.980  19.492  0.00  0.00    +0.000 C 
ATOM     12  C   UNL     1      12.963   7.500  18.377  0.00  0.00    +0.000 C 
ATOM     13  C   UNL     1      13.364   9.188  20.699  0.00  0.00    +0.000 A 
ATOM     14  C   UNL     1      13.134   9.800  19.450  0.00  0.00    +0.000 A 
ATOM     15  C   UNL     1      12.429   7.049  21.589  0.00  0.00    +0.000 C 
ATOM     16  C   UNL     1      14.906   7.428  21.687  0.00  0.00    +0.000 C 
ATOM     17  C   UNL     1      11.850   9.426  17.300  0.00  0.00    +0.000 C 
ATOM     18  C   UNL     1      14.355   9.337  17.303  0.00  0.00    +0.000 C 
ATOM     19  C   UNL     1      13.285   9.989  21.868  0.00  0.00    +0.000 A 
ATOM     20  C   UNL     1      12.895  11.187  19.416  0.00  0.00    +0.000 A 
ATOM     21  C   UNL     1      13.003  11.359  21.824  0.00  0.00    +0.000 A 
ATOM     22  C   UNL     1      12.784  11.939  20.583  0.00  0.00    +0.000 A 
ENDBRANCH   4  21
BRANCH   5  24
ATOM     23  N   UNL     1      11.356  15.115  22.208  0.00  0.00    +0.000 NA
ATOM     24  C   UNL     1      11.126  13.902  22.579  0.00  0.00    +0.000 C 
BRANCH  23  25
ATOM     25  O   UNL     1      10.301  15.598  21.433  0.00  0.00    +0.000 OA
BRANCH  25  26
ATOM     26  C   UNL     1       9.383  14.521  21.223  0.00  0.00    +0.000 C 
BRANCH  26  29
ATOM     27 CL   UNL     1       5.663  16.900  23.981  0.00  0.00    +0.000 Cl
ATOM     28 CL   UNL     1       3.881  17.001  21.258  0.00  0.00    +0.000 Cl
ATOM     29  C   UNL     1       7.966  15.025  21.299  0.00  0.00    +0.000 A 
ATOM     30  C   UNL     1       7.459  15.604  22.473  0.00  0.00    +0.000 A 
ATOM     31  C   UNL     1       7.167  15.027  20.148  0.00  0.00    +0.000 A 
ATOM     32  C   UNL     1       6.194  16.196  22.494  0.00  0.00    +0.000 A 
ATOM     33  C   UNL     1       5.905  15.623  20.163  0.00  0.00    +0.000 A 
ATOM     34  C   UNL     1       5.423  16.217  21.331  0.00  0.00    +0.000 A 
ENDBRANCH  26  29
ENDBRANCH  25  26
ENDBRANCH  23  25
ENDBRANCH   5  24
TORSDOF 5
ENDMDL
