MODEL 1
REMARK VINA RESULT:      -6.6      0.000      0.000
REMARK  Name = 155524131
REMARK  6 active torsions:
REMARK  status: ('A' for Active; 'I' for Inactive)
REMARK    1  A    between atoms: O_4  and  N_7
REMARK    2  A    between atoms: O_4  and  C_26
REMARK    3  A    between atoms: C_8  and  C_14
REMARK    4  A    between atoms: C_19  and  C_20
REMARK    5  A    between atoms: C_21  and  C_24
REMARK    6  A    between atoms: C_26  and  C_27
REMARK                            x       y       z     vdW  Elec       q    Type
REMARK                         _______ _______ _______ _____ _____    ______ ____
ROOT
ATOM      1  S   UNL     1      11.352  15.584  23.317  0.00  0.00    +0.000 S 
ATOM      2  N   UNL     1      11.504  13.024  23.429  0.00  0.00    +0.000 N 
ATOM      3  N   UNL     1      13.404  13.814  22.565  0.00  0.00    +0.000 NA
ATOM      4  C   UNL     1      13.453  12.429  22.662  0.00  0.00    +0.000 A 
ATOM      5  C   UNL     1      12.263  11.911  23.178  0.00  0.00    +0.000 A 
ATOM      6  C   UNL     1      12.233  14.110  23.052  0.00  0.00    +0.000 A 
ATOM      7  C   UNL     1      10.243  13.307  23.915  0.00  0.00    +0.000 A 
ATOM      8  C   UNL     1       9.995  14.625  23.925  0.00  0.00    +0.000 A 
ENDROOT
BRANCH   4  14
ATOM      9  C   UNL     1      16.899  10.150  21.459  0.00  0.00    +0.000 A 
ATOM     10  C   UNL     1      15.661   9.991  20.828  0.00  0.00    +0.000 A 
ATOM     11  C   UNL     1      17.004  11.098  22.486  0.00  0.00    +0.000 A 
ATOM     12  C   UNL     1      14.548  10.744  21.223  0.00  0.00    +0.000 A 
ATOM     13  C   UNL     1      15.892  11.862  22.869  0.00  0.00    +0.000 A 
ATOM     14  C   UNL     1      14.644  11.674  22.265  0.00  0.00    +0.000 A 
BRANCH   9  15
ATOM     15  C   UNL     1      18.127   9.357  21.038  0.00  0.00    +0.000 C 
ATOM     16  C   UNL     1      17.961   7.861  21.357  0.00  0.00    +0.000 C 
ATOM     17  C   UNL     1      19.424   9.908  21.660  0.00  0.00    +0.000 C 
ATOM     18  C   UNL     1      19.179   7.061  20.903  0.00  0.00    +0.000 C 
ATOM     19  C   UNL     1      20.645   9.085  21.245  0.00  0.00    +0.000 C 
ATOM     20  C   UNL     1      20.458   7.598  21.536  0.00  0.00    +0.000 C 
ENDBRANCH   9  15
ENDBRANCH   4  14
BRANCH   5  22
ATOM     21  N   UNL     1      11.105   9.952  22.595  0.00  0.00    +0.000 NA
ATOM     22  C   UNL     1      11.873  10.561  23.435  0.00  0.00    +0.000 C 
BRANCH  21  23
ATOM     23  O   UNL     1      10.735   8.706  23.120  0.00  0.00    +0.000 OA
BRANCH  23  24
ATOM     24  C   UNL     1      10.425   7.856  22.015  0.00  0.00    +0.000 C 
BRANCH  24  27
ATOM     25 CL   UNL     1      15.035   6.366  20.214  0.00  0.00    +0.000 Cl
ATOM     26 CL   UNL     1      14.208   7.632  17.331  0.00  0.00    +0.000 Cl
ATOM     27  C   UNL     1      11.437   7.971  20.902  0.00  0.00    +0.000 A 
ATOM     28  C   UNL     1      12.678   7.329  21.046  0.00  0.00    +0.000 A 
ATOM     29  C   UNL     1      11.124   8.575  19.679  0.00  0.00    +0.000 A 
ATOM     30  C   UNL     1      13.562   7.231  19.966  0.00  0.00    +0.000 A 
ATOM     31  C   UNL     1      12.010   8.492  18.603  0.00  0.00    +0.000 A 
ATOM     32  C   UNL     1      13.216   7.798  18.736  0.00  0.00    +0.000 A 
ENDBRANCH  24  27
ENDBRANCH  23  24
ENDBRANCH  21  23
ENDBRANCH   5  22
TORSDOF 6
ENDMDL
MODEL 2
REMARK VINA RESULT:      -6.4     24.704     27.141
REMARK  Name = 155524131
REMARK  6 active torsions:
REMARK  status: ('A' for Active; 'I' for Inactive)
REMARK    1  A    between atoms: O_4  and  N_7
REMARK    2  A    between atoms: O_4  and  C_26
REMARK    3  A    between atoms: C_8  and  C_14
REMARK    4  A    between atoms: C_19  and  C_20
REMARK    5  A    between atoms: C_21  and  C_24
REMARK    6  A    between atoms: C_26  and  C_27
REMARK                            x       y       z     vdW  Elec       q    Type
REMARK                         _______ _______ _______ _____ _____    ______ ____
ROOT
ATOM      1  S   UNL     1      -7.478  14.769  14.850  0.00  0.00    +0.000 S 
ATOM      2  N   UNL     1      -9.632  13.391  14.628  0.00  0.00    +0.000 N 
ATOM      3  N   UNL     1      -8.685  12.924  16.594  0.00  0.00    +0.000 NA
ATOM      4  C   UNL     1      -9.869  12.211  16.443  0.00  0.00    +0.000 A 
ATOM      5  C   UNL     1     -10.466  12.471  15.207  0.00  0.00    +0.000 A 
ATOM      6  C   UNL     1      -8.608  13.619  15.496  0.00  0.00    +0.000 A 
ATOM      7  C   UNL     1      -9.556  14.089  13.439  0.00  0.00    +0.000 A 
ATOM      8  C   UNL     1      -8.469  14.873  13.388  0.00  0.00    +0.000 A 
ENDROOT
BRANCH   4  14
ATOM      9  C   UNL     1     -11.327   9.542  19.487  0.00  0.00    +0.000 A 
ATOM     10  C   UNL     1     -10.439   9.108  18.497  0.00  0.00    +0.000 A 
ATOM     11  C   UNL     1     -11.716  10.889  19.484  0.00  0.00    +0.000 A 
ATOM     12  C   UNL     1      -9.965   9.987  17.515  0.00  0.00    +0.000 A 
ATOM     13  C   UNL     1     -11.227  11.772  18.510  0.00  0.00    +0.000 A 
ATOM     14  C   UNL     1     -10.371  11.327  17.496  0.00  0.00    +0.000 A 
BRANCH   9  15
ATOM     15  C   UNL     1     -11.842   8.612  20.573  0.00  0.00    +0.000 C 
ATOM     16  C   UNL     1     -11.751   7.139  20.136  0.00  0.00    +0.000 C 
ATOM     17  C   UNL     1     -13.276   8.962  21.016  0.00  0.00    +0.000 C 
ATOM     18  C   UNL     1     -12.237   6.204  21.241  0.00  0.00    +0.000 C 
ATOM     19  C   UNL     1     -13.787   8.002  22.092  0.00  0.00    +0.000 C 
ATOM     20  C   UNL     1     -13.663   6.543  21.661  0.00  0.00    +0.000 C 
ENDBRANCH   9  15
ENDBRANCH   4  14
BRANCH   5  22
ATOM     21  N   UNL     1     -11.689  10.750  14.177  0.00  0.00    +0.000 NA
ATOM     22  C   UNL     1     -11.669  11.959  14.632  0.00  0.00    +0.000 C 
BRANCH  21  23
ATOM     23  O   UNL     1     -12.911  10.517  13.531  0.00  0.00    +0.000 OA
BRANCH  23  24
ATOM     24  C   UNL     1     -13.218   9.131  13.694  0.00  0.00    +0.000 C 
BRANCH  24  27
ATOM     25 CL   UNL     1     -17.104   6.546  15.916  0.00  0.00    +0.000 Cl
ATOM     26 CL   UNL     1     -15.880   7.392  18.812  0.00  0.00    +0.000 Cl
ATOM     27  C   UNL     1     -13.984   8.860  14.966  0.00  0.00    +0.000 A 
ATOM     28  C   UNL     1     -15.127   8.046  14.908  0.00  0.00    +0.000 A 
ATOM     29  C   UNL     1     -13.510   9.277  16.215  0.00  0.00    +0.000 A 
ATOM     30  C   UNL     1     -15.745   7.599  16.081  0.00  0.00    +0.000 A 
ATOM     31  C   UNL     1     -14.134   8.844  17.388  0.00  0.00    +0.000 A 
ATOM     32  C   UNL     1     -15.233   7.983  17.323  0.00  0.00    +0.000 A 
ENDBRANCH  24  27
ENDBRANCH  23  24
ENDBRANCH  21  23
ENDBRANCH   5  22
TORSDOF 6
ENDMDL
MODEL 3
REMARK VINA RESULT:      -6.3     10.501     14.360
REMARK  Name = 155524131
REMARK  6 active torsions:
REMARK  status: ('A' for Active; 'I' for Inactive)
REMARK    1  A    between atoms: O_4  and  N_7
REMARK    2  A    between atoms: O_4  and  C_26
REMARK    3  A    between atoms: C_8  and  C_14
REMARK    4  A    between atoms: C_19  and  C_20
REMARK    5  A    between atoms: C_21  and  C_24
REMARK    6  A    between atoms: C_26  and  C_27
REMARK                            x       y       z     vdW  Elec       q    Type
REMARK                         _______ _______ _______ _____ _____    ______ ____
ROOT
ATOM      1  S   UNL     1       2.000  20.764  29.719  0.00  0.00    +0.000 S 
ATOM      2  N   UNL     1       0.975  19.923  27.521  0.00  0.00    +0.000 N 
ATOM      3  N   UNL     1       3.114  19.294  27.597  0.00  0.00    +0.000 NA
ATOM      4  C   UNL     1       2.516  18.839  26.428  0.00  0.00    +0.000 A 
ATOM      5  C   UNL     1       1.181  19.243  26.349  0.00  0.00    +0.000 A 
ATOM      6  C   UNL     1       2.148  19.912  28.212  0.00  0.00    +0.000 A 
ATOM      7  C   UNL     1      -0.058  20.604  28.134  0.00  0.00    +0.000 A 
ATOM      8  C   UNL     1       0.313  21.117  29.317  0.00  0.00    +0.000 A 
ENDROOT
BRANCH   4  14
ATOM      9  C   UNL     1       4.730  16.535  23.547  0.00  0.00    +0.000 A 
ATOM     10  C   UNL     1       5.273  17.678  24.143  0.00  0.00    +0.000 A 
ATOM     11  C   UNL     1       3.444  16.134  23.933  0.00  0.00    +0.000 A 
ATOM     12  C   UNL     1       4.547  18.417  25.085  0.00  0.00    +0.000 A 
ATOM     13  C   UNL     1       2.723  16.866  24.889  0.00  0.00    +0.000 A 
ATOM     14  C   UNL     1       3.251  18.032  25.454  0.00  0.00    +0.000 A 
BRANCH   9  15
ATOM     15  C   UNL     1       5.505  15.707  22.534  0.00  0.00    +0.000 C 
ATOM     16  C   UNL     1       7.021  15.789  22.790  0.00  0.00    +0.000 C 
ATOM     17  C   UNL     1       5.175  16.096  21.081  0.00  0.00    +0.000 C 
ATOM     18  C   UNL     1       7.796  14.930  21.794  0.00  0.00    +0.000 C 
ATOM     19  C   UNL     1       5.981  15.269  20.076  0.00  0.00    +0.000 C 
ATOM     20  C   UNL     1       7.480  15.331  20.358  0.00  0.00    +0.000 C 
ENDBRANCH   9  15
ENDBRANCH   4  14
BRANCH   5  22
ATOM     21  N   UNL     1       0.361  19.546  24.168  0.00  0.00    +0.000 NA
ATOM     22  C   UNL     1       0.201  19.015  25.335  0.00  0.00    +0.000 C 
BRANCH  21  23
ATOM     23  O   UNL     1      -0.782  19.315  23.391  0.00  0.00    +0.000 OA
BRANCH  23  24
ATOM     24  C   UNL     1      -1.102  17.927  23.510  0.00  0.00    +0.000 C 
BRANCH  24  27
ATOM     25 CL   UNL     1       0.917  17.931  18.752  0.00  0.00    +0.000 Cl
ATOM     26 CL   UNL     1       1.991  14.910  19.311  0.00  0.00    +0.000 Cl
ATOM     27  C   UNL     1      -0.498  17.104  22.400  0.00  0.00    +0.000 A 
ATOM     28  C   UNL     1      -0.203  17.728  21.177  0.00  0.00    +0.000 A 
ATOM     29  C   UNL     1      -0.093  15.778  22.600  0.00  0.00    +0.000 A 
ATOM     30  C   UNL     1       0.543  17.064  20.197  0.00  0.00    +0.000 A 
ATOM     31  C   UNL     1       0.639  15.108  21.618  0.00  0.00    +0.000 A 
ATOM     32  C   UNL     1       0.982  15.757  20.429  0.00  0.00    +0.000 A 
ENDBRANCH  24  27
ENDBRANCH  23  24
ENDBRANCH  21  23
ENDBRANCH   5  22
TORSDOF 6
ENDMDL
MODEL 4
REMARK VINA RESULT:      -6.2      4.259      9.523
REMARK  Name = 155524131
REMARK  6 active torsions:
REMARK  status: ('A' for Active; 'I' for Inactive)
REMARK    1  A    between atoms: O_4  and  N_7
REMARK    2  A    between atoms: O_4  and  C_26
REMARK    3  A    between atoms: C_8  and  C_14
REMARK    4  A    between atoms: C_19  and  C_20
REMARK    5  A    between atoms: C_21  and  C_24
REMARK    6  A    between atoms: C_26  and  C_27
REMARK                            x       y       z     vdW  Elec       q    Type
REMARK                         _______ _______ _______ _____ _____    ______ ____
ROOT
ATOM      1  S   UNL     1      12.586  17.199  17.770  0.00  0.00    +0.000 S 
ATOM      2  N   UNL     1      11.806  15.328  19.345  0.00  0.00    +0.000 N 
ATOM      3  N   UNL     1      10.429  17.070  19.568  0.00  0.00    +0.000 NA
ATOM      4  C   UNL     1      10.028  16.025  20.392  0.00  0.00    +0.000 A 
ATOM      5  C   UNL     1      10.891  14.932  20.286  0.00  0.00    +0.000 A 
ATOM      6  C   UNL     1      11.475  16.592  18.960  0.00  0.00    +0.000 A 
ATOM      7  C   UNL     1      12.934  14.810  18.741  0.00  0.00    +0.000 A 
ATOM      8  C   UNL     1      13.478  15.674  17.871  0.00  0.00    +0.000 A 
ENDROOT
BRANCH   4  14
ATOM      9  C   UNL     1       6.560  16.299  22.925  0.00  0.00    +0.000 A 
ATOM     10  C   UNL     1       7.854  16.458  23.435  0.00  0.00    +0.000 A 
ATOM     11  C   UNL     1       6.413  16.072  21.550  0.00  0.00    +0.000 A 
ATOM     12  C   UNL     1       8.974  16.374  22.600  0.00  0.00    +0.000 A 
ATOM     13  C   UNL     1       7.536  16.005  20.713  0.00  0.00    +0.000 A 
ATOM     14  C   UNL     1       8.831  16.124  21.230  0.00  0.00    +0.000 A 
BRANCH   9  15
ATOM     15  C   UNL     1       5.327  16.402  23.808  0.00  0.00    +0.000 C 
ATOM     16  C   UNL     1       4.137  15.643  23.194  0.00  0.00    +0.000 C 
ATOM     17  C   UNL     1       4.944  17.862  24.114  0.00  0.00    +0.000 C 
ATOM     18  C   UNL     1       2.908  15.718  24.098  0.00  0.00    +0.000 C 
ATOM     19  C   UNL     1       3.687  17.948  24.983  0.00  0.00    +0.000 C 
ATOM     20  C   UNL     1       2.522  17.165  24.382  0.00  0.00    +0.000 C 
ENDBRANCH   9  15
ENDBRANCH   4  14
BRANCH   5  22
ATOM     21  N   UNL     1      11.518  13.518  22.054  0.00  0.00    +0.000 NA
ATOM     22  C   UNL     1      10.871  13.666  20.946  0.00  0.00    +0.000 C 
BRANCH  21  23
ATOM     23  O   UNL     1      11.481  12.170  22.438  0.00  0.00    +0.000 OA
BRANCH  23  24
ATOM     24  C   UNL     1      12.163  11.423  21.428  0.00  0.00    +0.000 C 
BRANCH  24  27
ATOM     25 CL   UNL     1      12.723   6.807  19.171  0.00  0.00    +0.000 Cl
ATOM     26 CL   UNL     1      10.975   5.519  21.597  0.00  0.00    +0.000 Cl
ATOM     27  C   UNL     1      11.705   9.987  21.373  0.00  0.00    +0.000 A 
ATOM     28  C   UNL     1      12.222   9.149  20.371  0.00  0.00    +0.000 A 
ATOM     29  C   UNL     1      10.894   9.432  22.370  0.00  0.00    +0.000 A 
ATOM     30  C   UNL     1      11.992   7.769  20.405  0.00  0.00    +0.000 A 
ATOM     31  C   UNL     1      10.650   8.056  22.397  0.00  0.00    +0.000 A 
ATOM     32  C   UNL     1      11.220   7.221  21.433  0.00  0.00    +0.000 A 
ENDBRANCH  24  27
ENDBRANCH  23  24
ENDBRANCH  21  23
ENDBRANCH   5  22
TORSDOF 6
ENDMDL
MODEL 5
REMARK VINA RESULT:      -6.1     29.314     31.307
REMARK  Name = 155524131
REMARK  6 active torsions:
REMARK  status: ('A' for Active; 'I' for Inactive)
REMARK    1  A    between atoms: O_4  and  N_7
REMARK    2  A    between atoms: O_4  and  C_26
REMARK    3  A    between atoms: C_8  and  C_14
REMARK    4  A    between atoms: C_19  and  C_20
REMARK    5  A    between atoms: C_21  and  C_24
REMARK    6  A    between atoms: C_26  and  C_27
REMARK                            x       y       z     vdW  Elec       q    Type
REMARK                         _______ _______ _______ _____ _____    ______ ____
ROOT
ATOM      1  S   UNL     1     -12.357  -7.638   8.902  0.00  0.00    +0.000 S 
ATOM      2  N   UNL     1      -9.894  -8.122   8.365  0.00  0.00    +0.000 N 
ATOM      3  N   UNL     1     -10.307  -8.761  10.463  0.00  0.00    +0.000 NA
ATOM      4  C   UNL     1      -8.984  -9.025  10.126  0.00  0.00    +0.000 A 
ATOM      5  C   UNL     1      -8.698  -8.610   8.823  0.00  0.00    +0.000 A 
ATOM      6  C   UNL     1     -10.799  -8.244   9.375  0.00  0.00    +0.000 A 
ATOM      7  C   UNL     1     -10.381  -7.543   7.211  0.00  0.00    +0.000 A 
ATOM      8  C   UNL     1     -11.679  -7.222   7.321  0.00  0.00    +0.000 A 
ENDROOT
BRANCH   4  14
ATOM      9  C   UNL     1      -6.230 -10.863  12.874  0.00  0.00    +0.000 A 
ATOM     10  C   UNL     1      -6.140  -9.507  12.544  0.00  0.00    +0.000 A 
ATOM     11  C   UNL     1      -7.267 -11.616  12.305  0.00  0.00    +0.000 A 
ATOM     12  C   UNL     1      -7.046  -8.917  11.654  0.00  0.00    +0.000 A 
ATOM     13  C   UNL     1      -8.184 -11.020  11.426  0.00  0.00    +0.000 A 
ATOM     14  C   UNL     1      -8.068  -9.673  11.065  0.00  0.00    +0.000 A 
BRANCH   9  15
ATOM     15  C   UNL     1      -5.269 -11.523  13.850  0.00  0.00    +0.000 C 
ATOM     16  C   UNL     1      -5.816 -12.873  14.345  0.00  0.00    +0.000 C 
ATOM     17  C   UNL     1      -4.917 -10.607  15.037  0.00  0.00    +0.000 C 
ATOM     18  C   UNL     1      -4.835 -13.550  15.299  0.00  0.00    +0.000 C 
ATOM     19  C   UNL     1      -3.969 -11.295  16.021  0.00  0.00    +0.000 C 
ATOM     20  C   UNL     1      -4.505 -12.648  16.482  0.00  0.00    +0.000 C 
ENDBRANCH   9  15
ENDBRANCH   4  14
BRANCH   5  22
ATOM     21  N   UNL     1      -7.147  -9.783   7.504  0.00  0.00    +0.000 NA
ATOM     22  C   UNL     1      -7.483  -8.674   8.075  0.00  0.00    +0.000 C 
BRANCH  21  23
ATOM     23  O   UNL     1      -5.861  -9.655   6.960  0.00  0.00    +0.000 OA
BRANCH  23  24
ATOM     24  C   UNL     1      -5.117 -10.809   7.355  0.00  0.00    +0.000 C 
BRANCH  24  27
ATOM     25 CL   UNL     1      -3.110 -13.167  11.493  0.00  0.00    +0.000 Cl
ATOM     26 CL   UNL     1      -1.905 -10.290  12.426  0.00  0.00    +0.000 Cl
ATOM     27  C   UNL     1      -4.480 -10.641   8.713  0.00  0.00    +0.000 A 
ATOM     28  C   UNL     1      -4.215 -11.785   9.483  0.00  0.00    +0.000 A 
ATOM     29  C   UNL     1      -4.019  -9.398   9.163  0.00  0.00    +0.000 A 
ATOM     30  C   UNL     1      -3.443 -11.700  10.646  0.00  0.00    +0.000 A 
ATOM     31  C   UNL     1      -3.259  -9.308  10.332  0.00  0.00    +0.000 A 
ATOM     32  C   UNL     1      -2.947 -10.460  11.059  0.00  0.00    +0.000 A 
ENDBRANCH  24  27
ENDBRANCH  23  24
ENDBRANCH  21  23
ENDBRANCH   5  22
TORSDOF 6
ENDMDL
MODEL 6
REMARK VINA RESULT:      -6.1     21.558     24.731
REMARK  Name = 155524131
REMARK  6 active torsions:
REMARK  status: ('A' for Active; 'I' for Inactive)
REMARK    1  A    between atoms: O_4  and  N_7
REMARK    2  A    between atoms: O_4  and  C_26
REMARK    3  A    between atoms: C_8  and  C_14
REMARK    4  A    between atoms: C_19  and  C_20
REMARK    5  A    between atoms: C_21  and  C_24
REMARK    6  A    between atoms: C_26  and  C_27
REMARK                            x       y       z     vdW  Elec       q    Type
REMARK                         _______ _______ _______ _____ _____    ______ ____
ROOT
ATOM      1  S   UNL     1     -13.286  14.006  14.054  0.00  0.00    +0.000 S 
ATOM      2  N   UNL     1     -11.712  12.422  15.322  0.00  0.00    +0.000 N 
ATOM      3  N   UNL     1     -10.721  14.412  15.132  0.00  0.00    +0.000 NA
ATOM      4  C   UNL     1      -9.908  13.529  15.832  0.00  0.00    +0.000 A 
ATOM      5  C   UNL     1     -10.500  12.269  15.942  0.00  0.00    +0.000 A 
ATOM      6  C   UNL     1     -11.783  13.706  14.873  0.00  0.00    +0.000 A 
ATOM      7  C   UNL     1     -12.811  11.639  15.029  0.00  0.00    +0.000 A 
ATOM      8  C   UNL     1     -13.748  12.324  14.355  0.00  0.00    +0.000 A 
ENDROOT
BRANCH   4  14
ATOM      9  C   UNL     1      -6.133  14.820  17.444  0.00  0.00    +0.000 A 
ATOM     10  C   UNL     1      -7.346  15.318  17.932  0.00  0.00    +0.000 A 
ATOM     11  C   UNL     1      -6.173  13.859  16.425  0.00  0.00    +0.000 A 
ATOM     12  C   UNL     1      -8.569  14.886  17.405  0.00  0.00    +0.000 A 
ATOM     13  C   UNL     1      -7.400  13.414  15.909  0.00  0.00    +0.000 A 
ATOM     14  C   UNL     1      -8.611  13.943  16.370  0.00  0.00    +0.000 A 
BRANCH   9  15
ATOM     15  C   UNL     1      -4.793  15.261  18.011  0.00  0.00    +0.000 C 
ATOM     16  C   UNL     1      -4.966  16.404  19.027  0.00  0.00    +0.000 C 
ATOM     17  C   UNL     1      -3.790  15.656  16.910  0.00  0.00    +0.000 C 
ATOM     18  C   UNL     1      -3.623  16.823  19.621  0.00  0.00    +0.000 C 
ATOM     19  C   UNL     1      -2.456  16.119  17.499  0.00  0.00    +0.000 C 
ATOM     20  C   UNL     1      -2.641  17.231  18.529  0.00  0.00    +0.000 C 
ENDBRANCH   9  15
ENDBRANCH   4  14
BRANCH   5  22
ATOM     21  N   UNL     1     -10.456  10.752  17.735  0.00  0.00    +0.000 NA
ATOM     22  C   UNL     1     -10.026  11.072  16.560  0.00  0.00    +0.000 C 
BRANCH  21  23
ATOM     23  O   UNL     1      -9.751   9.633  18.201  0.00  0.00    +0.000 OA
BRANCH  23  24
ATOM     24  C   UNL     1     -10.499   8.475  17.825  0.00  0.00    +0.000 C 
BRANCH  24  27
ATOM     25 CL   UNL     1     -15.542   7.861  18.775  0.00  0.00    +0.000 Cl
ATOM     26 CL   UNL     1     -14.736   6.363  21.550  0.00  0.00    +0.000 Cl
ATOM     27  C   UNL     1     -11.552   8.118  18.844  0.00  0.00    +0.000 A 
ATOM     28  C   UNL     1     -12.906   8.240  18.491  0.00  0.00    +0.000 A 
ATOM     29  C   UNL     1     -11.221   7.538  20.074  0.00  0.00    +0.000 A 
ATOM     30  C   UNL     1     -13.909   7.728  19.320  0.00  0.00    +0.000 A 
ATOM     31  C   UNL     1     -12.222   7.038  20.911  0.00  0.00    +0.000 A 
ATOM     32  C   UNL     1     -13.563   7.107  20.523  0.00  0.00    +0.000 A 
ENDBRANCH  24  27
ENDBRANCH  23  24
ENDBRANCH  21  23
ENDBRANCH   5  22
TORSDOF 6
ENDMDL
MODEL 7
REMARK VINA RESULT:      -5.8     28.379     31.901
REMARK  Name = 155524131
REMARK  6 active torsions:
REMARK  status: ('A' for Active; 'I' for Inactive)
REMARK    1  A    between atoms: O_4  and  N_7
REMARK    2  A    between atoms: O_4  and  C_26
REMARK    3  A    between atoms: C_8  and  C_14
REMARK    4  A    between atoms: C_19  and  C_20
REMARK    5  A    between atoms: C_21  and  C_24
REMARK    6  A    between atoms: C_26  and  C_27
REMARK                            x       y       z     vdW  Elec       q    Type
REMARK                         _______ _______ _______ _____ _____    ______ ____
ROOT
ATOM      1  S   UNL     1      -4.311 -18.477  15.096  0.00  0.00    +0.000 S 
ATOM      2  N   UNL     1      -3.141 -16.251  14.576  0.00  0.00    +0.000 N 
ATOM      3  N   UNL     1      -4.752 -16.580  13.068  0.00  0.00    +0.000 NA
ATOM      4  C   UNL     1      -4.106 -15.373  12.832  0.00  0.00    +0.000 A 
ATOM      5  C   UNL     1      -3.077 -15.158  13.752  0.00  0.00    +0.000 A 
ATOM      6  C   UNL     1      -4.150 -17.046  14.123  0.00  0.00    +0.000 A 
ATOM      7  C   UNL     1      -2.461 -16.739  15.674  0.00  0.00    +0.000 A 
ATOM      8  C   UNL     1      -2.953 -17.918  16.084  0.00  0.00    +0.000 A 
ENDROOT
BRANCH   4  14
ATOM      9  C   UNL     1      -5.398 -12.772   9.657  0.00  0.00    +0.000 A 
ATOM     10  C   UNL     1      -6.247 -13.112  10.716  0.00  0.00    +0.000 A 
ATOM     11  C   UNL     1      -4.092 -13.279   9.666  0.00  0.00    +0.000 A 
ATOM     12  C   UNL     1      -5.814 -13.954  11.748  0.00  0.00    +0.000 A 
ATOM     13  C   UNL     1      -3.654 -14.109  10.709  0.00  0.00    +0.000 A 
ATOM     14  C   UNL     1      -4.517 -14.482  11.746  0.00  0.00    +0.000 A 
BRANCH   9  15
ATOM     15  C   UNL     1      -5.840 -11.847   8.534  0.00  0.00    +0.000 C 
ATOM     16  C   UNL     1      -7.209 -12.267   7.971  0.00  0.00    +0.000 C 
ATOM     17  C   UNL     1      -4.793 -11.748   7.409  0.00  0.00    +0.000 C 
ATOM     18  C   UNL     1      -7.667 -11.317   6.867  0.00  0.00    +0.000 C 
ATOM     19  C   UNL     1      -5.263 -10.833   6.276  0.00  0.00    +0.000 C 
ATOM     20  C   UNL     1      -6.636 -11.238   5.746  0.00  0.00    +0.000 C 
ENDBRANCH   9  15
ENDBRANCH   4  14
BRANCH   5  22
ATOM     21  N   UNL     1      -2.479 -13.051  14.603  0.00  0.00    +0.000 NA
ATOM     22  C   UNL     1      -2.158 -14.072  13.880  0.00  0.00    +0.000 C 
BRANCH  21  23
ATOM     23  O   UNL     1      -1.502 -12.056  14.463  0.00  0.00    +0.000 OA
BRANCH  23  24
ATOM     24  C   UNL     1      -2.181 -10.799  14.416  0.00  0.00    +0.000 C 
BRANCH  24  27
ATOM     25 CL   UNL     1      -6.252  -9.614  11.459  0.00  0.00    +0.000 Cl
ATOM     26 CL   UNL     1      -4.170  -8.742   9.114  0.00  0.00    +0.000 Cl
ATOM     27  C   UNL     1      -2.674 -10.467  13.029  0.00  0.00    +0.000 A 
ATOM     28  C   UNL     1      -4.055 -10.326  12.817  0.00  0.00    +0.000 A 
ATOM     29  C   UNL     1      -1.792 -10.158  11.987  0.00  0.00    +0.000 A 
ATOM     30  C   UNL     1      -4.544  -9.818  11.608  0.00  0.00    +0.000 A 
ATOM     31  C   UNL     1      -2.278  -9.664  10.774  0.00  0.00    +0.000 A 
ATOM     32  C   UNL     1      -3.649  -9.467  10.593  0.00  0.00    +0.000 A 
ENDBRANCH  24  27
ENDBRANCH  23  24
ENDBRANCH  21  23
ENDBRANCH   5  22
TORSDOF 6
ENDMDL
MODEL 8
REMARK VINA RESULT:      -5.7     23.906     26.783
REMARK  Name = 155524131
REMARK  6 active torsions:
REMARK  status: ('A' for Active; 'I' for Inactive)
REMARK    1  A    between atoms: O_4  and  N_7
REMARK    2  A    between atoms: O_4  and  C_26
REMARK    3  A    between atoms: C_8  and  C_14
REMARK    4  A    between atoms: C_19  and  C_20
REMARK    5  A    between atoms: C_21  and  C_24
REMARK    6  A    between atoms: C_26  and  C_27
REMARK                            x       y       z     vdW  Elec       q    Type
REMARK                         _______ _______ _______ _____ _____    ______ ____
ROOT
ATOM      1  S   UNL     1       1.488 -15.866  36.361  0.00  0.00    +0.000 S 
ATOM      2  N   UNL     1       2.353 -14.807  34.188  0.00  0.00    +0.000 N 
ATOM      3  N   UNL     1       3.055 -13.576  35.912  0.00  0.00    +0.000 NA
ATOM      4  C   UNL     1       3.521 -13.046  34.715  0.00  0.00    +0.000 A 
ATOM      5  C   UNL     1       3.072 -13.788  33.620  0.00  0.00    +0.000 A 
ATOM      6  C   UNL     1       2.386 -14.627  35.538  0.00  0.00    +0.000 A 
ATOM      7  C   UNL     1       1.619 -15.895  33.762  0.00  0.00    +0.000 A 
ATOM      8  C   UNL     1       1.086 -16.574  34.790  0.00  0.00    +0.000 A 
ENDROOT
BRANCH   4  14
ATOM      9  C   UNL     1       6.121  -9.619  34.631  0.00  0.00    +0.000 A 
ATOM     10  C   UNL     1       6.592 -10.902  34.334  0.00  0.00    +0.000 A 
ATOM     11  C   UNL     1       4.762  -9.465  34.932  0.00  0.00    +0.000 A 
ATOM     12  C   UNL     1       5.736 -12.009  34.358  0.00  0.00    +0.000 A 
ATOM     13  C   UNL     1       3.901 -10.573  34.939  0.00  0.00    +0.000 A 
ATOM     14  C   UNL     1       4.381 -11.862  34.683  0.00  0.00    +0.000 A 
BRANCH   9  15
ATOM     15  C   UNL     1       7.028  -8.398  34.596  0.00  0.00    +0.000 C 
ATOM     16  C   UNL     1       7.166  -7.766  35.992  0.00  0.00    +0.000 C 
ATOM     17  C   UNL     1       6.564  -7.351  33.566  0.00  0.00    +0.000 C 
ATOM     18  C   UNL     1       8.104  -6.562  35.963  0.00  0.00    +0.000 C 
ATOM     19  C   UNL     1       7.473  -6.120  33.561  0.00  0.00    +0.000 C 
ATOM     20  C   UNL     1       7.630  -5.520  34.956  0.00  0.00    +0.000 C 
ENDBRANCH   9  15
ENDBRANCH   4  14
BRANCH   5  22
ATOM     21  N   UNL     1       4.414 -13.981  31.701  0.00  0.00    +0.000 NA
ATOM     22  C   UNL     1       3.293 -13.605  32.221  0.00  0.00    +0.000 C 
BRANCH  21  23
ATOM     23  O   UNL     1       4.466 -13.572  30.362  0.00  0.00    +0.000 OA
BRANCH  23  24
ATOM     24  C   UNL     1       5.777 -13.873  29.878  0.00  0.00    +0.000 C 
BRANCH  24  27
ATOM     25 CL   UNL     1       6.876  -8.857  30.468  0.00  0.00    +0.000 Cl
ATOM     26 CL   UNL     1       9.436  -9.732  32.279  0.00  0.00    +0.000 Cl
ATOM     27  C   UNL     1       6.797 -12.852  30.318  0.00  0.00    +0.000 A 
ATOM     28  C   UNL     1       6.519 -11.489  30.125  0.00  0.00    +0.000 A 
ATOM     29  C   UNL     1       7.942 -13.216  31.037  0.00  0.00    +0.000 A 
ATOM     30  C   UNL     1       7.332 -10.506  30.700  0.00  0.00    +0.000 A 
ATOM     31  C   UNL     1       8.763 -12.236  31.600  0.00  0.00    +0.000 A 
ATOM     32  C   UNL     1       8.445 -10.884  31.457  0.00  0.00    +0.000 A 
ENDBRANCH  24  27
ENDBRANCH  23  24
ENDBRANCH  21  23
ENDBRANCH   5  22
TORSDOF 6
ENDMDL
MODEL 9
REMARK VINA RESULT:      -5.7     34.224     36.416
REMARK  Name = 155524131
REMARK  6 active torsions:
REMARK  status: ('A' for Active; 'I' for Inactive)
REMARK    1  A    between atoms: O_4  and  N_7
REMARK    2  A    between atoms: O_4  and  C_26
REMARK    3  A    between atoms: C_8  and  C_14
REMARK    4  A    between atoms: C_19  and  C_20
REMARK    5  A    between atoms: C_21  and  C_24
REMARK    6  A    between atoms: C_26  and  C_27
REMARK                            x       y       z     vdW  Elec       q    Type
REMARK                         _______ _______ _______ _____ _____    ______ ____
ROOT
ATOM      1  S   UNL     1      -9.110  -8.108  40.399  0.00  0.00    +0.000 S 
ATOM      2  N   UNL     1      -8.355  -9.893  38.715  0.00  0.00    +0.000 N 
ATOM      3  N   UNL     1     -10.563  -9.628  38.533  0.00  0.00    +0.000 NA
ATOM      4  C   UNL     1     -10.110 -10.575  37.622  0.00  0.00    +0.000 A 
ATOM      5  C   UNL     1      -8.732 -10.774  37.736  0.00  0.00    +0.000 A 
ATOM      6  C   UNL     1      -9.476  -9.247  39.139  0.00  0.00    +0.000 A 
ATOM      7  C   UNL     1      -7.192  -9.533  39.367  0.00  0.00    +0.000 A 
ATOM      8  C   UNL     1      -7.411  -8.591  40.298  0.00  0.00    +0.000 A 
ENDROOT
BRANCH   4  14
ATOM      9  C   UNL     1     -12.850 -12.451  34.886  0.00  0.00    +0.000 A 
ATOM     10  C   UNL     1     -13.101 -11.181  35.417  0.00  0.00    +0.000 A 
ATOM     11  C   UNL     1     -11.660 -13.097  35.246  0.00  0.00    +0.000 A 
ATOM     12  C   UNL     1     -12.199 -10.577  36.301  0.00  0.00    +0.000 A 
ATOM     13  C   UNL     1     -10.749 -12.483  36.118  0.00  0.00    +0.000 A 
ATOM     14  C   UNL     1     -11.020 -11.231  36.681  0.00  0.00    +0.000 A 
BRANCH   9  15
ATOM     15  C   UNL     1     -13.806 -13.121  33.911  0.00  0.00    +0.000 C 
ATOM     16  C   UNL     1     -14.615 -12.079  33.118  0.00  0.00    +0.000 C 
ATOM     17  C   UNL     1     -14.744 -14.126  34.606  0.00  0.00    +0.000 C 
ATOM     18  C   UNL     1     -15.549 -12.752  32.115  0.00  0.00    +0.000 C 
ATOM     19  C   UNL     1     -15.714 -14.773  33.615  0.00  0.00    +0.000 C 
ATOM     20  C   UNL     1     -16.487 -13.732  32.810  0.00  0.00    +0.000 C 
ENDBRANCH   9  15
ENDBRANCH   4  14
BRANCH   5  22
ATOM     21  N   UNL     1      -7.312 -11.237  35.923  0.00  0.00    +0.000 NA
ATOM     22  C   UNL     1      -7.858 -11.646  37.019  0.00  0.00    +0.000 C 
BRANCH  21  23
ATOM     23  O   UNL     1      -6.622 -12.299  35.321  0.00  0.00    +0.000 OA
BRANCH  23  24
ATOM     24  C   UNL     1      -7.337 -13.497  35.630  0.00  0.00    +0.000 C 
BRANCH  24  27
ATOM     25 CL   UNL     1      -9.199 -14.801  30.988  0.00  0.00    +0.000 Cl
ATOM     26 CL   UNL     1      -6.770 -16.954  30.728  0.00  0.00    +0.000 Cl
ATOM     27  C   UNL     1      -7.304 -14.491  34.496  0.00  0.00    +0.000 A 
ATOM     28  C   UNL     1      -8.210 -14.338  33.434  0.00  0.00    +0.000 A 
ATOM     29  C   UNL     1      -6.308 -15.471  34.403  0.00  0.00    +0.000 A 
ATOM     30  C   UNL     1      -8.081 -15.103  32.270  0.00  0.00    +0.000 A 
ATOM     31  C   UNL     1      -6.186 -16.246  33.247  0.00  0.00    +0.000 A 
ATOM     32  C   UNL     1      -7.053 -16.045  32.170  0.00  0.00    +0.000 A 
ENDBRANCH  24  27
ENDBRANCH  23  24
ENDBRANCH  21  23
ENDBRANCH   5  22
TORSDOF 6
ENDMDL
MODEL 10
REMARK VINA RESULT:      -5.6     34.484     36.384
REMARK  Name = 155524131
REMARK  6 active torsions:
REMARK  status: ('A' for Active; 'I' for Inactive)
REMARK    1  A    between atoms: O_4  and  N_7
REMARK    2  A    between atoms: O_4  and  C_26
REMARK    3  A    between atoms: C_8  and  C_14
REMARK    4  A    between atoms: C_19  and  C_20
REMARK    5  A    between atoms: C_21  and  C_24
REMARK    6  A    between atoms: C_26  and  C_27
REMARK                            x       y       z     vdW  Elec       q    Type
REMARK                         _______ _______ _______ _____ _____    ______ ____
ROOT
ATOM      1  S   UNL     1      -9.883  -8.876  40.278  0.00  0.00    +0.000 S 
ATOM      2  N   UNL     1      -8.954 -10.483  38.504  0.00  0.00    +0.000 N 
ATOM      3  N   UNL     1     -11.156 -10.278  38.200  0.00  0.00    +0.000 NA
ATOM      4  C   UNL     1     -10.610 -11.127  37.244  0.00  0.00    +0.000 A 
ATOM      5  C   UNL     1      -9.235 -11.288  37.431  0.00  0.00    +0.000 A 
ATOM      6  C   UNL     1     -10.125  -9.914  38.906  0.00  0.00    +0.000 A 
ATOM      7  C   UNL     1      -7.850 -10.141  39.258  0.00  0.00    +0.000 A 
ATOM      8  C   UNL     1      -8.163  -9.291  40.248  0.00  0.00    +0.000 A 
ENDROOT
BRANCH   4  14
ATOM      9  C   UNL     1     -13.098 -12.849  34.186  0.00  0.00    +0.000 A 
ATOM     10  C   UNL     1     -13.416 -11.626  34.785  0.00  0.00    +0.000 A 
ATOM     11  C   UNL     1     -11.922 -13.498  34.587  0.00  0.00    +0.000 A 
ATOM     12  C   UNL     1     -12.596 -11.071  35.774  0.00  0.00    +0.000 A 
ATOM     13  C   UNL     1     -11.093 -12.933  35.567  0.00  0.00    +0.000 A 
ATOM     14  C   UNL     1     -11.433 -11.729  36.194  0.00  0.00    +0.000 A 
BRANCH   9  15
ATOM     15  C   UNL     1     -13.964 -13.464  33.098  0.00  0.00    +0.000 C 
ATOM     16  C   UNL     1     -13.112 -14.249  32.084  0.00  0.00    +0.000 C 
ATOM     17  C   UNL     1     -14.839 -12.419  32.381  0.00  0.00    +0.000 C 
ATOM     18  C   UNL     1     -13.986 -14.895  31.011  0.00  0.00    +0.000 C 
ATOM     19  C   UNL     1     -15.686 -13.051  31.274  0.00  0.00    +0.000 C 
ATOM     20  C   UNL     1     -14.836 -13.854  30.293  0.00  0.00    +0.000 C 
ENDBRANCH   9  15
ENDBRANCH   4  14
BRANCH   5  22
ATOM     21  N   UNL     1      -7.417 -11.469  35.954  0.00  0.00    +0.000 NA
ATOM     22  C   UNL     1      -8.284 -12.065  36.703  0.00  0.00    +0.000 C 
BRANCH  21  23
ATOM     23  O   UNL     1      -6.694 -12.424  35.227  0.00  0.00    +0.000 OA
BRANCH  23  24
ATOM     24  C   UNL     1      -7.641 -13.222  34.516  0.00  0.00    +0.000 C 
BRANCH  24  27
ATOM     25 CL   UNL     1      -3.929 -16.819  34.563  0.00  0.00    +0.000 Cl
ATOM     26 CL   UNL     1      -5.418 -18.248  32.045  0.00  0.00    +0.000 Cl
ATOM     27  C   UNL     1      -6.987 -14.364  33.778  0.00  0.00    +0.000 A 
ATOM     28  C   UNL     1      -5.832 -14.949  34.322  0.00  0.00    +0.000 A 
ATOM     29  C   UNL     1      -7.577 -14.948  32.650  0.00  0.00    +0.000 A 
ATOM     30  C   UNL     1      -5.313 -16.135  33.790  0.00  0.00    +0.000 A 
ATOM     31  C   UNL     1      -7.053 -16.124  32.109  0.00  0.00    +0.000 A 
ATOM     32  C   UNL     1      -5.939 -16.733  32.693  0.00  0.00    +0.000 A 
ENDBRANCH  24  27
ENDBRANCH  23  24
ENDBRANCH  21  23
ENDBRANCH   5  22
TORSDOF 6
ENDMDL
