MODEL 1
REMARK VINA RESULT:      -5.2      0.000      0.000
REMARK  Name = 155524131
REMARK  6 active torsions:
REMARK  status: ('A' for Active; 'I' for Inactive)
REMARK    1  A    between atoms: O_4  and  N_7
REMARK    2  A    between atoms: O_4  and  C_26
REMARK    3  A    between atoms: C_8  and  C_14
REMARK    4  A    between atoms: C_19  and  C_20
REMARK    5  A    between atoms: C_21  and  C_24
REMARK    6  A    between atoms: C_26  and  C_27
REMARK                            x       y       z     vdW  Elec       q    Type
REMARK                         _______ _______ _______ _____ _____    ______ ____
ROOT
ATOM      1  S   UNL     1      -7.098  -0.720 -30.587  0.00  0.00    +0.000 S 
ATOM      2  N   UNL     1      -7.664   0.295 -32.876  0.00  0.00    +0.000 N 
ATOM      3  N   UNL     1      -9.202   0.958 -31.402  0.00  0.00    +0.000 NA
ATOM      4  C   UNL     1      -9.462   1.503 -32.653  0.00  0.00    +0.000 A 
ATOM      5  C   UNL     1      -8.523   1.081 -33.598  0.00  0.00    +0.000 A 
ATOM      6  C   UNL     1      -8.115   0.267 -31.592  0.00  0.00    +0.000 A 
ATOM      7  C   UNL     1      -6.532  -0.459 -33.114  0.00  0.00    +0.000 A 
ATOM      8  C   UNL     1      -6.094  -1.069 -32.002  0.00  0.00    +0.000 A 
ENDROOT
BRANCH   4  14
ATOM      9  C   UNL     1     -12.725   4.237 -33.278  0.00  0.00    +0.000 A 
ATOM     10  C   UNL     1     -11.401   4.682 -33.205  0.00  0.00    +0.000 A 
ATOM     11  C   UNL     1     -12.969   2.861 -33.169  0.00  0.00    +0.000 A 
ATOM     12  C   UNL     1     -10.346   3.783 -33.009  0.00  0.00    +0.000 A 
ATOM     13  C   UNL     1     -11.909   1.959 -32.989  0.00  0.00    +0.000 A 
ATOM     14  C   UNL     1     -10.589   2.410 -32.876  0.00  0.00    +0.000 A 
BRANCH   9  15
ATOM     15  C   UNL     1     -13.887   5.191 -33.507  0.00  0.00    +0.000 C 
ATOM     16  C   UNL     1     -13.549   6.609 -33.014  0.00  0.00    +0.000 C 
ATOM     17  C   UNL     1     -15.195   4.688 -32.869  0.00  0.00    +0.000 C 
ATOM     18  C   UNL     1     -14.703   7.574 -33.276  0.00  0.00    +0.000 C 
ATOM     19  C   UNL     1     -16.347   5.671 -33.089  0.00  0.00    +0.000 C 
ATOM     20  C   UNL     1     -15.991   7.081 -32.626  0.00  0.00    +0.000 C 
ENDBRANCH   9  15
ENDBRANCH   4  14
BRANCH   5  22
ATOM     21  N   UNL     1      -7.698   2.389 -35.366  0.00  0.00    +0.000 NA
ATOM     22  C   UNL     1      -8.409   1.379 -34.990  0.00  0.00    +0.000 C 
BRANCH  21  23
ATOM     23  O   UNL     1      -7.850   2.578 -36.747  0.00  0.00    +0.000 OA
BRANCH  23  24
ATOM     24  C   UNL     1      -7.676   3.972 -37.006  0.00  0.00    +0.000 C 
BRANCH  24  27
ATOM     25 CL   UNL     1      -9.446   8.280 -34.763  0.00  0.00    +0.000 Cl
ATOM     26 CL   UNL     1     -12.360   7.644 -36.068  0.00  0.00    +0.000 Cl
ATOM     27  C   UNL     1      -8.890   4.781 -36.618  0.00  0.00    +0.000 A 
ATOM     28  C   UNL     1      -8.711   5.948 -35.858  0.00  0.00    +0.000 A 
ATOM     29  C   UNL     1     -10.165   4.482 -37.113  0.00  0.00    +0.000 A 
ATOM     30  C   UNL     1      -9.772   6.837 -35.653  0.00  0.00    +0.000 A 
ATOM     31  C   UNL     1     -11.229   5.360 -36.898  0.00  0.00    +0.000 A 
ATOM     32  C   UNL     1     -11.029   6.550 -36.193  0.00  0.00    +0.000 A 
ENDBRANCH  24  27
ENDBRANCH  23  24
ENDBRANCH  21  23
ENDBRANCH   5  22
TORSDOF 6
ENDMDL
MODEL 2
REMARK VINA RESULT:      -5.1     19.001     21.474
REMARK  Name = 155524131
REMARK  6 active torsions:
REMARK  status: ('A' for Active; 'I' for Inactive)
REMARK    1  A    between atoms: O_4  and  N_7
REMARK    2  A    between atoms: O_4  and  C_26
REMARK    3  A    between atoms: C_8  and  C_14
REMARK    4  A    between atoms: C_19  and  C_20
REMARK    5  A    between atoms: C_21  and  C_24
REMARK    6  A    between atoms: C_26  and  C_27
REMARK                            x       y       z     vdW  Elec       q    Type
REMARK                         _______ _______ _______ _____ _____    ______ ____
ROOT
ATOM      1  S   UNL     1      -1.006  -1.785 -48.839  0.00  0.00    +0.000 S 
ATOM      2  N   UNL     1      -3.216  -1.791 -50.145  0.00  0.00    +0.000 N 
ATOM      3  N   UNL     1      -2.000  -0.042 -50.808  0.00  0.00    +0.000 NA
ATOM      4  C   UNL     1      -3.200  -0.093 -51.508  0.00  0.00    +0.000 A 
ATOM      5  C   UNL     1      -3.988  -1.169 -51.090  0.00  0.00    +0.000 A 
ATOM      6  C   UNL     1      -2.059  -1.083 -50.030  0.00  0.00    +0.000 A 
ATOM      7  C   UNL     1      -3.320  -2.881 -49.304  0.00  0.00    +0.000 A 
ATOM      8  C   UNL     1      -2.229  -3.027 -48.536  0.00  0.00    +0.000 A 
ENDROOT
BRANCH   4  14
ATOM      9  C   UNL     1      -4.076   2.758 -54.609  0.00  0.00    +0.000 A 
ATOM     10  C   UNL     1      -3.209   1.682 -54.827  0.00  0.00    +0.000 A 
ATOM     11  C   UNL     1      -4.683   2.875 -53.351  0.00  0.00    +0.000 A 
ATOM     12  C   UNL     1      -2.936   0.756 -53.813  0.00  0.00    +0.000 A 
ATOM     13  C   UNL     1      -4.422   1.937 -52.341  0.00  0.00    +0.000 A 
ATOM     14  C   UNL     1      -3.523   0.885 -52.548  0.00  0.00    +0.000 A 
BRANCH   9  15
ATOM     15  C   UNL     1      -4.401   3.767 -55.699  0.00  0.00    +0.000 C 
ATOM     16  C   UNL     1      -4.492   3.089 -57.078  0.00  0.00    +0.000 C 
ATOM     17  C   UNL     1      -3.402   4.939 -55.732  0.00  0.00    +0.000 C 
ATOM     18  C   UNL     1      -4.852   4.098 -58.166  0.00  0.00    +0.000 C 
ATOM     19  C   UNL     1      -3.730   5.932 -56.849  0.00  0.00    +0.000 C 
ATOM     20  C   UNL     1      -3.850   5.245 -58.207  0.00  0.00    +0.000 C 
ENDBRANCH   9  15
ENDBRANCH   4  14
BRANCH   5  22
ATOM     21  N   UNL     1      -6.315  -0.875 -51.224  0.00  0.00    +0.000 NA
ATOM     22  C   UNL     1      -5.282  -1.592 -51.520  0.00  0.00    +0.000 C 
BRANCH  21  23
ATOM     23  O   UNL     1      -7.479  -1.553 -51.613  0.00  0.00    +0.000 OA
BRANCH  23  24
ATOM     24  C   UNL     1      -8.028  -0.846 -52.727  0.00  0.00    +0.000 C 
BRANCH  24  27
ATOM     25 CL   UNL     1      -7.100  -4.143 -56.598  0.00  0.00    +0.000 Cl
ATOM     26 CL   UNL     1      -5.634  -1.710 -58.187  0.00  0.00    +0.000 Cl
ATOM     27  C   UNL     1      -7.265  -1.105 -54.002  0.00  0.00    +0.000 A 
ATOM     28  C   UNL     1      -7.375  -2.365 -54.613  0.00  0.00    +0.000 A 
ATOM     29  C   UNL     1      -6.569  -0.088 -54.665  0.00  0.00    +0.000 A 
ATOM     30  C   UNL     1      -6.859  -2.584 -55.895  0.00  0.00    +0.000 A 
ATOM     31  C   UNL     1      -6.040  -0.308 -55.939  0.00  0.00    +0.000 A 
ATOM     32  C   UNL     1      -6.208  -1.545 -56.566  0.00  0.00    +0.000 A 
ENDBRANCH  24  27
ENDBRANCH  23  24
ENDBRANCH  21  23
ENDBRANCH   5  22
TORSDOF 6
ENDMDL
MODEL 3
REMARK VINA RESULT:      -5.1     18.991     21.079
REMARK  Name = 155524131
REMARK  6 active torsions:
REMARK  status: ('A' for Active; 'I' for Inactive)
REMARK    1  A    between atoms: O_4  and  N_7
REMARK    2  A    between atoms: O_4  and  C_26
REMARK    3  A    between atoms: C_8  and  C_14
REMARK    4  A    between atoms: C_19  and  C_20
REMARK    5  A    between atoms: C_21  and  C_24
REMARK    6  A    between atoms: C_26  and  C_27
REMARK                            x       y       z     vdW  Elec       q    Type
REMARK                         _______ _______ _______ _____ _____    ______ ____
ROOT
ATOM      1  S   UNL     1     -25.716  -4.736 -50.159  0.00  0.00    +0.000 S 
ATOM      2  N   UNL     1     -25.797  -2.179 -50.376  0.00  0.00    +0.000 N 
ATOM      3  N   UNL     1     -26.192  -2.728 -48.250  0.00  0.00    +0.000 NA
ATOM      4  C   UNL     1     -26.207  -1.347 -48.406  0.00  0.00    +0.000 A 
ATOM      5  C   UNL     1     -25.986  -0.982 -49.736  0.00  0.00    +0.000 A 
ATOM      6  C   UNL     1     -25.926  -3.165 -49.446  0.00  0.00    +0.000 A 
ATOM      7  C   UNL     1     -25.550  -2.618 -51.662  0.00  0.00    +0.000 A 
ATOM      8  C   UNL     1     -25.475  -3.956 -51.729  0.00  0.00    +0.000 A 
ENDROOT
BRANCH   4  14
ATOM      9  C   UNL     1     -26.925   1.292 -45.084  0.00  0.00    +0.000 A 
ATOM     10  C   UNL     1     -27.936   0.475 -45.601  0.00  0.00    +0.000 A 
ATOM     11  C   UNL     1     -25.649   1.213 -45.660  0.00  0.00    +0.000 A 
ATOM     12  C   UNL     1     -27.689  -0.386 -46.678  0.00  0.00    +0.000 A 
ATOM     13  C   UNL     1     -25.400   0.339 -46.728  0.00  0.00    +0.000 A 
ATOM     14  C   UNL     1     -26.422  -0.449 -47.270  0.00  0.00    +0.000 A 
BRANCH   9  15
ATOM     15  C   UNL     1     -27.163   2.223 -43.906  0.00  0.00    +0.000 C 
ATOM     16  C   UNL     1     -27.101   3.698 -44.338  0.00  0.00    +0.000 C 
ATOM     17  C   UNL     1     -26.192   1.954 -42.740  0.00  0.00    +0.000 C 
ATOM     18  C   UNL     1     -27.374   4.631 -43.160  0.00  0.00    +0.000 C 
ATOM     19  C   UNL     1     -26.430   2.914 -41.572  0.00  0.00    +0.000 C 
ATOM     20  C   UNL     1     -26.399   4.374 -42.017  0.00  0.00    +0.000 C 
ENDBRANCH   9  15
ENDBRANCH   4  14
BRANCH   5  22
ATOM     21  N   UNL     1     -24.785   0.888 -50.497  0.00  0.00    +0.000 NA
ATOM     22  C   UNL     1     -25.928   0.307 -50.348  0.00  0.00    +0.000 C 
BRANCH  21  23
ATOM     23  O   UNL     1     -24.983   2.190 -50.976  0.00  0.00    +0.000 OA
BRANCH  23  24
ATOM     24  C   UNL     1     -25.986   2.795 -50.157  0.00  0.00    +0.000 C 
BRANCH  24  27
ATOM     25 CL   UNL     1     -23.560   7.359 -50.131  0.00  0.00    +0.000 Cl
ATOM     26 CL   UNL     1     -24.422   7.688 -47.009  0.00  0.00    +0.000 Cl
ATOM     27  C   UNL     1     -25.436   3.922 -49.318  0.00  0.00    +0.000 A 
ATOM     28  C   UNL     1     -24.723   4.952 -49.952  0.00  0.00    +0.000 A 
ATOM     29  C   UNL     1     -25.737   4.043 -47.956  0.00  0.00    +0.000 A 
ATOM     30  C   UNL     1     -24.377   6.115 -49.255  0.00  0.00    +0.000 A 
ATOM     31  C   UNL     1     -25.380   5.197 -47.254  0.00  0.00    +0.000 A 
ATOM     32  C   UNL     1     -24.726   6.244 -47.908  0.00  0.00    +0.000 A 
ENDBRANCH  24  27
ENDBRANCH  23  24
ENDBRANCH  21  23
ENDBRANCH   5  22
TORSDOF 6
ENDMDL
MODEL 4
REMARK VINA RESULT:      -5.1     15.531     18.624
REMARK  Name = 155524131
REMARK  6 active torsions:
REMARK  status: ('A' for Active; 'I' for Inactive)
REMARK    1  A    between atoms: O_4  and  N_7
REMARK    2  A    between atoms: O_4  and  C_26
REMARK    3  A    between atoms: C_8  and  C_14
REMARK    4  A    between atoms: C_19  and  C_20
REMARK    5  A    between atoms: C_21  and  C_24
REMARK    6  A    between atoms: C_26  and  C_27
REMARK                            x       y       z     vdW  Elec       q    Type
REMARK                         _______ _______ _______ _____ _____    ______ ____
ROOT
ATOM      1  S   UNL     1      -9.133  22.336 -44.598  0.00  0.00    +0.000 S 
ATOM      2  N   UNL     1      -9.964  19.945 -44.167  0.00  0.00    +0.000 N 
ATOM      3  N   UNL     1      -7.793  19.866 -44.680  0.00  0.00    +0.000 NA
ATOM      4  C   UNL     1      -8.278  18.590 -44.419  0.00  0.00    +0.000 A 
ATOM      5  C   UNL     1      -9.642  18.614 -44.119  0.00  0.00    +0.000 A 
ATOM      6  C   UNL     1      -8.832  20.628 -44.496  0.00  0.00    +0.000 A 
ATOM      7  C   UNL     1     -11.090  20.727 -44.002  0.00  0.00    +0.000 A 
ATOM      8  C   UNL     1     -10.828  22.029 -44.194  0.00  0.00    +0.000 A 
ENDROOT
BRANCH   4  14
ATOM      9  C   UNL     1      -5.737  15.123 -44.624  0.00  0.00    +0.000 A 
ATOM     10  C   UNL     1      -6.127  15.814 -45.776  0.00  0.00    +0.000 A 
ATOM     11  C   UNL     1      -6.174  15.606 -43.382  0.00  0.00    +0.000 A 
ATOM     12  C   UNL     1      -6.948  16.945 -45.697  0.00  0.00    +0.000 A 
ATOM     13  C   UNL     1      -6.983  16.749 -43.304  0.00  0.00    +0.000 A 
ATOM     14  C   UNL     1      -7.406  17.415 -44.460  0.00  0.00    +0.000 A 
BRANCH   9  15
ATOM     15  C   UNL     1      -4.833  13.903 -44.681  0.00  0.00    +0.000 C 
ATOM     16  C   UNL     1      -5.139  12.926 -43.531  0.00  0.00    +0.000 C 
ATOM     17  C   UNL     1      -3.339  14.278 -44.695  0.00  0.00    +0.000 C 
ATOM     18  C   UNL     1      -4.254  11.685 -43.610  0.00  0.00    +0.000 C 
ATOM     19  C   UNL     1      -2.443  13.038 -44.729  0.00  0.00    +0.000 C 
ATOM     20  C   UNL     1      -2.776  12.061 -43.605  0.00  0.00    +0.000 C 
ENDBRANCH   9  15
ENDBRANCH   4  14
BRANCH   5  22
ATOM     21  N   UNL     1     -11.167  16.944 -44.756  0.00  0.00    +0.000 NA
ATOM     22  C   UNL     1     -10.542  17.551 -43.802  0.00  0.00    +0.000 C 
BRANCH  21  23
ATOM     23  O   UNL     1     -12.096  16.050 -44.207  0.00  0.00    +0.000 OA
BRANCH  23  24
ATOM     24  C   UNL     1     -13.151  15.898 -45.160  0.00  0.00    +0.000 C 
BRANCH  24  27
ATOM     25 CL   UNL     1     -16.068  18.715 -41.955  0.00  0.00    +0.000 Cl
ATOM     26 CL   UNL     1     -18.687  17.234 -43.196  0.00  0.00    +0.000 Cl
ATOM     27  C   UNL     1     -14.513  16.090 -44.540  0.00  0.00    +0.000 A 
ATOM     28  C   UNL     1     -14.677  17.082 -43.561  0.00  0.00    +0.000 A 
ATOM     29  C   UNL     1     -15.641  15.409 -45.013  0.00  0.00    +0.000 A 
ATOM     30  C   UNL     1     -15.954  17.437 -43.111  0.00  0.00    +0.000 A 
ATOM     31  C   UNL     1     -16.915  15.752 -44.556  0.00  0.00    +0.000 A 
ATOM     32  C   UNL     1     -17.076  16.783 -43.627  0.00  0.00    +0.000 A 
ENDBRANCH  24  27
ENDBRANCH  23  24
ENDBRANCH  21  23
ENDBRANCH   5  22
TORSDOF 6
ENDMDL
MODEL 5
REMARK VINA RESULT:      -5.0     23.764     26.101
REMARK  Name = 155524131
REMARK  6 active torsions:
REMARK  status: ('A' for Active; 'I' for Inactive)
REMARK    1  A    between atoms: O_4  and  N_7
REMARK    2  A    between atoms: O_4  and  C_26
REMARK    3  A    between atoms: C_8  and  C_14
REMARK    4  A    between atoms: C_19  and  C_20
REMARK    5  A    between atoms: C_21  and  C_24
REMARK    6  A    between atoms: C_26  and  C_27
REMARK                            x       y       z     vdW  Elec       q    Type
REMARK                         _______ _______ _______ _____ _____    ______ ____
ROOT
ATOM      1  S   UNL     1     -28.181   0.429 -58.115  0.00  0.00    +0.000 S 
ATOM      2  N   UNL     1     -26.211   0.166 -56.489  0.00  0.00    +0.000 N 
ATOM      3  N   UNL     1     -26.041   2.146 -57.503  0.00  0.00    +0.000 NA
ATOM      4  C   UNL     1     -25.001   1.973 -56.597  0.00  0.00    +0.000 A 
ATOM      5  C   UNL     1     -25.075   0.728 -55.968  0.00  0.00    +0.000 A 
ATOM      6  C   UNL     1     -26.734   1.052 -57.380  0.00  0.00    +0.000 A 
ATOM      7  C   UNL     1     -26.908  -1.020 -56.367  0.00  0.00    +0.000 A 
ATOM      8  C   UNL     1     -27.988  -1.050 -57.163  0.00  0.00    +0.000 A 
ENDROOT
BRANCH   4  14
ATOM      9  C   UNL     1     -22.116   5.092 -55.917  0.00  0.00    +0.000 A 
ATOM     10  C   UNL     1     -23.401   5.152 -55.369  0.00  0.00    +0.000 A 
ATOM     11  C   UNL     1     -21.772   3.967 -56.679  0.00  0.00    +0.000 A 
ATOM     12  C   UNL     1     -24.330   4.128 -55.591  0.00  0.00    +0.000 A 
ATOM     13  C   UNL     1     -22.698   2.934 -56.886  0.00  0.00    +0.000 A 
ATOM     14  C   UNL     1     -23.997   3.014 -56.372  0.00  0.00    +0.000 A 
BRANCH   9  15
ATOM     15  C   UNL     1     -21.084   6.183 -55.677  0.00  0.00    +0.000 C 
ATOM     16  C   UNL     1     -21.645   7.570 -56.037  0.00  0.00    +0.000 C 
ATOM     17  C   UNL     1     -19.763   5.917 -56.425  0.00  0.00    +0.000 C 
ATOM     18  C   UNL     1     -20.620   8.668 -55.763  0.00  0.00    +0.000 C 
ATOM     19  C   UNL     1     -18.746   7.036 -56.191  0.00  0.00    +0.000 C 
ATOM     20  C   UNL     1     -19.322   8.411 -56.520  0.00  0.00    +0.000 C 
ENDBRANCH   9  15
ENDBRANCH   4  14
BRANCH   5  22
ATOM     21  N   UNL     1     -24.642   0.013 -53.772  0.00  0.00    +0.000 NA
ATOM     22  C   UNL     1     -24.224   0.130 -54.989  0.00  0.00    +0.000 C 
BRANCH  21  23
ATOM     23  O   UNL     1     -23.597  -0.458 -52.965  0.00  0.00    +0.000 OA
BRANCH  23  24
ATOM     24  C   UNL     1     -24.145  -0.717 -51.672  0.00  0.00    +0.000 C 
BRANCH  24  27
ATOM     25 CL   UNL     1     -22.597  -5.599 -52.373  0.00  0.00    +0.000 Cl
ATOM     26 CL   UNL     1     -24.901  -6.528 -50.270  0.00  0.00    +0.000 Cl
ATOM     27  C   UNL     1     -24.461  -2.178 -51.467  0.00  0.00    +0.000 A 
ATOM     28  C   UNL     1     -23.605  -3.141 -52.026  0.00  0.00    +0.000 A 
ATOM     29  C   UNL     1     -25.494  -2.599 -50.620  0.00  0.00    +0.000 A 
ATOM     30  C   UNL     1     -23.735  -4.494 -51.691  0.00  0.00    +0.000 A 
ATOM     31  C   UNL     1     -25.635  -3.950 -50.296  0.00  0.00    +0.000 A 
ATOM     32  C   UNL     1     -24.741  -4.894 -50.808  0.00  0.00    +0.000 A 
ENDBRANCH  24  27
ENDBRANCH  23  24
ENDBRANCH  21  23
ENDBRANCH   5  22
TORSDOF 6
ENDMDL
MODEL 6
REMARK VINA RESULT:      -4.9     17.700     18.848
REMARK  Name = 155524131
REMARK  6 active torsions:
REMARK  status: ('A' for Active; 'I' for Inactive)
REMARK    1  A    between atoms: O_4  and  N_7
REMARK    2  A    between atoms: O_4  and  C_26
REMARK    3  A    between atoms: C_8  and  C_14
REMARK    4  A    between atoms: C_19  and  C_20
REMARK    5  A    between atoms: C_21  and  C_24
REMARK    6  A    between atoms: C_26  and  C_27
REMARK                            x       y       z     vdW  Elec       q    Type
REMARK                         _______ _______ _______ _____ _____    ______ ____
ROOT
ATOM      1  S   UNL     1     -12.171  21.629 -38.587  0.00  0.00    +0.000 S 
ATOM      2  N   UNL     1     -11.135  20.457 -40.623  0.00  0.00    +0.000 N 
ATOM      3  N   UNL     1     -13.350  20.199 -40.701  0.00  0.00    +0.000 NA
ATOM      4  C   UNL     1     -12.751  19.594 -41.800  0.00  0.00    +0.000 A 
ATOM      5  C   UNL     1     -11.361  19.723 -41.758  0.00  0.00    +0.000 A 
ATOM      6  C   UNL     1     -12.344  20.709 -40.051  0.00  0.00    +0.000 A 
ATOM      7  C   UNL     1     -10.047  20.956 -39.934  0.00  0.00    +0.000 A 
ATOM      8  C   UNL     1     -10.417  21.610 -38.822  0.00  0.00    +0.000 A 
ENDROOT
BRANCH   4  14
ATOM      9  C   UNL     1     -15.097  17.734 -44.890  0.00  0.00    +0.000 A 
ATOM     10  C   UNL     1     -14.542  19.007 -45.059  0.00  0.00    +0.000 A 
ATOM     11  C   UNL     1     -14.849  17.056 -43.689  0.00  0.00    +0.000 A 
ATOM     12  C   UNL     1     -13.774  19.600 -44.049  0.00  0.00    +0.000 A 
ATOM     13  C   UNL     1     -14.065  17.645 -42.685  0.00  0.00    +0.000 A 
ATOM     14  C   UNL     1     -13.544  18.934 -42.839  0.00  0.00    +0.000 A 
BRANCH   9  15
ATOM     15  C   UNL     1     -15.921  17.062 -45.978  0.00  0.00    +0.000 C 
ATOM     16  C   UNL     1     -15.623  15.554 -46.052  0.00  0.00    +0.000 C 
ATOM     17  C   UNL     1     -15.728  17.725 -47.355  0.00  0.00    +0.000 C 
ATOM     18  C   UNL     1     -16.475  14.874 -47.120  0.00  0.00    +0.000 C 
ATOM     19  C   UNL     1     -16.545  17.022 -48.441  0.00  0.00    +0.000 C 
ATOM     20  C   UNL     1     -16.266  15.522 -48.484  0.00  0.00    +0.000 C 
ENDBRANCH   9  15
ENDBRANCH   4  14
BRANCH   5  22
ATOM     21  N   UNL     1      -9.987  20.005 -43.643  0.00  0.00    +0.000 NA
ATOM     22  C   UNL     1     -10.358  19.254 -42.660  0.00  0.00    +0.000 C 
BRANCH  21  23
ATOM     23  O   UNL     1      -9.114  19.288 -44.473  0.00  0.00    +0.000 OA
BRANCH  23  24
ATOM     24  C   UNL     1      -9.555  17.929 -44.479  0.00  0.00    +0.000 C 
BRANCH  24  27
ATOM     25 CL   UNL     1     -10.258  18.214 -49.592  0.00  0.00    +0.000 Cl
ATOM     26 CL   UNL     1     -12.743  16.137 -49.267  0.00  0.00    +0.000 Cl
ATOM     27  C   UNL     1     -10.469  17.630 -45.641  0.00  0.00    +0.000 A 
ATOM     28  C   UNL     1     -10.110  18.085 -46.920  0.00  0.00    +0.000 A 
ATOM     29  C   UNL     1     -11.584  16.795 -45.507  0.00  0.00    +0.000 A 
ATOM     30  C   UNL     1     -10.811  17.658 -48.054  0.00  0.00    +0.000 A 
ATOM     31  C   UNL     1     -12.295  16.378 -46.635  0.00  0.00    +0.000 A 
ATOM     32  C   UNL     1     -11.893  16.786 -47.910  0.00  0.00    +0.000 A 
ENDBRANCH  24  27
ENDBRANCH  23  24
ENDBRANCH  21  23
ENDBRANCH   5  22
TORSDOF 6
ENDMDL
MODEL 7
REMARK VINA RESULT:      -4.8     23.146     25.668
REMARK  Name = 155524131
REMARK  6 active torsions:
REMARK  status: ('A' for Active; 'I' for Inactive)
REMARK    1  A    between atoms: O_4  and  N_7
REMARK    2  A    between atoms: O_4  and  C_26
REMARK    3  A    between atoms: C_8  and  C_14
REMARK    4  A    between atoms: C_19  and  C_20
REMARK    5  A    between atoms: C_21  and  C_24
REMARK    6  A    between atoms: C_26  and  C_27
REMARK                            x       y       z     vdW  Elec       q    Type
REMARK                         _______ _______ _______ _____ _____    ______ ____
ROOT
ATOM      1  S   UNL     1     -28.032   0.297 -58.161  0.00  0.00    +0.000 S 
ATOM      2  N   UNL     1     -26.159   0.154 -56.410  0.00  0.00    +0.000 N 
ATOM      3  N   UNL     1     -25.942   2.070 -57.534  0.00  0.00    +0.000 NA
ATOM      4  C   UNL     1     -24.956   1.963 -56.560  0.00  0.00    +0.000 A 
ATOM      5  C   UNL     1     -25.060   0.759 -55.860  0.00  0.00    +0.000 A 
ATOM      6  C   UNL     1     -26.635   0.978 -57.384  0.00  0.00    +0.000 A 
ATOM      7  C   UNL     1     -26.855  -1.028 -56.254  0.00  0.00    +0.000 A 
ATOM      8  C   UNL     1     -27.886  -1.118 -57.108  0.00  0.00    +0.000 A 
ENDROOT
BRANCH   4  14
ATOM      9  C   UNL     1     -22.135   5.146 -55.910  0.00  0.00    +0.000 A 
ATOM     10  C   UNL     1     -23.446   5.219 -55.425  0.00  0.00    +0.000 A 
ATOM     11  C   UNL     1     -21.746   3.988 -56.596  0.00  0.00    +0.000 A 
ATOM     12  C   UNL     1     -24.353   4.174 -55.637  0.00  0.00    +0.000 A 
ATOM     13  C   UNL     1     -22.652   2.935 -56.793  0.00  0.00    +0.000 A 
ATOM     14  C   UNL     1     -23.974   3.026 -56.344  0.00  0.00    +0.000 A 
BRANCH   9  15
ATOM     15  C   UNL     1     -21.126   6.260 -55.679  0.00  0.00    +0.000 C 
ATOM     16  C   UNL     1     -21.684   7.621 -56.132  0.00  0.00    +0.000 C 
ATOM     17  C   UNL     1     -19.771   5.974 -56.352  0.00  0.00    +0.000 C 
ATOM     18  C   UNL     1     -20.683   8.743 -55.868  0.00  0.00    +0.000 C 
ATOM     19  C   UNL     1     -18.776   7.115 -56.130  0.00  0.00    +0.000 C 
ATOM     20  C   UNL     1     -19.350   8.464 -56.553  0.00  0.00    +0.000 C 
ENDBRANCH   9  15
ENDBRANCH   4  14
BRANCH   5  22
ATOM     21  N   UNL     1     -24.731   0.233 -53.594  0.00  0.00    +0.000 NA
ATOM     22  C   UNL     1     -24.264   0.232 -54.798  0.00  0.00    +0.000 C 
BRANCH  21  23
ATOM     23  O   UNL     1     -23.732  -0.187 -52.706  0.00  0.00    +0.000 OA
BRANCH  23  24
ATOM     24  C   UNL     1     -24.113  -1.475 -52.218  0.00  0.00    +0.000 C 
BRANCH  24  27
ATOM     25 CL   UNL     1     -25.085   1.435 -48.058  0.00  0.00    +0.000 Cl
ATOM     26 CL   UNL     1     -27.273  -0.791 -47.134  0.00  0.00    +0.000 Cl
ATOM     27  C   UNL     1     -24.763  -1.402 -50.858  0.00  0.00    +0.000 A 
ATOM     28  C   UNL     1     -24.580  -0.246 -50.081  0.00  0.00    +0.000 A 
ATOM     29  C   UNL     1     -25.654  -2.385 -50.412  0.00  0.00    +0.000 A 
ATOM     30  C   UNL     1     -25.326  -0.045 -48.914  0.00  0.00    +0.000 A 
ATOM     31  C   UNL     1     -26.389  -2.194 -49.240  0.00  0.00    +0.000 A 
ATOM     32  C   UNL     1     -26.247  -1.013 -48.506  0.00  0.00    +0.000 A 
ENDBRANCH  24  27
ENDBRANCH  23  24
ENDBRANCH  21  23
ENDBRANCH   5  22
TORSDOF 6
ENDMDL
MODEL 8
REMARK VINA RESULT:      -4.7     23.244     25.849
REMARK  Name = 155524131
REMARK  6 active torsions:
REMARK  status: ('A' for Active; 'I' for Inactive)
REMARK    1  A    between atoms: O_4  and  N_7
REMARK    2  A    between atoms: O_4  and  C_26
REMARK    3  A    between atoms: C_8  and  C_14
REMARK    4  A    between atoms: C_19  and  C_20
REMARK    5  A    between atoms: C_21  and  C_24
REMARK    6  A    between atoms: C_26  and  C_27
REMARK                            x       y       z     vdW  Elec       q    Type
REMARK                         _______ _______ _______ _____ _____    ______ ____
ROOT
ATOM      1  S   UNL     1      -5.948  15.067 -51.528  0.00  0.00    +0.000 S 
ATOM      2  N   UNL     1      -5.867  14.938 -54.091  0.00  0.00    +0.000 N 
ATOM      3  N   UNL     1      -7.785  14.038 -53.390  0.00  0.00    +0.000 NA
ATOM      4  C   UNL     1      -7.711  14.005 -54.778  0.00  0.00    +0.000 A 
ATOM      5  C   UNL     1      -6.505  14.543 -55.237  0.00  0.00    +0.000 A 
ATOM      6  C   UNL     1      -6.674  14.618 -53.041  0.00  0.00    +0.000 A 
ATOM      7  C   UNL     1      -4.664  15.522 -53.746  0.00  0.00    +0.000 A 
ATOM      8  C   UNL     1      -4.541  15.667 -52.418  0.00  0.00    +0.000 A 
ENDROOT
BRANCH   4  14
ATOM      9  C   UNL     1     -10.954  12.520 -57.184  0.00  0.00    +0.000 A 
ATOM     10  C   UNL     1     -10.518  13.846 -57.281  0.00  0.00    +0.000 A 
ATOM     11  C   UNL     1     -10.286  11.666 -56.296  0.00  0.00    +0.000 A 
ATOM     12  C   UNL     1      -9.457  14.317 -56.498  0.00  0.00    +0.000 A 
ATOM     13  C   UNL     1      -9.213  12.135 -55.525  0.00  0.00    +0.000 A 
ATOM     14  C   UNL     1      -8.804  13.472 -55.592  0.00  0.00    +0.000 A 
BRANCH   9  15
ATOM     15  C   UNL     1     -12.093  11.981 -58.035  0.00  0.00    +0.000 C 
ATOM     16  C   UNL     1     -12.956  10.982 -57.244  0.00  0.00    +0.000 C 
ATOM     17  C   UNL     1     -11.596  11.351 -59.350  0.00  0.00    +0.000 C 
ATOM     18  C   UNL     1     -14.119  10.468 -58.088  0.00  0.00    +0.000 C 
ATOM     19  C   UNL     1     -12.753  10.792 -60.182  0.00  0.00    +0.000 C 
ATOM     20  C   UNL     1     -13.622   9.828 -59.379  0.00  0.00    +0.000 C 
ENDBRANCH   9  15
ENDBRANCH   4  14
BRANCH   5  22
ATOM     21  N   UNL     1      -6.123  15.842 -57.156  0.00  0.00    +0.000 NA
ATOM     22  C   UNL     1      -6.006  14.699 -56.565  0.00  0.00    +0.000 C 
BRANCH  21  23
ATOM     23  O   UNL     1      -5.704  15.722 -58.488  0.00  0.00    +0.000 OA
BRANCH  23  24
ATOM     24  C   UNL     1      -6.552  16.560 -59.276  0.00  0.00    +0.000 C 
BRANCH  24  27
ATOM     25 CL   UNL     1     -11.577  17.105 -60.357  0.00  0.00    +0.000 Cl
ATOM     26 CL   UNL     1     -11.552  14.070 -61.534  0.00  0.00    +0.000 Cl
ATOM     27  C   UNL     1      -7.837  15.870 -59.664  0.00  0.00    +0.000 A 
ATOM     28  C   UNL     1      -9.020  16.625 -59.718  0.00  0.00    +0.000 A 
ATOM     29  C   UNL     1      -7.857  14.542 -60.106  0.00  0.00    +0.000 A 
ATOM     30  C   UNL     1     -10.187  16.084 -60.269  0.00  0.00    +0.000 A 
ATOM     31  C   UNL     1      -9.025  13.995 -60.643  0.00  0.00    +0.000 A 
ATOM     32  C   UNL     1     -10.181  14.772 -60.751  0.00  0.00    +0.000 A 
ENDBRANCH  24  27
ENDBRANCH  23  24
ENDBRANCH  21  23
ENDBRANCH   5  22
TORSDOF 6
ENDMDL
MODEL 9
REMARK VINA RESULT:      -4.7     21.822     25.208
REMARK  Name = 155524131
REMARK  6 active torsions:
REMARK  status: ('A' for Active; 'I' for Inactive)
REMARK    1  A    between atoms: O_4  and  N_7
REMARK    2  A    between atoms: O_4  and  C_26
REMARK    3  A    between atoms: C_8  and  C_14
REMARK    4  A    between atoms: C_19  and  C_20
REMARK    5  A    between atoms: C_21  and  C_24
REMARK    6  A    between atoms: C_26  and  C_27
REMARK                            x       y       z     vdW  Elec       q    Type
REMARK                         _______ _______ _______ _____ _____    ______ ____
ROOT
ATOM      1  S   UNL     1      -1.116   7.842 -57.877  0.00  0.00    +0.000 S 
ATOM      2  N   UNL     1      -2.638   6.069 -56.813  0.00  0.00    +0.000 N 
ATOM      3  N   UNL     1      -2.930   6.027 -59.025  0.00  0.00    +0.000 NA
ATOM      4  C   UNL     1      -3.724   5.065 -58.411  0.00  0.00    +0.000 A 
ATOM      5  C   UNL     1      -3.574   5.091 -57.022  0.00  0.00    +0.000 A 
ATOM      6  C   UNL     1      -2.296   6.576 -58.029  0.00  0.00    +0.000 A 
ATOM      7  C   UNL     1      -2.008   6.660 -55.736  0.00  0.00    +0.000 A 
ATOM      8  C   UNL     1      -1.160   7.627 -56.121  0.00  0.00    +0.000 A 
ENDROOT
BRANCH   4  14
ATOM      9  C   UNL     1      -6.298   2.457 -60.667  0.00  0.00    +0.000 A 
ATOM     10  C   UNL     1      -6.729   3.716 -60.234  0.00  0.00    +0.000 A 
ATOM     11  C   UNL     1      -4.985   2.068 -60.370  0.00  0.00    +0.000 A 
ATOM     12  C   UNL     1      -5.880   4.560 -59.507  0.00  0.00    +0.000 A 
ATOM     13  C   UNL     1      -4.130   2.921 -59.656  0.00  0.00    +0.000 A 
ATOM     14  C   UNL     1      -4.575   4.163 -59.189  0.00  0.00    +0.000 A 
BRANCH   9  15
ATOM     15  C   UNL     1      -7.195   1.530 -61.472  0.00  0.00    +0.000 C 
ATOM     16  C   UNL     1      -6.898   0.053 -61.155  0.00  0.00    +0.000 C 
ATOM     17  C   UNL     1      -7.103   1.793 -62.987  0.00  0.00    +0.000 C 
ATOM     18  C   UNL     1      -7.822  -0.876 -61.938  0.00  0.00    +0.000 C 
ATOM     19  C   UNL     1      -7.992   0.836 -63.783  0.00  0.00    +0.000 C 
ATOM     20  C   UNL     1      -7.713  -0.625 -63.438  0.00  0.00    +0.000 C 
ENDBRANCH   9  15
ENDBRANCH   4  14
BRANCH   5  22
ATOM     21  N   UNL     1      -4.905   4.879 -55.098  0.00  0.00    +0.000 NA
ATOM     22  C   UNL     1      -4.194   4.300 -56.008  0.00  0.00    +0.000 C 
BRANCH  21  23
ATOM     23  O   UNL     1      -5.286   3.936 -54.134  0.00  0.00    +0.000 OA
BRANCH  23  24
ATOM     24  C   UNL     1      -4.393   2.826 -54.251  0.00  0.00    +0.000 C 
BRANCH  24  27
ATOM     25 CL   UNL     1      -6.735  -0.319 -50.884  0.00  0.00    +0.000 Cl
ATOM     26 CL   UNL     1      -7.836  -2.046 -53.413  0.00  0.00    +0.000 Cl
ATOM     27  C   UNL     1      -5.091   1.506 -54.040  0.00  0.00    +0.000 A 
ATOM     28  C   UNL     1      -5.455   1.133 -52.736  0.00  0.00    +0.000 A 
ATOM     29  C   UNL     1      -5.510   0.713 -55.114  0.00  0.00    +0.000 A 
ATOM     30  C   UNL     1      -6.282   0.026 -52.514  0.00  0.00    +0.000 A 
ATOM     31  C   UNL     1      -6.324  -0.401 -54.895  0.00  0.00    +0.000 A 
ATOM     32  C   UNL     1      -6.733  -0.729 -53.599  0.00  0.00    +0.000 A 
ENDBRANCH  24  27
ENDBRANCH  23  24
ENDBRANCH  21  23
ENDBRANCH   5  22
TORSDOF 6
ENDMDL
MODEL 10
REMARK VINA RESULT:      -4.6     22.079     24.191
REMARK  Name = 155524131
REMARK  6 active torsions:
REMARK  status: ('A' for Active; 'I' for Inactive)
REMARK    1  A    between atoms: O_4  and  N_7
REMARK    2  A    between atoms: O_4  and  C_26
REMARK    3  A    between atoms: C_8  and  C_14
REMARK    4  A    between atoms: C_19  and  C_20
REMARK    5  A    between atoms: C_21  and  C_24
REMARK    6  A    between atoms: C_26  and  C_27
REMARK                            x       y       z     vdW  Elec       q    Type
REMARK                         _______ _______ _______ _____ _____    ______ ____
ROOT
ATOM      1  S   UNL     1     -25.513   3.829 -48.339  0.00  0.00    +0.000 S 
ATOM      2  N   UNL     1     -25.665   2.883 -50.721  0.00  0.00    +0.000 N 
ATOM      3  N   UNL     1     -25.043   1.244 -49.340  0.00  0.00    +0.000 NA
ATOM      4  C   UNL     1     -25.156   0.767 -50.641  0.00  0.00    +0.000 A 
ATOM      5  C   UNL     1     -25.522   1.784 -51.527  0.00  0.00    +0.000 A 
ATOM      6  C   UNL     1     -25.374   2.498 -49.448  0.00  0.00    +0.000 A 
ATOM      7  C   UNL     1     -25.985   4.218 -50.870  0.00  0.00    +0.000 A 
ATOM      8  C   UNL     1     -25.953   4.873 -49.699  0.00  0.00    +0.000 A 
ENDROOT
BRANCH   4  14
ATOM      9  C   UNL     1     -24.514  -3.395 -51.524  0.00  0.00    +0.000 A 
ATOM     10  C   UNL     1     -25.622  -2.966 -50.786  0.00  0.00    +0.000 A 
ATOM     11  C   UNL     1     -23.620  -2.427 -52.001  0.00  0.00    +0.000 A 
ATOM     12  C   UNL     1     -25.825  -1.608 -50.510  0.00  0.00    +0.000 A 
ATOM     13  C   UNL     1     -23.834  -1.065 -51.738  0.00  0.00    +0.000 A 
ATOM     14  C   UNL     1     -24.920  -0.641 -50.965  0.00  0.00    +0.000 A 
BRANCH   9  15
ATOM     15  C   UNL     1     -24.280  -4.861 -51.851  0.00  0.00    +0.000 C 
ATOM     16  C   UNL     1     -24.599  -5.760 -50.643  0.00  0.00    +0.000 C 
ATOM     17  C   UNL     1     -22.854  -5.128 -52.368  0.00  0.00    +0.000 C 
ATOM     18  C   UNL     1     -24.397  -7.234 -50.982  0.00  0.00    +0.000 C 
ATOM     19  C   UNL     1     -22.629  -6.612 -52.669  0.00  0.00    +0.000 C 
ATOM     20  C   UNL     1     -22.979  -7.496 -51.476  0.00  0.00    +0.000 C 
ENDBRANCH   9  15
ENDBRANCH   4  14
BRANCH   5  22
ATOM     21  N   UNL     1     -24.729   1.614 -53.732  0.00  0.00    +0.000 NA
ATOM     22  C   UNL     1     -25.739   1.751 -52.938  0.00  0.00    +0.000 C 
BRANCH  21  23
ATOM     23  O   UNL     1     -25.157   1.758 -55.058  0.00  0.00    +0.000 OA
BRANCH  23  24
ATOM     24  C   UNL     1     -25.326   3.156 -55.300  0.00  0.00    +0.000 C 
BRANCH  24  27
ATOM     25 CL   UNL     1     -22.147   7.177 -54.634  0.00  0.00    +0.000 Cl
ATOM     26 CL   UNL     1     -19.886   5.542 -56.312  0.00  0.00    +0.000 Cl
ATOM     27  C   UNL     1     -24.039   3.824 -55.716  0.00  0.00    +0.000 A 
ATOM     28  C   UNL     1     -23.729   5.088 -55.187  0.00  0.00    +0.000 A 
ATOM     29  C   UNL     1     -23.083   3.163 -56.497  0.00  0.00    +0.000 A 
ATOM     30  C   UNL     1     -22.462   5.651 -55.377  0.00  0.00    +0.000 A 
ATOM     31  C   UNL     1     -21.823   3.729 -56.700  0.00  0.00    +0.000 A 
ATOM     32  C   UNL     1     -21.501   4.958 -56.119  0.00  0.00    +0.000 A 
ENDBRANCH  24  27
ENDBRANCH  23  24
ENDBRANCH  21  23
ENDBRANCH   5  22
TORSDOF 6
ENDMDL
