REMARK  Name = 155524131
REMARK  6 active torsions:
REMARK  status: ('A' for Active; 'I' for Inactive)
REMARK    1  A    between atoms: O_4  and  N_7
REMARK    2  A    between atoms: O_4  and  C_26
REMARK    3  A    between atoms: C_8  and  C_14
REMARK    4  A    between atoms: C_19  and  C_20
REMARK    5  A    between atoms: C_21  and  C_24
REMARK    6  A    between atoms: C_26  and  C_27
REMARK                            x       y       z     vdW  Elec       q    Type
REMARK                         _______ _______ _______ _____ _____    ______ ____
ROOT
ATOM      1  S   UNL     1      -4.541   2.050  -8.483  0.00  0.00    +0.000 S 
ATOM      2  N   UNL     1      -4.800   1.498  -5.989  0.00  0.00    +0.000 N 
ATOM      3  N   UNL     1      -2.729   0.966  -6.627  0.00  0.00    +0.000 NA
ATOM      4  C   UNL     1      -2.904   0.700  -5.274  0.00  0.00    +0.000 A 
ATOM      5  C   UNL     1      -4.203   1.004  -4.859  0.00  0.00    +0.000 A 
ATOM      6  C   UNL     1      -3.879   1.454  -6.991  0.00  0.00    +0.000 A 
ATOM      7  C   UNL     1      -6.041   1.978  -6.357  0.00  0.00    +0.000 A 
ATOM      8  C   UNL     1      -6.081   2.320  -7.654  0.00  0.00    +0.000 A 
ENDROOT
BRANCH   4  14
ATOM      9  C   UNL     1       0.315  -0.892  -2.904  0.00  0.00    +0.000 A 
ATOM     10  C   UNL     1       0.223  -1.144  -4.277  0.00  0.00    +0.000 A 
ATOM     11  C   UNL     1      -0.660  -0.077  -2.313  0.00  0.00    +0.000 A 
ATOM     12  C   UNL     1      -0.825  -0.615  -5.040  0.00  0.00    +0.000 A 
ATOM     13  C   UNL     1      -1.700   0.466  -3.082  0.00  0.00    +0.000 A 
ATOM     14  C   UNL     1      -1.814   0.180  -4.447  0.00  0.00    +0.000 A 
BRANCH   9  15
ATOM     15  C   UNL     1       1.452  -1.441  -2.057  0.00  0.00    +0.000 C 
ATOM     16  C   UNL     1       2.810  -0.879  -2.514  0.00  0.00    +0.000 C 
ATOM     17  C   UNL     1       1.478  -2.981  -2.035  0.00  0.00    +0.000 C 
ATOM     18  C   UNL     1       3.947  -1.404  -1.641  0.00  0.00    +0.000 C 
ATOM     19  C   UNL     1       2.642  -3.516  -1.198  0.00  0.00    +0.000 C 
ATOM     20  C   UNL     1       3.980  -2.928  -1.638  0.00  0.00    +0.000 C 
ENDBRANCH   9  15
ENDBRANCH   4  14
BRANCH   5  22
ATOM     21  N   UNL     1      -5.712   1.743  -3.217  0.00  0.00    +0.000 NA
ATOM     22  C   UNL     1      -4.820   0.881  -3.577  0.00  0.00    +0.000 C 
BRANCH  21  23
ATOM     23  O   UNL     1      -6.066   1.516  -1.880  0.00  0.00    +0.000 OA
BRANCH  23  24
ATOM     24  C   UNL     1      -6.543   2.755  -1.352  0.00  0.00    +0.000 C 
BRANCH  24  27
ATOM     25 CL   UNL     1      -7.824   5.164   3.038  0.00  0.00    +0.000 Cl
ATOM     26 CL   UNL     1      -9.340   2.440   3.975  0.00  0.00    +0.000 Cl
ATOM     27  C   UNL     1      -7.076   2.611   0.052  0.00  0.00    +0.000 A 
ATOM     28  C   UNL     1      -7.107   3.742   0.884  0.00  0.00    +0.000 A 
ATOM     29  C   UNL     1      -7.669   1.424   0.498  0.00  0.00    +0.000 A 
ATOM     30  C   UNL     1      -7.779   3.708   2.111  0.00  0.00    +0.000 A 
ATOM     31  C   UNL     1      -8.328   1.383   1.729  0.00  0.00    +0.000 A 
ATOM     32  C   UNL     1      -8.408   2.530   2.523  0.00  0.00    +0.000 A 
ENDBRANCH  24  27
ENDBRANCH  23  24
ENDBRANCH  21  23
ENDBRANCH   5  22
TORSDOF 6
