REMARK  Name = 155635625
REMARK  6 active torsions:
REMARK  status: ('A' for Active; 'I' for Inactive)
REMARK    1  A    between atoms: O_4  and  N_7
REMARK    2  A    between atoms: O_4  and  C_22
REMARK    3  A    between atoms: N_8  and  C_20
REMARK    4  A    between atoms: C_9  and  C_14
REMARK    5  A    between atoms: C_10  and  C_12
REMARK    6  A    between atoms: C_21  and  C_22
REMARK                            x       y       z     vdW  Elec       q    Type
REMARK                         _______ _______ _______ _____ _____    ______ ____
ROOT
ATOM      1  S   UNL     1      -4.609   2.071  -8.445  0.00  0.00    +0.000 S 
ATOM      2  N   UNL     1      -4.835   1.560  -5.941  0.00  0.00    +0.000 N 
ATOM      3  N   UNL     1      -2.757   1.072  -6.586  0.00  0.00    +0.000 NA
ATOM      4  C   UNL     1      -4.229   1.081  -4.809  0.00  0.00    +0.000 A 
ATOM      5  C   UNL     1      -2.921   0.804  -5.231  0.00  0.00    +0.000 A 
ATOM      6  C   UNL     1      -3.923   1.522  -6.948  0.00  0.00    +0.000 A 
ATOM      7  C   UNL     1      -6.091   2.003  -6.302  0.00  0.00    +0.000 A 
ATOM      8  C   UNL     1      -6.146   2.320  -7.607  0.00  0.00    +0.000 A 
ENDROOT
BRANCH   5   9
ATOM      9  C   UNL     1      -1.808   0.310  -4.423  0.00  0.00    +0.000 A 
ATOM     10  C   UNL     1      -1.661   0.651  -3.070  0.00  0.00    +0.000 A 
ATOM     11  C   UNL     1      -0.822  -0.495  -5.023  0.00  0.00    +0.000 A 
ATOM     12  C   UNL     1      -0.591   0.166  -2.315  0.00  0.00    +0.000 A 
ATOM     13  C   UNL     1       0.269  -0.965  -4.282  0.00  0.00    +0.000 A 
ATOM     14  C   UNL     1       0.368  -0.628  -2.934  0.00  0.00    +0.000 A 
BRANCH  14  15
ATOM     15  N   UNL     1       1.458  -1.064  -2.194  0.00  0.00    +0.000 NA
ATOM     16  C   UNL     1       2.378  -1.416  -1.559  0.00  0.00    +0.000 C 
ENDBRANCH  14  15
ENDBRANCH   5   9
BRANCH   4  18
ATOM     17  N   UNL     1      -4.550  -0.083  -2.794  0.00  0.00    +0.000 NA
ATOM     18  C   UNL     1      -4.903   0.893  -3.559  0.00  0.00    +0.000 C 
BRANCH  17  19
ATOM     19  O   UNL     1      -5.321  -0.110  -1.623  0.00  0.00    +0.000 OA
BRANCH  19  20
ATOM     20  C   UNL     1      -5.080  -1.380  -1.014  0.00  0.00    +0.000 C 
BRANCH  20  23
ATOM     21 CL   UNL     1      -8.790  -3.821   1.659  0.00  0.00    +0.000 Cl
ATOM     22 CL   UNL     1      -7.767  -2.246   4.317  0.00  0.00    +0.000 Cl
ATOM     23  C   UNL     1      -5.826  -1.517   0.286  0.00  0.00    +0.000 A 
ATOM     24  C   UNL     1      -6.888  -2.428   0.389  0.00  0.00    +0.000 A 
ATOM     25  C   UNL     1      -5.432  -0.799   1.421  0.00  0.00    +0.000 A 
ATOM     26  C   UNL     1      -7.514  -2.657   1.617  0.00  0.00    +0.000 A 
ATOM     27  C   UNL     1      -6.055  -1.027   2.651  0.00  0.00    +0.000 A 
ATOM     28  C   UNL     1      -7.086  -1.967   2.755  0.00  0.00    +0.000 A 
ENDBRANCH  20  23
ENDBRANCH  19  20
ENDBRANCH  17  19
ENDBRANCH   4  18
TORSDOF 6
