MODEL 1
REMARK VINA RESULT:      -5.7      0.000      0.000
REMARK  Name = 155635625
REMARK  6 active torsions:
REMARK  status: ('A' for Active; 'I' for Inactive)
REMARK    1  A    between atoms: O_4  and  N_7
REMARK    2  A    between atoms: O_4  and  C_22
REMARK    3  A    between atoms: N_8  and  C_20
REMARK    4  A    between atoms: C_9  and  C_14
REMARK    5  A    between atoms: C_10  and  C_12
REMARK    6  A    between atoms: C_21  and  C_22
REMARK                            x       y       z     vdW  Elec       q    Type
REMARK                         _______ _______ _______ _____ _____    ______ ____
ROOT
ATOM      1  S   UNL     1      14.364  13.888  27.059  0.00  0.00    +0.000 S 
ATOM      2  N   UNL     1      13.433  12.410  25.179  0.00  0.00    +0.000 N 
ATOM      3  N   UNL     1      12.397  14.384  25.118  0.00  0.00    +0.000 NA
ATOM      4  C   UNL     1      12.537  12.294  24.149  0.00  0.00    +0.000 A 
ATOM      5  C   UNL     1      11.916  13.550  24.113  0.00  0.00    +0.000 A 
ATOM      6  C   UNL     1      13.296  13.654  25.710  0.00  0.00    +0.000 A 
ATOM      7  C   UNL     1      14.358  11.601  25.808  0.00  0.00    +0.000 A 
ATOM      8  C   UNL     1      14.950  12.235  26.835  0.00  0.00    +0.000 A 
ENDROOT
BRANCH   5   9
ATOM      9  C   UNL     1      10.898  14.016  23.174  0.00  0.00    +0.000 A 
ATOM     10  C   UNL     1      11.156  14.150  21.802  0.00  0.00    +0.000 A 
ATOM     11  C   UNL     1       9.630  14.390  23.658  0.00  0.00    +0.000 A 
ATOM     12  C   UNL     1      10.168  14.595  20.921  0.00  0.00    +0.000 A 
ATOM     13  C   UNL     1       8.641  14.863  22.787  0.00  0.00    +0.000 A 
ATOM     14  C   UNL     1       8.925  14.957  21.426  0.00  0.00    +0.000 A 
BRANCH  14  15
ATOM     15  N   UNL     1       7.963  15.449  20.555  0.00  0.00    +0.000 NA
ATOM     16  C   UNL     1       7.142  15.874  19.834  0.00  0.00    +0.000 C 
ENDBRANCH  14  15
ENDBRANCH   5   9
BRANCH   4  18
ATOM     17  N   UNL     1      11.192  10.493  23.469  0.00  0.00    +0.000 NA
ATOM     18  C   UNL     1      12.332  11.091  23.399  0.00  0.00    +0.000 C 
BRANCH  17  19
ATOM     19  O   UNL     1      11.179   9.337  22.675  0.00  0.00    +0.000 OA
BRANCH  19  20
ATOM     20  C   UNL     1      11.543   9.752  21.357  0.00  0.00    +0.000 C 
BRANCH  20  23
ATOM     21 CL   UNL     1      14.093   8.238  17.106  0.00  0.00    +0.000 Cl
ATOM     22 CL   UNL     1      15.956   6.372  19.013  0.00  0.00    +0.000 Cl
ATOM     23  C   UNL     1      12.567   8.828  20.753  0.00  0.00    +0.000 A 
ATOM     24  C   UNL     1      12.812   8.866  19.372  0.00  0.00    +0.000 A 
ATOM     25  C   UNL     1      13.333   7.977  21.557  0.00  0.00    +0.000 A 
ATOM     26  C   UNL     1      13.839   8.104  18.809  0.00  0.00    +0.000 A 
ATOM     27  C   UNL     1      14.362   7.216  20.998  0.00  0.00    +0.000 A 
ATOM     28  C   UNL     1      14.628   7.289  19.627  0.00  0.00    +0.000 A 
ENDBRANCH  20  23
ENDBRANCH  19  20
ENDBRANCH  17  19
ENDBRANCH   4  18
TORSDOF 6
ENDMDL
MODEL 2
REMARK VINA RESULT:      -5.6     20.857     22.989
REMARK  Name = 155635625
REMARK  6 active torsions:
REMARK  status: ('A' for Active; 'I' for Inactive)
REMARK    1  A    between atoms: O_4  and  N_7
REMARK    2  A    between atoms: O_4  and  C_22
REMARK    3  A    between atoms: N_8  and  C_20
REMARK    4  A    between atoms: C_9  and  C_14
REMARK    5  A    between atoms: C_10  and  C_12
REMARK    6  A    between atoms: C_21  and  C_22
REMARK                            x       y       z     vdW  Elec       q    Type
REMARK                         _______ _______ _______ _____ _____    ______ ____
ROOT
ATOM      1  S   UNL     1       0.116  12.878  34.226  0.00  0.00    +0.000 S 
ATOM      2  N   UNL     1      -1.808  11.835  35.565  0.00  0.00    +0.000 N 
ATOM      3  N   UNL     1       0.095  10.826  36.143  0.00  0.00    +0.000 NA
ATOM      4  C   UNL     1      -2.187  10.889  36.481  0.00  0.00    +0.000 A 
ATOM      5  C   UNL     1      -0.975  10.285  36.847  0.00  0.00    +0.000 A 
ATOM      6  C   UNL     1      -0.461  11.743  35.405  0.00  0.00    +0.000 A 
ATOM      7  C   UNL     1      -2.430  12.777  34.772  0.00  0.00    +0.000 A 
ATOM      8  C   UNL     1      -1.548  13.428  33.994  0.00  0.00    +0.000 A 
ENDROOT
BRANCH   5   9
ATOM      9  C   UNL     1      -0.767   9.229  37.836  0.00  0.00    +0.000 A 
ATOM     10  C   UNL     1      -0.533   9.513  39.190  0.00  0.00    +0.000 A 
ATOM     11  C   UNL     1      -0.752   7.885  37.420  0.00  0.00    +0.000 A 
ATOM     12  C   UNL     1      -0.339   8.489  40.119  0.00  0.00    +0.000 A 
ATOM     13  C   UNL     1      -0.531   6.852  38.339  0.00  0.00    +0.000 A 
ATOM     14  C   UNL     1      -0.329   7.170  39.680  0.00  0.00    +0.000 A 
BRANCH  14  15
ATOM     15  N   UNL     1      -0.082   6.159  40.597  0.00  0.00    +0.000 NA
ATOM     16  C   UNL     1       0.108   5.298  41.369  0.00  0.00    +0.000 C 
ENDBRANCH  14  15
ENDBRANCH   5   9
BRANCH   4  18
ATOM     17  N   UNL     1      -4.105   9.533  36.461  0.00  0.00    +0.000 NA
ATOM     18  C   UNL     1      -3.547  10.629  36.847  0.00  0.00    +0.000 C 
BRANCH  17  19
ATOM     19  O   UNL     1      -5.432   9.457  36.909  0.00  0.00    +0.000 OA
BRANCH  19  20
ATOM     20  C   UNL     1      -6.248   9.895  35.820  0.00  0.00    +0.000 C 
BRANCH  20  23
ATOM     21 CL   UNL     1     -11.123  10.162  34.081  0.00  0.00    +0.000 Cl
ATOM     22 CL   UNL     1     -11.985   8.160  36.498  0.00  0.00    +0.000 Cl
ATOM     23  C   UNL     1      -7.696   9.557  36.048  0.00  0.00    +0.000 A 
ATOM     24  C   UNL     1      -8.668  10.000  35.138  0.00  0.00    +0.000 A 
ATOM     25  C   UNL     1      -8.086   8.746  37.120  0.00  0.00    +0.000 A 
ATOM     26  C   UNL     1     -10.000   9.597  35.266  0.00  0.00    +0.000 A 
ATOM     27  C   UNL     1      -9.417   8.340  37.250  0.00  0.00    +0.000 A 
ATOM     28  C   UNL     1     -10.373   8.752  36.315  0.00  0.00    +0.000 A 
ENDBRANCH  20  23
ENDBRANCH  19  20
ENDBRANCH  17  19
ENDBRANCH   4  18
TORSDOF 6
ENDMDL
MODEL 3
REMARK VINA RESULT:      -5.6     27.390     30.022
REMARK  Name = 155635625
REMARK  6 active torsions:
REMARK  status: ('A' for Active; 'I' for Inactive)
REMARK    1  A    between atoms: O_4  and  N_7
REMARK    2  A    between atoms: O_4  and  C_22
REMARK    3  A    between atoms: N_8  and  C_20
REMARK    4  A    between atoms: C_9  and  C_14
REMARK    5  A    between atoms: C_10  and  C_12
REMARK    6  A    between atoms: C_21  and  C_22
REMARK                            x       y       z     vdW  Elec       q    Type
REMARK                         _______ _______ _______ _____ _____    ______ ____
ROOT
ATOM      1  S   UNL     1     -21.566   3.322  23.557  0.00  0.00    +0.000 S 
ATOM      2  N   UNL     1     -19.039   3.767  23.498  0.00  0.00    +0.000 N 
ATOM      3  N   UNL     1     -19.569   2.917  25.490  0.00  0.00    +0.000 NA
ATOM      4  C   UNL     1     -17.853   3.735  24.183  0.00  0.00    +0.000 A 
ATOM      5  C   UNL     1     -18.205   3.176  25.420  0.00  0.00    +0.000 A 
ATOM      6  C   UNL     1     -20.007   3.283  24.320  0.00  0.00    +0.000 A 
ATOM      7  C   UNL     1     -19.479   4.193  22.261  0.00  0.00    +0.000 A 
ATOM      8  C   UNL     1     -20.805   4.026  22.124  0.00  0.00    +0.000 A 
ENDROOT
BRANCH   5   9
ATOM      9  C   UNL     1     -17.321   2.860  26.540  0.00  0.00    +0.000 A 
ATOM     10  C   UNL     1     -17.024   1.538  26.904  0.00  0.00    +0.000 A 
ATOM     11  C   UNL     1     -16.785   3.906  27.314  0.00  0.00    +0.000 A 
ATOM     12  C   UNL     1     -16.175   1.258  27.977  0.00  0.00    +0.000 A 
ATOM     13  C   UNL     1     -15.954   3.636  28.408  0.00  0.00    +0.000 A 
ATOM     14  C   UNL     1     -15.659   2.312  28.724  0.00  0.00    +0.000 A 
BRANCH  14  15
ATOM     15  N   UNL     1     -14.859   2.028  29.822  0.00  0.00    +0.000 NA
ATOM     16  C   UNL     1     -14.189   1.805  30.757  0.00  0.00    +0.000 C 
ENDBRANCH  14  15
ENDBRANCH   5   9
BRANCH   4  18
ATOM     17  N   UNL     1     -15.955   3.543  22.811  0.00  0.00    +0.000 NA
ATOM     18  C   UNL     1     -16.617   4.244  23.667  0.00  0.00    +0.000 C 
BRANCH  17  19
ATOM     19  O   UNL     1     -14.777   4.199  22.426  0.00  0.00    +0.000 OA
BRANCH  19  20
ATOM     20  C   UNL     1     -15.143   5.553  22.153  0.00  0.00    +0.000 C 
BRANCH  20  23
ATOM     21 CL   UNL     1     -14.108   9.018  18.439  0.00  0.00    +0.000 Cl
ATOM     22 CL   UNL     1     -10.948   8.663  19.132  0.00  0.00    +0.000 Cl
ATOM     23  C   UNL     1     -14.098   6.247  21.320  0.00  0.00    +0.000 A 
ATOM     24  C   UNL     1     -14.489   7.155  20.325  0.00  0.00    +0.000 A 
ATOM     25  C   UNL     1     -12.735   6.056  21.570  0.00  0.00    +0.000 A 
ATOM     26  C   UNL     1     -13.536   7.898  19.624  0.00  0.00    +0.000 A 
ATOM     27  C   UNL     1     -11.779   6.799  20.872  0.00  0.00    +0.000 A 
ATOM     28  C   UNL     1     -12.178   7.732  19.910  0.00  0.00    +0.000 A 
ENDBRANCH  20  23
ENDBRANCH  19  20
ENDBRANCH  17  19
ENDBRANCH   4  18
TORSDOF 6
ENDMDL
MODEL 4
REMARK VINA RESULT:      -5.5     29.458     31.624
REMARK  Name = 155635625
REMARK  6 active torsions:
REMARK  status: ('A' for Active; 'I' for Inactive)
REMARK    1  A    between atoms: O_4  and  N_7
REMARK    2  A    between atoms: O_4  and  C_22
REMARK    3  A    between atoms: N_8  and  C_20
REMARK    4  A    between atoms: C_9  and  C_14
REMARK    5  A    between atoms: C_10  and  C_12
REMARK    6  A    between atoms: C_21  and  C_22
REMARK                            x       y       z     vdW  Elec       q    Type
REMARK                         _______ _______ _______ _____ _____    ______ ____
ROOT
ATOM      1  S   UNL     1     -10.607 -14.142  19.018  0.00  0.00    +0.000 S 
ATOM      2  N   UNL     1      -9.900 -11.837  18.141  0.00  0.00    +0.000 N 
ATOM      3  N   UNL     1      -8.103 -13.155  18.219  0.00  0.00    +0.000 NA
ATOM      4  C   UNL     1      -8.871 -11.037  17.717  0.00  0.00    +0.000 A 
ATOM      5  C   UNL     1      -7.759 -11.891  17.750  0.00  0.00    +0.000 A 
ATOM      6  C   UNL     1      -9.384 -13.061  18.427  0.00  0.00    +0.000 A 
ATOM      7  C   UNL     1     -11.251 -11.697  18.383  0.00  0.00    +0.000 A 
ATOM      8  C   UNL     1     -11.788 -12.836  18.855  0.00  0.00    +0.000 A 
ENDROOT
BRANCH   5   9
ATOM      9  C   UNL     1      -6.386 -11.585  17.353  0.00  0.00    +0.000 A 
ATOM     10  C   UNL     1      -5.369 -11.370  18.295  0.00  0.00    +0.000 A 
ATOM     11  C   UNL     1      -6.075 -11.453  15.987  0.00  0.00    +0.000 A 
ATOM     12  C   UNL     1      -4.063 -11.081  17.893  0.00  0.00    +0.000 A 
ATOM     13  C   UNL     1      -4.775 -11.137  15.574  0.00  0.00    +0.000 A 
ATOM     14  C   UNL     1      -3.784 -10.957  16.537  0.00  0.00    +0.000 A 
BRANCH  14  15
ATOM     15  N   UNL     1      -2.497 -10.617  16.144  0.00  0.00    +0.000 NA
ATOM     16  C   UNL     1      -1.409 -10.346  15.802  0.00  0.00    +0.000 C 
ENDBRANCH  14  15
ENDBRANCH   5   9
BRANCH   4  18
ATOM     17  N   UNL     1      -9.350  -9.304  16.206  0.00  0.00    +0.000 NA
ATOM     18  C   UNL     1      -9.015  -9.647  17.403  0.00  0.00    +0.000 C 
BRANCH  17  19
ATOM     19  O   UNL     1      -9.437  -7.909  16.087  0.00  0.00    +0.000 OA
BRANCH  19  20
ATOM     20  C   UNL     1     -10.515  -7.502  16.932  0.00  0.00    +0.000 C 
BRANCH  20  23
ATOM     21 CL   UNL     1     -12.056  -4.434  13.048  0.00  0.00    +0.000 Cl
ATOM     22 CL   UNL     1     -15.057  -5.632  13.430  0.00  0.00    +0.000 Cl
ATOM     23  C   UNL     1     -11.663  -6.949  16.130  0.00  0.00    +0.000 A 
ATOM     24  C   UNL     1     -11.419  -6.006  15.121  0.00  0.00    +0.000 A 
ATOM     25  C   UNL     1     -12.968  -7.414  16.327  0.00  0.00    +0.000 A 
ATOM     26  C   UNL     1     -12.453  -5.571  14.287  0.00  0.00    +0.000 A 
ATOM     27  C   UNL     1     -14.004  -6.982  15.494  0.00  0.00    +0.000 A 
ATOM     28  C   UNL     1     -13.746  -6.073  14.463  0.00  0.00    +0.000 A 
ENDBRANCH  20  23
ENDBRANCH  19  20
ENDBRANCH  17  19
ENDBRANCH   4  18
TORSDOF 6
ENDMDL
MODEL 5
REMARK VINA RESULT:      -5.5     34.083     35.314
REMARK  Name = 155635625
REMARK  6 active torsions:
REMARK  status: ('A' for Active; 'I' for Inactive)
REMARK    1  A    between atoms: O_4  and  N_7
REMARK    2  A    between atoms: O_4  and  C_22
REMARK    3  A    between atoms: N_8  and  C_20
REMARK    4  A    between atoms: C_9  and  C_14
REMARK    5  A    between atoms: C_10  and  C_12
REMARK    6  A    between atoms: C_21  and  C_22
REMARK                            x       y       z     vdW  Elec       q    Type
REMARK                         _______ _______ _______ _____ _____    ______ ____
ROOT
ATOM      1  S   UNL     1      -3.535 -12.520   4.151  0.00  0.00    +0.000 S 
ATOM      2  N   UNL     1      -1.515 -14.099   4.239  0.00  0.00    +0.000 N 
ATOM      3  N   UNL     1      -1.629 -13.196   2.203  0.00  0.00    +0.000 NA
ATOM      4  C   UNL     1      -0.469 -14.662   3.556  0.00  0.00    +0.000 A 
ATOM      5  C   UNL     1      -0.545 -14.064   2.290  0.00  0.00    +0.000 A 
ATOM      6  C   UNL     1      -2.160 -13.256   3.390  0.00  0.00    +0.000 A 
ATOM      7  C   UNL     1      -2.074 -14.208   5.496  0.00  0.00    +0.000 A 
ATOM      8  C   UNL     1      -3.162 -13.429   5.621  0.00  0.00    +0.000 A 
ENDROOT
BRANCH   5   9
ATOM      9  C   UNL     1       0.356 -14.255   1.156  0.00  0.00    +0.000 A 
ATOM     10  C   UNL     1       1.743 -14.071   1.268  0.00  0.00    +0.000 A 
ATOM     11  C   UNL     1      -0.177 -14.588  -0.103  0.00  0.00    +0.000 A 
ATOM     12  C   UNL     1       2.587 -14.262   0.172  0.00  0.00    +0.000 A 
ATOM     13  C   UNL     1       0.658 -14.755  -1.214  0.00  0.00    +0.000 A 
ATOM     14  C   UNL     1       2.033 -14.591  -1.060  0.00  0.00    +0.000 A 
BRANCH  14  15
ATOM     15  N   UNL     1       2.870 -14.727  -2.158  0.00  0.00    +0.000 NA
ATOM     16  C   UNL     1       3.587 -14.827  -3.080  0.00  0.00    +0.000 C 
ENDBRANCH  14  15
ENDBRANCH   5   9
BRANCH   4  18
ATOM     17  N   UNL     1       0.031 -16.905   4.045  0.00  0.00    +0.000 NA
ATOM     18  C   UNL     1       0.393 -15.669   4.100  0.00  0.00    +0.000 C 
BRANCH  17  19
ATOM     19  O   UNL     1       0.995 -17.739   4.628  0.00  0.00    +0.000 OA
BRANCH  19  20
ATOM     20  C   UNL     1       1.302 -17.167   5.901  0.00  0.00    +0.000 C 
BRANCH  20  23
ATOM     21 CL   UNL     1       4.403 -18.612   9.796  0.00  0.00    +0.000 Cl
ATOM     22 CL   UNL     1       6.767 -19.068   7.606  0.00  0.00    +0.000 Cl
ATOM     23  C   UNL     1       2.692 -17.533   6.348  0.00  0.00    +0.000 A 
ATOM     24  C   UNL     1       2.941 -17.808   7.701  0.00  0.00    +0.000 A 
ATOM     25  C   UNL     1       3.732 -17.673   5.421  0.00  0.00    +0.000 A 
ATOM     26  C   UNL     1       4.195 -18.265   8.116  0.00  0.00    +0.000 A 
ATOM     27  C   UNL     1       4.986 -18.132   5.833  0.00  0.00    +0.000 A 
ATOM     28  C   UNL     1       5.215 -18.444   7.178  0.00  0.00    +0.000 A 
ENDBRANCH  20  23
ENDBRANCH  19  20
ENDBRANCH  17  19
ENDBRANCH   4  18
TORSDOF 6
ENDMDL
MODEL 6
REMARK VINA RESULT:      -5.5     24.288     27.052
REMARK  Name = 155635625
REMARK  6 active torsions:
REMARK  status: ('A' for Active; 'I' for Inactive)
REMARK    1  A    between atoms: O_4  and  N_7
REMARK    2  A    between atoms: O_4  and  C_22
REMARK    3  A    between atoms: N_8  and  C_20
REMARK    4  A    between atoms: C_9  and  C_14
REMARK    5  A    between atoms: C_10  and  C_12
REMARK    6  A    between atoms: C_21  and  C_22
REMARK                            x       y       z     vdW  Elec       q    Type
REMARK                         _______ _______ _______ _____ _____    ______ ____
ROOT
ATOM      1  S   UNL     1       5.379 -17.177  28.426  0.00  0.00    +0.000 S 
ATOM      2  N   UNL     1       5.987 -14.772  29.083  0.00  0.00    +0.000 N 
ATOM      3  N   UNL     1       4.552 -15.584  30.585  0.00  0.00    +0.000 NA
ATOM      4  C   UNL     1       5.787 -13.738  29.960  0.00  0.00    +0.000 A 
ATOM      5  C   UNL     1       4.904 -14.277  30.905  0.00  0.00    +0.000 A 
ATOM      6  C   UNL     1       5.230 -15.821  29.500  0.00  0.00    +0.000 A 
ATOM      7  C   UNL     1       6.692 -14.984  27.916  0.00  0.00    +0.000 A 
ATOM      8  C   UNL     1       6.483 -16.219  27.430  0.00  0.00    +0.000 A 
ENDROOT
BRANCH   5   9
ATOM      9  C   UNL     1       4.378 -13.631  32.107  0.00  0.00    +0.000 A 
ATOM     10  C   UNL     1       3.012 -13.649  32.425  0.00  0.00    +0.000 A 
ATOM     11  C   UNL     1       5.255 -12.926  32.952  0.00  0.00    +0.000 A 
ATOM     12  C   UNL     1       2.531 -13.027  33.580  0.00  0.00    +0.000 A 
ATOM     13  C   UNL     1       4.780 -12.276  34.097  0.00  0.00    +0.000 A 
ATOM     14  C   UNL     1       3.421 -12.338  34.397  0.00  0.00    +0.000 A 
BRANCH  14  15
ATOM     15  N   UNL     1       2.931 -11.677  35.514  0.00  0.00    +0.000 NA
ATOM     16  C   UNL     1       2.519 -11.134  36.468  0.00  0.00    +0.000 C 
ENDBRANCH  14  15
ENDBRANCH   5   9
BRANCH   4  18
ATOM     17  N   UNL     1       7.524 -12.192  30.291  0.00  0.00    +0.000 NA
ATOM     18  C   UNL     1       6.357 -12.433  29.800  0.00  0.00    +0.000 C 
BRANCH  17  19
ATOM     19  O   UNL     1       7.912 -10.867  30.042  0.00  0.00    +0.000 OA
BRANCH  19  20
ATOM     20  C   UNL     1       6.774 -10.055  30.336  0.00  0.00    +0.000 C 
BRANCH  20  23
ATOM     21 CL   UNL     1      10.205  -8.251  33.778  0.00  0.00    +0.000 Cl
ATOM     22 CL   UNL     1       8.123  -5.837  34.434  0.00  0.00    +0.000 Cl
ATOM     23  C   UNL     1       7.070  -9.073  31.438  0.00  0.00    +0.000 A 
ATOM     24  C   UNL     1       8.307  -9.116  32.098  0.00  0.00    +0.000 A 
ATOM     25  C   UNL     1       6.156  -8.066  31.770  0.00  0.00    +0.000 A 
ATOM     26  C   UNL     1       8.647  -8.140  33.039  0.00  0.00    +0.000 A 
ATOM     27  C   UNL     1       6.494  -7.088  32.708  0.00  0.00    +0.000 A 
ATOM     28  C   UNL     1       7.745  -7.113  33.333  0.00  0.00    +0.000 A 
ENDBRANCH  20  23
ENDBRANCH  19  20
ENDBRANCH  17  19
ENDBRANCH   4  18
TORSDOF 6
ENDMDL
MODEL 7
REMARK VINA RESULT:      -5.4     27.346     29.900
REMARK  Name = 155635625
REMARK  6 active torsions:
REMARK  status: ('A' for Active; 'I' for Inactive)
REMARK    1  A    between atoms: O_4  and  N_7
REMARK    2  A    between atoms: O_4  and  C_22
REMARK    3  A    between atoms: N_8  and  C_20
REMARK    4  A    between atoms: C_9  and  C_14
REMARK    5  A    between atoms: C_10  and  C_12
REMARK    6  A    between atoms: C_21  and  C_22
REMARK                            x       y       z     vdW  Elec       q    Type
REMARK                         _______ _______ _______ _____ _____    ______ ____
ROOT
ATOM      1  S   UNL     1     -19.191   2.788  19.994  0.00  0.00    +0.000 S 
ATOM      2  N   UNL     1     -17.947   3.558  22.101  0.00  0.00    +0.000 N 
ATOM      3  N   UNL     1     -17.247   4.778  20.371  0.00  0.00    +0.000 NA
ATOM      4  C   UNL     1     -16.998   4.392  22.632  0.00  0.00    +0.000 A 
ATOM      5  C   UNL     1     -16.591   5.164  21.535  0.00  0.00    +0.000 A 
ATOM      6  C   UNL     1     -18.040   3.828  20.772  0.00  0.00    +0.000 A 
ATOM      7  C   UNL     1     -18.753   2.533  22.550  0.00  0.00    +0.000 A 
ATOM      8  C   UNL     1     -19.487   2.009  21.553  0.00  0.00    +0.000 A 
ENDROOT
BRANCH   5   9
ATOM      9  C   UNL     1     -15.622   6.258  21.524  0.00  0.00    +0.000 A 
ATOM     10  C   UNL     1     -16.016   7.603  21.589  0.00  0.00    +0.000 A 
ATOM     11  C   UNL     1     -14.251   5.966  21.395  0.00  0.00    +0.000 A 
ATOM     12  C   UNL     1     -15.073   8.633  21.579  0.00  0.00    +0.000 A 
ATOM     13  C   UNL     1     -13.299   6.992  21.358  0.00  0.00    +0.000 A 
ATOM     14  C   UNL     1     -13.726   8.315  21.452  0.00  0.00    +0.000 A 
BRANCH  14  15
ATOM     15  N   UNL     1     -12.796   9.344  21.389  0.00  0.00    +0.000 NA
ATOM     16  C   UNL     1     -11.998  10.200  21.332  0.00  0.00    +0.000 C 
ENDBRANCH  14  15
ENDBRANCH   5   9
BRANCH   4  18
ATOM     17  N   UNL     1     -16.011   3.269  24.444  0.00  0.00    +0.000 NA
ATOM     18  C   UNL     1     -16.564   4.344  23.996  0.00  0.00    +0.000 C 
BRANCH  17  19
ATOM     19  O   UNL     1     -15.659   3.407  25.794  0.00  0.00    +0.000 OA
BRANCH  19  20
ATOM     20  C   UNL     1     -16.441   2.450  26.512  0.00  0.00    +0.000 C 
BRANCH  20  23
ATOM     21 CL   UNL     1     -15.526  -0.458  30.704  0.00  0.00    +0.000 Cl
ATOM     22 CL   UNL     1     -14.466   2.226  32.208  0.00  0.00    +0.000 Cl
ATOM     23  C   UNL     1     -16.056   2.406  27.966  0.00  0.00    +0.000 A 
ATOM     24  C   UNL     1     -16.027   1.178  28.644  0.00  0.00    +0.000 A 
ATOM     25  C   UNL     1     -15.655   3.565  28.641  0.00  0.00    +0.000 A 
ATOM     26  C   UNL     1     -15.558   1.100  29.958  0.00  0.00    +0.000 A 
ATOM     27  C   UNL     1     -15.183   3.490  29.954  0.00  0.00    +0.000 A 
ATOM     28  C   UNL     1     -15.119   2.256  30.610  0.00  0.00    +0.000 A 
ENDBRANCH  20  23
ENDBRANCH  19  20
ENDBRANCH  17  19
ENDBRANCH   4  18
TORSDOF 6
ENDMDL
MODEL 8
REMARK VINA RESULT:      -5.4     10.386     14.202
REMARK  Name = 155635625
REMARK  6 active torsions:
REMARK  status: ('A' for Active; 'I' for Inactive)
REMARK    1  A    between atoms: O_4  and  N_7
REMARK    2  A    between atoms: O_4  and  C_22
REMARK    3  A    between atoms: N_8  and  C_20
REMARK    4  A    between atoms: C_9  and  C_14
REMARK    5  A    between atoms: C_10  and  C_12
REMARK    6  A    between atoms: C_21  and  C_22
REMARK                            x       y       z     vdW  Elec       q    Type
REMARK                         _______ _______ _______ _____ _____    ______ ____
ROOT
ATOM      1  S   UNL     1      -3.015  19.431  19.143  0.00  0.00    +0.000 S 
ATOM      2  N   UNL     1      -1.696  17.774  20.590  0.00  0.00    +0.000 N 
ATOM      3  N   UNL     1      -2.090  19.614  21.787  0.00  0.00    +0.000 NA
ATOM      4  C   UNL     1      -1.091  17.533  21.796  0.00  0.00    +0.000 A 
ATOM      5  C   UNL     1      -1.371  18.690  22.539  0.00  0.00    +0.000 A 
ATOM      6  C   UNL     1      -2.256  19.011  20.646  0.00  0.00    +0.000 A 
ATOM      7  C   UNL     1      -1.829  17.123  19.381  0.00  0.00    +0.000 A 
ATOM      8  C   UNL     1      -2.509  17.867  18.492  0.00  0.00    +0.000 A 
ENDROOT
BRANCH   5   9
ATOM      9  C   UNL     1      -1.008  18.969  23.926  0.00  0.00    +0.000 A 
ATOM     10  C   UNL     1      -1.888  18.722  24.990  0.00  0.00    +0.000 A 
ATOM     11  C   UNL     1       0.243  19.548  24.211  0.00  0.00    +0.000 A 
ATOM     12  C   UNL     1      -1.521  18.995  26.310  0.00  0.00    +0.000 A 
ATOM     13  C   UNL     1       0.611  19.849  25.527  0.00  0.00    +0.000 A 
ATOM     14  C   UNL     1      -0.278  19.566  26.561  0.00  0.00    +0.000 A 
BRANCH  14  15
ATOM     15  N   UNL     1       0.062  19.884  27.868  0.00  0.00    +0.000 NA
ATOM     16  C   UNL     1       0.335  20.143  28.979  0.00  0.00    +0.000 C 
ENDBRANCH  14  15
ENDBRANCH   5   9
BRANCH   4  18
ATOM     17  N   UNL     1       0.928  16.333  21.775  0.00  0.00    +0.000 NA
ATOM     18  C   UNL     1      -0.323  16.359  22.086  0.00  0.00    +0.000 C 
BRANCH  17  19
ATOM     19  O   UNL     1       1.509  15.107  22.130  0.00  0.00    +0.000 OA
BRANCH  19  20
ATOM     20  C   UNL     1       1.722  15.158  23.542  0.00  0.00    +0.000 C 
BRANCH  20  23
ATOM     21 CL   UNL     1       6.827  15.689  22.817  0.00  0.00    +0.000 Cl
ATOM     22 CL   UNL     1       6.682  18.442  24.547  0.00  0.00    +0.000 Cl
ATOM     23  C   UNL     1       2.981  15.910  23.882  0.00  0.00    +0.000 A 
ATOM     24  C   UNL     1       4.208  15.498  23.341  0.00  0.00    +0.000 A 
ATOM     25  C   UNL     1       2.938  17.063  24.675  0.00  0.00    +0.000 A 
ATOM     26  C   UNL     1       5.366  16.252  23.547  0.00  0.00    +0.000 A 
ATOM     27  C   UNL     1       4.094  17.820  24.881  0.00  0.00    +0.000 A 
ATOM     28  C   UNL     1       5.307  17.425  24.305  0.00  0.00    +0.000 A 
ENDBRANCH  20  23
ENDBRANCH  19  20
ENDBRANCH  17  19
ENDBRANCH   4  18
TORSDOF 6
ENDMDL
MODEL 9
REMARK VINA RESULT:      -5.1     24.139     27.201
REMARK  Name = 155635625
REMARK  6 active torsions:
REMARK  status: ('A' for Active; 'I' for Inactive)
REMARK    1  A    between atoms: O_4  and  N_7
REMARK    2  A    between atoms: O_4  and  C_22
REMARK    3  A    between atoms: N_8  and  C_20
REMARK    4  A    between atoms: C_9  and  C_14
REMARK    5  A    between atoms: C_10  and  C_12
REMARK    6  A    between atoms: C_21  and  C_22
REMARK                            x       y       z     vdW  Elec       q    Type
REMARK                         _______ _______ _______ _____ _____    ______ ____
ROOT
ATOM      1  S   UNL     1     -19.173   5.904  18.230  0.00  0.00    +0.000 S 
ATOM      2  N   UNL     1     -17.038   6.754  19.371  0.00  0.00    +0.000 N 
ATOM      3  N   UNL     1     -17.047   7.458  17.256  0.00  0.00    +0.000 NA
ATOM      4  C   UNL     1     -15.862   7.444  19.236  0.00  0.00    +0.000 A 
ATOM      5  C   UNL     1     -15.900   7.897  17.909  0.00  0.00    +0.000 A 
ATOM      6  C   UNL     1     -17.682   6.792  18.175  0.00  0.00    +0.000 A 
ATOM      7  C   UNL     1     -17.673   6.027  20.358  0.00  0.00    +0.000 A 
ATOM      8  C   UNL     1     -18.830   5.504  19.917  0.00  0.00    +0.000 A 
ENDROOT
BRANCH   5   9
ATOM      9  C   UNL     1     -14.917   8.733  17.223  0.00  0.00    +0.000 A 
ATOM     10  C   UNL     1     -13.858   8.184  16.484  0.00  0.00    +0.000 A 
ATOM     11  C   UNL     1     -15.000  10.133  17.339  0.00  0.00    +0.000 A 
ATOM     12  C   UNL     1     -12.931   9.002  15.834  0.00  0.00    +0.000 A 
ATOM     13  C   UNL     1     -14.060  10.961  16.713  0.00  0.00    +0.000 A 
ATOM     14  C   UNL     1     -13.038  10.382  15.966  0.00  0.00    +0.000 A 
BRANCH  14  15
ATOM     15  N   UNL     1     -12.084  11.189  15.362  0.00  0.00    +0.000 NA
ATOM     16  C   UNL     1     -11.273  11.856  14.842  0.00  0.00    +0.000 C 
ENDBRANCH  14  15
ENDBRANCH   5   9
BRANCH   4  18
ATOM     17  N   UNL     1     -13.672   7.146  20.031  0.00  0.00    +0.000 NA
ATOM     18  C   UNL     1     -14.873   7.550  20.267  0.00  0.00    +0.000 C 
BRANCH  17  19
ATOM     19  O   UNL     1     -12.850   7.325  21.154  0.00  0.00    +0.000 OA
BRANCH  19  20
ATOM     20  C   UNL     1     -11.528   7.532  20.654  0.00  0.00    +0.000 C 
BRANCH  20  23
ATOM     21 CL   UNL     1     -12.976  12.506  20.483  0.00  0.00    +0.000 Cl
ATOM     22 CL   UNL     1     -10.688  12.987  18.219  0.00  0.00    +0.000 Cl
ATOM     23  C   UNL     1     -11.401   8.868  19.972  0.00  0.00    +0.000 A 
ATOM     24  C   UNL     1     -12.182   9.950  20.405  0.00  0.00    +0.000 A 
ATOM     25  C   UNL     1     -10.460   9.071  18.955  0.00  0.00    +0.000 A 
ATOM     26  C   UNL     1     -11.993  11.226  19.867  0.00  0.00    +0.000 A 
ATOM     27  C   UNL     1     -10.268  10.346  18.417  0.00  0.00    +0.000 A 
ATOM     28  C   UNL     1     -11.023  11.428  18.882  0.00  0.00    +0.000 A 
ENDBRANCH  20  23
ENDBRANCH  19  20
ENDBRANCH  17  19
ENDBRANCH   4  18
TORSDOF 6
ENDMDL
MODEL 10
REMARK VINA RESULT:      -5.0      5.383      8.766
REMARK  Name = 155635625
REMARK  6 active torsions:
REMARK  status: ('A' for Active; 'I' for Inactive)
REMARK    1  A    between atoms: O_4  and  N_7
REMARK    2  A    between atoms: O_4  and  C_22
REMARK    3  A    between atoms: N_8  and  C_20
REMARK    4  A    between atoms: C_9  and  C_14
REMARK    5  A    between atoms: C_10  and  C_12
REMARK    6  A    between atoms: C_21  and  C_22
REMARK                            x       y       z     vdW  Elec       q    Type
REMARK                         _______ _______ _______ _____ _____    ______ ____
ROOT
ATOM      1  S   UNL     1      15.451  15.620  21.654  0.00  0.00    +0.000 S 
ATOM      2  N   UNL     1      13.054  15.050  22.370  0.00  0.00    +0.000 N 
ATOM      3  N   UNL     1      14.053  13.185  21.667  0.00  0.00    +0.000 NA
ATOM      4  C   UNL     1      12.091  14.082  22.485  0.00  0.00    +0.000 A 
ATOM      5  C   UNL     1      12.746  12.918  22.061  0.00  0.00    +0.000 A 
ATOM      6  C   UNL     1      14.177  14.463  21.879  0.00  0.00    +0.000 A 
ATOM      7  C   UNL     1      13.145  16.412  22.575  0.00  0.00    +0.000 A 
ATOM      8  C   UNL     1      14.360  16.881  22.244  0.00  0.00    +0.000 A 
ENDROOT
BRANCH   5   9
ATOM      9  C   UNL     1      12.212  11.558  22.018  0.00  0.00    +0.000 A 
ATOM     10  C   UNL     1      11.637  10.948  23.143  0.00  0.00    +0.000 A 
ATOM     11  C   UNL     1      12.316  10.812  20.830  0.00  0.00    +0.000 A 
ATOM     12  C   UNL     1      11.130   9.648  23.080  0.00  0.00    +0.000 A 
ATOM     13  C   UNL     1      11.835   9.499  20.763  0.00  0.00    +0.000 A 
ATOM     14  C   UNL     1      11.246   8.935  21.892  0.00  0.00    +0.000 A 
BRANCH  14  15
ATOM     15  N   UNL     1      10.789   7.625  21.849  0.00  0.00    +0.000 NA
ATOM     16  C   UNL     1      10.386   6.525  21.814  0.00  0.00    +0.000 C 
ENDBRANCH  14  15
ENDBRANCH   5   9
BRANCH   4  18
ATOM     17  N   UNL     1       9.791  14.229  22.031  0.00  0.00    +0.000 NA
ATOM     18  C   UNL     1      10.742  14.340  22.894  0.00  0.00    +0.000 C 
BRANCH  17  19
ATOM     19  O   UNL     1       8.548  14.522  22.610  0.00  0.00    +0.000 OA
BRANCH  19  20
ATOM     20  C   UNL     1       8.464  15.947  22.678  0.00  0.00    +0.000 C 
BRANCH  20  23
ATOM     21 CL   UNL     1       5.957  19.437  25.576  0.00  0.00    +0.000 Cl
ATOM     22 CL   UNL     1       3.170  17.989  24.723  0.00  0.00    +0.000 Cl
ATOM     23  C   UNL     1       7.160  16.393  23.281  0.00  0.00    +0.000 A 
ATOM     24  C   UNL     1       7.125  17.522  24.113  0.00  0.00    +0.000 A 
ATOM     25  C   UNL     1       5.962  15.740  22.968  0.00  0.00    +0.000 A 
ATOM     26  C   UNL     1       5.909  18.023  24.585  0.00  0.00    +0.000 A 
ATOM     27  C   UNL     1       4.744  16.240  23.437  0.00  0.00    +0.000 A 
ATOM     28  C   UNL     1       4.713  17.390  24.233  0.00  0.00    +0.000 A 
ENDBRANCH  20  23
ENDBRANCH  19  20
ENDBRANCH  17  19
ENDBRANCH   4  18
TORSDOF 6
ENDMDL
