MODEL 1
REMARK VINA RESULT:      -5.6      0.000      0.000
REMARK  Name = 155635625
REMARK  6 active torsions:
REMARK  status: ('A' for Active; 'I' for Inactive)
REMARK    1  A    between atoms: O_4  and  N_7
REMARK    2  A    between atoms: O_4  and  C_22
REMARK    3  A    between atoms: N_8  and  C_20
REMARK    4  A    between atoms: C_9  and  C_14
REMARK    5  A    between atoms: C_10  and  C_12
REMARK    6  A    between atoms: C_21  and  C_22
REMARK                            x       y       z     vdW  Elec       q    Type
REMARK                         _______ _______ _______ _____ _____    ______ ____
ROOT
ATOM      1  S   UNL     1     -10.981  20.652 -41.098  0.00  0.00    +0.000 S 
ATOM      2  N   UNL     1     -11.230  18.701 -42.746  0.00  0.00    +0.000 N 
ATOM      3  N   UNL     1      -9.061  19.156 -42.498  0.00  0.00    +0.000 NA
ATOM      4  C   UNL     1     -10.597  17.816 -43.579  0.00  0.00    +0.000 A 
ATOM      5  C   UNL     1      -9.238  18.103 -43.390  0.00  0.00    +0.000 A 
ATOM      6  C   UNL     1     -10.276  19.463 -42.148  0.00  0.00    +0.000 A 
ATOM      7  C   UNL     1     -12.531  19.024 -42.418  0.00  0.00    +0.000 A 
ATOM      8  C   UNL     1     -12.581  20.046 -41.546  0.00  0.00    +0.000 A 
ENDROOT
BRANCH   5   9
ATOM      9  C   UNL     1      -8.091  17.430 -43.995  0.00  0.00    +0.000 A 
ATOM     10  C   UNL     1      -7.161  16.710 -43.230  0.00  0.00    +0.000 A 
ATOM     11  C   UNL     1      -7.876  17.542 -45.381  0.00  0.00    +0.000 A 
ATOM     12  C   UNL     1      -6.073  16.072 -43.829  0.00  0.00    +0.000 A 
ATOM     13  C   UNL     1      -6.773  16.929 -45.988  0.00  0.00    +0.000 A 
ATOM     14  C   UNL     1      -5.886  16.199 -45.201  0.00  0.00    +0.000 A 
BRANCH  14  15
ATOM     15  N   UNL     1      -4.774  15.609 -45.784  0.00  0.00    +0.000 NA
ATOM     16  C   UNL     1      -3.844  15.109 -46.294  0.00  0.00    +0.000 C 
ENDBRANCH  14  15
ENDBRANCH   5   9
BRANCH   4  18
ATOM     17  N   UNL     1     -12.174  16.113 -43.946  0.00  0.00    +0.000 NA
ATOM     18  C   UNL     1     -11.282  16.901 -44.443  0.00  0.00    +0.000 C 
BRANCH  17  19
ATOM     19  O   UNL     1     -12.730  15.292 -44.938  0.00  0.00    +0.000 OA
BRANCH  19  20
ATOM     20  C   UNL     1     -14.103  15.671 -45.049  0.00  0.00    +0.000 C 
BRANCH  20  23
ATOM     21 CL   UNL     1     -12.743  16.441 -49.991  0.00  0.00    +0.000 Cl
ATOM     22 CL   UNL     1     -15.746  15.529 -50.851  0.00  0.00    +0.000 Cl
ATOM     23  C   UNL     1     -14.538  15.746 -46.488  0.00  0.00    +0.000 A 
ATOM     24  C   UNL     1     -13.608  16.084 -47.482  0.00  0.00    +0.000 A 
ATOM     25  C   UNL     1     -15.845  15.414 -46.863  0.00  0.00    +0.000 A 
ATOM     26  C   UNL     1     -13.961  16.042 -48.833  0.00  0.00    +0.000 A 
ATOM     27  C   UNL     1     -16.201  15.369 -48.213  0.00  0.00    +0.000 A 
ATOM     28  C   UNL     1     -15.257  15.667 -49.201  0.00  0.00    +0.000 A 
ENDBRANCH  20  23
ENDBRANCH  19  20
ENDBRANCH  17  19
ENDBRANCH   4  18
TORSDOF 6
ENDMDL
MODEL 2
REMARK VINA RESULT:      -5.6     15.155     17.732
REMARK  Name = 155635625
REMARK  6 active torsions:
REMARK  status: ('A' for Active; 'I' for Inactive)
REMARK    1  A    between atoms: O_4  and  N_7
REMARK    2  A    between atoms: O_4  and  C_22
REMARK    3  A    between atoms: N_8  and  C_20
REMARK    4  A    between atoms: C_9  and  C_14
REMARK    5  A    between atoms: C_10  and  C_12
REMARK    6  A    between atoms: C_21  and  C_22
REMARK                            x       y       z     vdW  Elec       q    Type
REMARK                         _______ _______ _______ _____ _____    ______ ____
ROOT
ATOM      1  S   UNL     1      -8.020   4.021 -37.393  0.00  0.00    +0.000 S 
ATOM      2  N   UNL     1      -8.517   5.977 -35.810  0.00  0.00    +0.000 N 
ATOM      3  N   UNL     1     -10.451   5.099 -36.490  0.00  0.00    +0.000 NA
ATOM      4  C   UNL     1      -9.475   6.752 -35.209  0.00  0.00    +0.000 A 
ATOM      5  C   UNL     1     -10.679   6.168 -35.630  0.00  0.00    +0.000 A 
ATOM      6  C   UNL     1      -9.153   5.032 -36.552  0.00  0.00    +0.000 A 
ATOM      7  C   UNL     1      -7.140   5.952 -35.881  0.00  0.00    +0.000 A 
ATOM      8  C   UNL     1      -6.705   4.966 -36.684  0.00  0.00    +0.000 A 
ENDROOT
BRANCH   5   9
ATOM      9  C   UNL     1     -12.037   6.555 -35.257  0.00  0.00    +0.000 A 
ATOM     10  C   UNL     1     -12.808   5.799 -34.361  0.00  0.00    +0.000 A 
ATOM     11  C   UNL     1     -12.618   7.695 -35.845  0.00  0.00    +0.000 A 
ATOM     12  C   UNL     1     -14.104   6.188 -34.016  0.00  0.00    +0.000 A 
ATOM     13  C   UNL     1     -13.926   8.079 -35.526  0.00  0.00    +0.000 A 
ATOM     14  C   UNL     1     -14.651   7.319 -34.612  0.00  0.00    +0.000 A 
BRANCH  14  15
ATOM     15  N   UNL     1     -15.958   7.672 -34.307  0.00  0.00    +0.000 NA
ATOM     16  C   UNL     1     -17.058   7.989 -34.052  0.00  0.00    +0.000 C 
ENDBRANCH  14  15
ENDBRANCH   5   9
BRANCH   4  18
ATOM     17  N   UNL     1      -9.368   7.849 -33.134  0.00  0.00    +0.000 NA
ATOM     18  C   UNL     1      -9.187   7.905 -34.410  0.00  0.00    +0.000 C 
BRANCH  17  19
ATOM     19  O   UNL     1      -9.038   9.067 -32.524  0.00  0.00    +0.000 OA
BRANCH  19  20
ATOM     20  C   UNL     1      -9.484   8.971 -31.170  0.00  0.00    +0.000 C 
BRANCH  20  23
ATOM     21 CL   UNL     1      -4.493  10.038 -30.268  0.00  0.00    +0.000 Cl
ATOM     22 CL   UNL     1      -4.958   9.110 -27.184  0.00  0.00    +0.000 Cl
ATOM     23  C   UNL     1      -8.325   8.903 -30.213  0.00  0.00    +0.000 A 
ATOM     24  C   UNL     1      -7.062   9.366 -30.611  0.00  0.00    +0.000 A 
ATOM     25  C   UNL     1      -8.501   8.448 -28.901  0.00  0.00    +0.000 A 
ATOM     26  C   UNL     1      -6.004   9.422 -29.701  0.00  0.00    +0.000 A 
ATOM     27  C   UNL     1      -7.445   8.505 -27.987  0.00  0.00    +0.000 A 
ATOM     28  C   UNL     1      -6.199   9.007 -28.380  0.00  0.00    +0.000 A 
ENDBRANCH  20  23
ENDBRANCH  19  20
ENDBRANCH  17  19
ENDBRANCH   4  18
TORSDOF 6
ENDMDL
MODEL 3
REMARK VINA RESULT:      -5.6     17.023     18.669
REMARK  Name = 155635625
REMARK  6 active torsions:
REMARK  status: ('A' for Active; 'I' for Inactive)
REMARK    1  A    between atoms: O_4  and  N_7
REMARK    2  A    between atoms: O_4  and  C_22
REMARK    3  A    between atoms: N_8  and  C_20
REMARK    4  A    between atoms: C_9  and  C_14
REMARK    5  A    between atoms: C_10  and  C_12
REMARK    6  A    between atoms: C_21  and  C_22
REMARK                            x       y       z     vdW  Elec       q    Type
REMARK                         _______ _______ _______ _____ _____    ______ ____
ROOT
ATOM      1  S   UNL     1     -18.351  13.905 -59.608  0.00  0.00    +0.000 S 
ATOM      2  N   UNL     1     -18.479  11.540 -58.623  0.00  0.00    +0.000 N 
ATOM      3  N   UNL     1     -20.467  12.522 -58.385  0.00  0.00    +0.000 NA
ATOM      4  C   UNL     1     -19.247  10.607 -57.975  0.00  0.00    +0.000 A 
ATOM      5  C   UNL     1     -20.494  11.235 -57.858  0.00  0.00    +0.000 A 
ATOM      6  C   UNL     1     -19.249  12.641 -58.827  0.00  0.00    +0.000 A 
ATOM      7  C   UNL     1     -17.173  11.647 -59.053  0.00  0.00    +0.000 A 
ATOM      8  C   UNL     1     -16.933  12.849 -59.606  0.00  0.00    +0.000 A 
ENDROOT
BRANCH   5   9
ATOM      9  C   UNL     1     -21.721  10.685 -57.285  0.00  0.00    +0.000 A 
ATOM     10  C   UNL     1     -22.163  11.030 -55.999  0.00  0.00    +0.000 A 
ATOM     11  C   UNL     1     -22.464   9.742 -58.019  0.00  0.00    +0.000 A 
ATOM     12  C   UNL     1     -23.340  10.494 -55.471  0.00  0.00    +0.000 A 
ATOM     13  C   UNL     1     -23.631   9.178 -57.489  0.00  0.00    +0.000 A 
ATOM     14  C   UNL     1     -24.054   9.565 -56.219  0.00  0.00    +0.000 A 
BRANCH  14  15
ATOM     15  N   UNL     1     -25.194   8.994 -55.670  0.00  0.00    +0.000 NA
ATOM     16  C   UNL     1     -26.150   8.517 -55.189  0.00  0.00    +0.000 C 
ENDBRANCH  14  15
ENDBRANCH   5   9
BRANCH   4  18
ATOM     17  N   UNL     1     -19.233   8.258 -58.023  0.00  0.00    +0.000 NA
ATOM     18  C   UNL     1     -18.753   9.343 -57.517  0.00  0.00    +0.000 C 
BRANCH  17  19
ATOM     19  O   UNL     1     -18.635   7.127 -57.450  0.00  0.00    +0.000 OA
BRANCH  19  20
ATOM     20  C   UNL     1     -18.969   7.156 -56.061  0.00  0.00    +0.000 C 
BRANCH  20  23
ATOM     21 CL   UNL     1     -22.386   3.319 -56.745  0.00  0.00    +0.000 Cl
ATOM     22 CL   UNL     1     -24.393   4.884 -54.716  0.00  0.00    +0.000 Cl
ATOM     23  C   UNL     1     -20.362   6.639 -55.820  0.00  0.00    +0.000 A 
ATOM     24  C   UNL     1     -20.754   5.408 -56.366  0.00  0.00    +0.000 A 
ATOM     25  C   UNL     1     -21.255   7.335 -54.997  0.00  0.00    +0.000 A 
ATOM     26  C   UNL     1     -21.999   4.855 -56.055  0.00  0.00    +0.000 A 
ATOM     27  C   UNL     1     -22.500   6.783 -54.682  0.00  0.00    +0.000 A 
ATOM     28  C   UNL     1     -22.868   5.536 -55.198  0.00  0.00    +0.000 A 
ENDBRANCH  20  23
ENDBRANCH  19  20
ENDBRANCH  17  19
ENDBRANCH   4  18
TORSDOF 6
ENDMDL
MODEL 4
REMARK VINA RESULT:      -5.5     18.558     21.039
REMARK  Name = 155635625
REMARK  6 active torsions:
REMARK  status: ('A' for Active; 'I' for Inactive)
REMARK    1  A    between atoms: O_4  and  N_7
REMARK    2  A    between atoms: O_4  and  C_22
REMARK    3  A    between atoms: N_8  and  C_20
REMARK    4  A    between atoms: C_9  and  C_14
REMARK    5  A    between atoms: C_10  and  C_12
REMARK    6  A    between atoms: C_21  and  C_22
REMARK                            x       y       z     vdW  Elec       q    Type
REMARK                         _______ _______ _______ _____ _____    ______ ____
ROOT
ATOM      1  S   UNL     1      -3.278   8.208 -60.110  0.00  0.00    +0.000 S 
ATOM      2  N   UNL     1      -3.978   5.992 -59.023  0.00  0.00    +0.000 N 
ATOM      3  N   UNL     1      -4.815   6.071 -61.089  0.00  0.00    +0.000 NA
ATOM      4  C   UNL     1      -4.681   4.822 -59.153  0.00  0.00    +0.000 A 
ATOM      5  C   UNL     1      -5.177   4.883 -60.463  0.00  0.00    +0.000 A 
ATOM      6  C   UNL     1      -4.102   6.682 -60.188  0.00  0.00    +0.000 A 
ATOM      7  C   UNL     1      -3.254   6.628 -58.037  0.00  0.00    +0.000 A 
ATOM      8  C   UNL     1      -2.804   7.826 -58.450  0.00  0.00    +0.000 A 
ENDROOT
BRANCH   5   9
ATOM      9  C   UNL     1      -5.966   3.874 -61.167  0.00  0.00    +0.000 A 
ATOM     10  C   UNL     1      -7.320   3.652 -60.876  0.00  0.00    +0.000 A 
ATOM     11  C   UNL     1      -5.345   3.063 -62.135  0.00  0.00    +0.000 A 
ATOM     12  C   UNL     1      -8.057   2.684 -61.563  0.00  0.00    +0.000 A 
ATOM     13  C   UNL     1      -6.068   2.072 -62.810  0.00  0.00    +0.000 A 
ATOM     14  C   UNL     1      -7.418   1.897 -62.514  0.00  0.00    +0.000 A 
BRANCH  14  15
ATOM     15  N   UNL     1      -8.140   0.901 -63.156  0.00  0.00    +0.000 NA
ATOM     16  C   UNL     1      -8.763   0.072 -63.702  0.00  0.00    +0.000 C 
ENDBRANCH  14  15
ENDBRANCH   5   9
BRANCH   4  18
ATOM     17  N   UNL     1      -3.997   2.911 -57.971  0.00  0.00    +0.000 NA
ATOM     18  C   UNL     1      -4.850   3.869 -58.098  0.00  0.00    +0.000 C 
BRANCH  17  19
ATOM     19  O   UNL     1      -4.327   2.080 -56.892  0.00  0.00    +0.000 OA
BRANCH  19  20
ATOM     20  C   UNL     1      -4.466   2.935 -55.755  0.00  0.00    +0.000 C 
BRANCH  20  23
ATOM     21 CL   UNL     1      -6.821  -1.333 -53.993  0.00  0.00    +0.000 Cl
ATOM     22 CL   UNL     1      -6.313  -0.240 -50.970  0.00  0.00    +0.000 Cl
ATOM     23  C   UNL     1      -5.028   2.193 -54.573  0.00  0.00    +0.000 A 
ATOM     24  C   UNL     1      -5.661   0.955 -54.763  0.00  0.00    +0.000 A 
ATOM     25  C   UNL     1      -4.868   2.684 -53.272  0.00  0.00    +0.000 A 
ATOM     26  C   UNL     1      -6.082   0.195 -53.669  0.00  0.00    +0.000 A 
ATOM     27  C   UNL     1      -5.286   1.925 -52.176  0.00  0.00    +0.000 A 
ATOM     28  C   UNL     1      -5.880   0.673 -52.371  0.00  0.00    +0.000 A 
ENDBRANCH  20  23
ENDBRANCH  19  20
ENDBRANCH  17  19
ENDBRANCH   4  18
TORSDOF 6
ENDMDL
MODEL 5
REMARK VINA RESULT:      -5.4     17.761     19.397
REMARK  Name = 155635625
REMARK  6 active torsions:
REMARK  status: ('A' for Active; 'I' for Inactive)
REMARK    1  A    between atoms: O_4  and  N_7
REMARK    2  A    between atoms: O_4  and  C_22
REMARK    3  A    between atoms: N_8  and  C_20
REMARK    4  A    between atoms: C_9  and  C_14
REMARK    5  A    between atoms: C_10  and  C_12
REMARK    6  A    between atoms: C_21  and  C_22
REMARK                            x       y       z     vdW  Elec       q    Type
REMARK                         _______ _______ _______ _____ _____    ______ ____
ROOT
ATOM      1  S   UNL     1      -4.122   3.631 -61.451  0.00  0.00    +0.000 S 
ATOM      2  N   UNL     1      -4.519   4.075 -58.955  0.00  0.00    +0.000 N 
ATOM      3  N   UNL     1      -2.639   5.103 -59.574  0.00  0.00    +0.000 NA
ATOM      4  C   UNL     1      -4.053   4.658 -57.806  0.00  0.00    +0.000 A 
ATOM      5  C   UNL     1      -2.888   5.317 -58.223  0.00  0.00    +0.000 A 
ATOM      6  C   UNL     1      -3.643   4.365 -59.953  0.00  0.00    +0.000 A 
ATOM      7  C   UNL     1      -5.577   3.267 -59.319  0.00  0.00    +0.000 A 
ATOM      8  C   UNL     1      -5.520   2.937 -60.621  0.00  0.00    +0.000 A 
ENDROOT
BRANCH   5   9
ATOM      9  C   UNL     1      -1.997   6.151 -57.418  0.00  0.00    +0.000 A 
ATOM     10  C   UNL     1      -1.090   5.601 -56.500  0.00  0.00    +0.000 A 
ATOM     11  C   UNL     1      -2.077   7.551 -57.526  0.00  0.00    +0.000 A 
ATOM     12  C   UNL     1      -0.245   6.415 -55.743  0.00  0.00    +0.000 A 
ATOM     13  C   UNL     1      -1.254   8.378 -56.752  0.00  0.00    +0.000 A 
ATOM     14  C   UNL     1      -0.346   7.796 -55.870  0.00  0.00    +0.000 A 
BRANCH  14  15
ATOM     15  N   UNL     1       0.457   8.604 -55.077  0.00  0.00    +0.000 NA
ATOM     16  C   UNL     1       1.148   9.272 -54.406  0.00  0.00    +0.000 C 
ENDBRANCH  14  15
ENDBRANCH   5   9
BRANCH   4  18
ATOM     17  N   UNL     1      -4.440   3.435 -55.838  0.00  0.00    +0.000 NA
ATOM     18  C   UNL     1      -4.671   4.503 -56.523  0.00  0.00    +0.000 C 
BRANCH  17  19
ATOM     19  O   UNL     1      -5.131   3.459 -54.618  0.00  0.00    +0.000 OA
BRANCH  19  20
ATOM     20  C   UNL     1      -4.440   2.559 -53.749  0.00  0.00    +0.000 C 
BRANCH  20  23
ATOM     21 CL   UNL     1      -8.290  -0.807 -54.592  0.00  0.00    +0.000 Cl
ATOM     22 CL   UNL     1      -7.864  -1.895 -51.554  0.00  0.00    +0.000 Cl
ATOM     23  C   UNL     1      -5.371   1.526 -53.173  0.00  0.00    +0.000 A 
ATOM     24  C   UNL     1      -6.346   0.933 -53.989  0.00  0.00    +0.000 A 
ATOM     25  C   UNL     1      -5.235   1.094 -51.849  0.00  0.00    +0.000 A 
ATOM     26  C   UNL     1      -7.139  -0.112 -53.507  0.00  0.00    +0.000 A 
ATOM     27  C   UNL     1      -6.026   0.048 -51.365  0.00  0.00    +0.000 A 
ATOM     28  C   UNL     1      -6.968  -0.567 -52.197  0.00  0.00    +0.000 A 
ENDBRANCH  20  23
ENDBRANCH  19  20
ENDBRANCH  17  19
ENDBRANCH   4  18
TORSDOF 6
ENDMDL
MODEL 6
REMARK VINA RESULT:      -5.4     12.840     15.424
REMARK  Name = 155635625
REMARK  6 active torsions:
REMARK  status: ('A' for Active; 'I' for Inactive)
REMARK    1  A    between atoms: O_4  and  N_7
REMARK    2  A    between atoms: O_4  and  C_22
REMARK    3  A    between atoms: N_8  and  C_20
REMARK    4  A    between atoms: C_9  and  C_14
REMARK    5  A    between atoms: C_10  and  C_12
REMARK    6  A    between atoms: C_21  and  C_22
REMARK                            x       y       z     vdW  Elec       q    Type
REMARK                         _______ _______ _______ _____ _____    ______ ____
ROOT
ATOM      1  S   UNL     1      -9.611   4.310 -36.640  0.00  0.00    +0.000 S 
ATOM      2  N   UNL     1     -10.338   6.589 -35.714  0.00  0.00    +0.000 N 
ATOM      3  N   UNL     1     -12.133   5.275 -35.872  0.00  0.00    +0.000 NA
ATOM      4  C   UNL     1     -11.377   7.376 -35.291  0.00  0.00    +0.000 A 
ATOM      5  C   UNL     1     -12.488   6.525 -35.376  0.00  0.00    +0.000 A 
ATOM      6  C   UNL     1     -10.847   5.374 -36.047  0.00  0.00    +0.000 A 
ATOM      7  C   UNL     1      -8.982   6.734 -35.919  0.00  0.00    +0.000 A 
ATOM      8  C   UNL     1      -8.434   5.610 -36.411  0.00  0.00    +0.000 A 
ENDROOT
BRANCH   5   9
ATOM      9  C   UNL     1     -13.870   6.820 -35.002  0.00  0.00    +0.000 A 
ATOM     10  C   UNL     1     -14.704   7.615 -35.803  0.00  0.00    +0.000 A 
ATOM     11  C   UNL     1     -14.374   6.337 -33.781  0.00  0.00    +0.000 A 
ATOM     12  C   UNL     1     -16.022   7.883 -35.429  0.00  0.00    +0.000 A 
ATOM     13  C   UNL     1     -15.686   6.621 -33.383  0.00  0.00    +0.000 A 
ATOM     14  C   UNL     1     -16.494   7.391 -34.216  0.00  0.00    +0.000 A 
BRANCH  14  15
ATOM     15  N   UNL     1     -17.788   7.704 -33.823  0.00  0.00    +0.000 NA
ATOM     16  C   UNL     1     -18.887   7.959 -33.505  0.00  0.00    +0.000 C 
ENDBRANCH  14  15
ENDBRANCH   5   9
BRANCH   4  18
ATOM     17  N   UNL     1     -11.520   9.126 -33.729  0.00  0.00    +0.000 NA
ATOM     18  C   UNL     1     -11.241   8.757 -34.933  0.00  0.00    +0.000 C 
BRANCH  17  19
ATOM     19  O   UNL     1     -11.332  10.506 -33.569  0.00  0.00    +0.000 OA
BRANCH  19  20
ATOM     20  C   UNL     1     -10.023  10.793 -34.065  0.00  0.00    +0.000 C 
BRANCH  20  23
ATOM     21 CL   UNL     1     -12.336  15.312 -35.109  0.00  0.00    +0.000 Cl
ATOM     22 CL   UNL     1      -9.415  16.734 -34.913  0.00  0.00    +0.000 Cl
ATOM     23  C   UNL     1      -9.865  12.254 -34.388  0.00  0.00    +0.000 A 
ATOM     24  C   UNL     1     -10.999  13.039 -34.647  0.00  0.00    +0.000 A 
ATOM     25  C   UNL     1      -8.605  12.864 -34.365  0.00  0.00    +0.000 A 
ATOM     26  C   UNL     1     -10.884  14.419 -34.830  0.00  0.00    +0.000 A 
ATOM     27  C   UNL     1      -8.487  14.245 -34.546  0.00  0.00    +0.000 A 
ATOM     28  C   UNL     1      -9.627  15.027 -34.763  0.00  0.00    +0.000 A 
ENDBRANCH  20  23
ENDBRANCH  19  20
ENDBRANCH  17  19
ENDBRANCH   4  18
TORSDOF 6
ENDMDL
MODEL 7
REMARK VINA RESULT:      -5.4     17.520     19.758
REMARK  Name = 155635625
REMARK  6 active torsions:
REMARK  status: ('A' for Active; 'I' for Inactive)
REMARK    1  A    between atoms: O_4  and  N_7
REMARK    2  A    between atoms: O_4  and  C_22
REMARK    3  A    between atoms: N_8  and  C_20
REMARK    4  A    between atoms: C_9  and  C_14
REMARK    5  A    between atoms: C_10  and  C_12
REMARK    6  A    between atoms: C_21  and  C_22
REMARK                            x       y       z     vdW  Elec       q    Type
REMARK                         _______ _______ _______ _____ _____    ______ ____
ROOT
ATOM      1  S   UNL     1       0.963   8.734 -58.096  0.00  0.00    +0.000 S 
ATOM      2  N   UNL     1      -1.447   8.077 -58.682  0.00  0.00    +0.000 N 
ATOM      3  N   UNL     1      -0.874   7.071 -56.776  0.00  0.00    +0.000 NA
ATOM      4  C   UNL     1      -2.549   7.338 -58.340  0.00  0.00    +0.000 A 
ATOM      5  C   UNL     1      -2.176   6.735 -57.130  0.00  0.00    +0.000 A 
ATOM      6  C   UNL     1      -0.498   7.871 -57.731  0.00  0.00    +0.000 A 
ATOM      7  C   UNL     1      -1.066   8.897 -59.724  0.00  0.00    +0.000 A 
ATOM      8  C   UNL     1       0.195   9.338 -59.570  0.00  0.00    +0.000 A 
ENDROOT
BRANCH   5   9
ATOM      9  C   UNL     1      -2.986   5.866 -56.279  0.00  0.00    +0.000 A 
ATOM     10  C   UNL     1      -3.721   6.363 -55.192  0.00  0.00    +0.000 A 
ATOM     11  C   UNL     1      -2.998   4.480 -56.520  0.00  0.00    +0.000 A 
ATOM     12  C   UNL     1      -4.491   5.515 -54.393  0.00  0.00    +0.000 A 
ATOM     13  C   UNL     1      -3.745   3.617 -55.708  0.00  0.00    +0.000 A 
ATOM     14  C   UNL     1      -4.484   4.150 -54.654  0.00  0.00    +0.000 A 
BRANCH  14  15
ATOM     15  N   UNL     1      -5.208   3.304 -53.825  0.00  0.00    +0.000 NA
ATOM     16  C   UNL     1      -5.820   2.604 -53.111  0.00  0.00    +0.000 C 
ENDBRANCH  14  15
ENDBRANCH   5   9
BRANCH   4  18
ATOM     17  N   UNL     1      -4.126   6.073 -59.536  0.00  0.00    +0.000 NA
ATOM     18  C   UNL     1      -3.727   7.237 -59.149  0.00  0.00    +0.000 C 
BRANCH  17  19
ATOM     19  O   UNL     1      -5.285   6.173 -60.319  0.00  0.00    +0.000 OA
BRANCH  19  20
ATOM     20  C   UNL     1      -6.107   5.060 -59.962  0.00  0.00    +0.000 C 
BRANCH  20  23
ATOM     21 CL   UNL     1      -5.283   4.117 -64.991  0.00  0.00    +0.000 Cl
ATOM     22 CL   UNL     1      -6.777   1.253 -64.593  0.00  0.00    +0.000 Cl
ATOM     23  C   UNL     1      -6.369   4.167 -61.145  0.00  0.00    +0.000 A 
ATOM     24  C   UNL     1      -5.851   4.507 -62.404  0.00  0.00    +0.000 A 
ATOM     25  C   UNL     1      -7.063   2.961 -60.997  0.00  0.00    +0.000 A 
ATOM     26  C   UNL     1      -5.980   3.633 -63.487  0.00  0.00    +0.000 A 
ATOM     27  C   UNL     1      -7.192   2.084 -62.077  0.00  0.00    +0.000 A 
ATOM     28  C   UNL     1      -6.638   2.411 -63.320  0.00  0.00    +0.000 A 
ENDBRANCH  20  23
ENDBRANCH  19  20
ENDBRANCH  17  19
ENDBRANCH   4  18
TORSDOF 6
ENDMDL
MODEL 8
REMARK VINA RESULT:      -5.3     18.006     20.647
REMARK  Name = 155635625
REMARK  6 active torsions:
REMARK  status: ('A' for Active; 'I' for Inactive)
REMARK    1  A    between atoms: O_4  and  N_7
REMARK    2  A    between atoms: O_4  and  C_22
REMARK    3  A    between atoms: N_8  and  C_20
REMARK    4  A    between atoms: C_9  and  C_14
REMARK    5  A    between atoms: C_10  and  C_12
REMARK    6  A    between atoms: C_21  and  C_22
REMARK                            x       y       z     vdW  Elec       q    Type
REMARK                         _______ _______ _______ _____ _____    ______ ____
ROOT
ATOM      1  S   UNL     1      -6.537  -2.348 -51.141  0.00  0.00    +0.000 S 
ATOM      2  N   UNL     1      -6.473  -1.621 -53.600  0.00  0.00    +0.000 N 
ATOM      3  N   UNL     1      -5.777   0.077 -52.334  0.00  0.00    +0.000 NA
ATOM      4  C   UNL     1      -6.218  -0.611 -54.491  0.00  0.00    +0.000 A 
ATOM      5  C   UNL     1      -5.760   0.435 -53.678  0.00  0.00    +0.000 A 
ATOM      6  C   UNL     1      -6.203  -1.152 -52.353  0.00  0.00    +0.000 A 
ATOM      7  C   UNL     1      -6.957  -2.912 -53.650  0.00  0.00    +0.000 A 
ATOM      8  C   UNL     1      -7.053  -3.451 -52.423  0.00  0.00    +0.000 A 
ENDROOT
BRANCH   5   9
ATOM      9  C   UNL     1      -5.294   1.754 -54.098  0.00  0.00    +0.000 A 
ATOM     10  C   UNL     1      -4.226   1.917 -54.993  0.00  0.00    +0.000 A 
ATOM     11  C   UNL     1      -5.899   2.905 -53.559  0.00  0.00    +0.000 A 
ATOM     12  C   UNL     1      -3.798   3.187 -55.384  0.00  0.00    +0.000 A 
ATOM     13  C   UNL     1      -5.460   4.184 -53.924  0.00  0.00    +0.000 A 
ATOM     14  C   UNL     1      -4.413   4.307 -54.835  0.00  0.00    +0.000 A 
BRANCH  14  15
ATOM     15  N   UNL     1      -3.950   5.567 -55.185  0.00  0.00    +0.000 NA
ATOM     16  C   UNL     1      -3.560   6.637 -55.463  0.00  0.00    +0.000 C 
ENDBRANCH  14  15
ENDBRANCH   5   9
BRANCH   4  18
ATOM     17  N   UNL     1      -5.471  -0.859 -56.704  0.00  0.00    +0.000 NA
ATOM     18  C   UNL     1      -6.466  -0.705 -55.899  0.00  0.00    +0.000 C 
BRANCH  17  19
ATOM     19  O   UNL     1      -5.905  -0.926 -58.036  0.00  0.00    +0.000 OA
BRANCH  19  20
ATOM     20  C   UNL     1      -4.737  -0.781 -58.846  0.00  0.00    +0.000 C 
BRANCH  20  23
ATOM     21 CL   UNL     1      -5.326   4.349 -58.398  0.00  0.00    +0.000 Cl
ATOM     22 CL   UNL     1      -4.148   4.644 -61.418  0.00  0.00    +0.000 Cl
ATOM     23  C   UNL     1      -4.698   0.564 -59.520  0.00  0.00    +0.000 A 
ATOM     24  C   UNL     1      -5.048   1.716 -58.800  0.00  0.00    +0.000 A 
ATOM     25  C   UNL     1      -4.250   0.696 -60.839  0.00  0.00    +0.000 A 
ATOM     26  C   UNL     1      -4.904   2.984 -59.369  0.00  0.00    +0.000 A 
ATOM     27  C   UNL     1      -4.103   1.962 -61.411  0.00  0.00    +0.000 A 
ATOM     28  C   UNL     1      -4.415   3.109 -60.673  0.00  0.00    +0.000 A 
ENDBRANCH  20  23
ENDBRANCH  19  20
ENDBRANCH  17  19
ENDBRANCH   4  18
TORSDOF 6
ENDMDL
MODEL 9
REMARK VINA RESULT:      -5.3     14.031     14.822
REMARK  Name = 155635625
REMARK  6 active torsions:
REMARK  status: ('A' for Active; 'I' for Inactive)
REMARK    1  A    between atoms: O_4  and  N_7
REMARK    2  A    between atoms: O_4  and  C_22
REMARK    3  A    between atoms: N_8  and  C_20
REMARK    4  A    between atoms: C_9  and  C_14
REMARK    5  A    between atoms: C_10  and  C_12
REMARK    6  A    between atoms: C_21  and  C_22
REMARK                            x       y       z     vdW  Elec       q    Type
REMARK                         _______ _______ _______ _____ _____    ______ ____
ROOT
ATOM      1  S   UNL     1     -11.200  10.911 -30.548  0.00  0.00    +0.000 S 
ATOM      2  N   UNL     1     -12.459   9.602 -32.359  0.00  0.00    +0.000 N 
ATOM      3  N   UNL     1     -10.300   9.053 -32.450  0.00  0.00    +0.000 NA
ATOM      4  C   UNL     1     -12.376   8.713 -33.399  0.00  0.00    +0.000 A 
ATOM      5  C   UNL     1     -11.018   8.365 -33.423  0.00  0.00    +0.000 A 
ATOM      6  C   UNL     1     -11.210   9.764 -31.850  0.00  0.00    +0.000 A 
ATOM      7  C   UNL     1     -13.440  10.368 -31.763  0.00  0.00    +0.000 A 
ATOM      8  C   UNL     1     -12.940  11.127 -30.773  0.00  0.00    +0.000 A 
ENDROOT
BRANCH   5   9
ATOM      9  C   UNL     1     -10.358   7.406 -34.306  0.00  0.00    +0.000 A 
ATOM     10  C   UNL     1     -10.781   6.071 -34.405  0.00  0.00    +0.000 A 
ATOM     11  C   UNL     1      -9.234   7.810 -35.049  0.00  0.00    +0.000 A 
ATOM     12  C   UNL     1     -10.137   5.172 -35.258  0.00  0.00    +0.000 A 
ATOM     13  C   UNL     1      -8.565   6.909 -35.886  0.00  0.00    +0.000 A 
ATOM     14  C   UNL     1      -9.029   5.599 -35.980  0.00  0.00    +0.000 A 
BRANCH  14  15
ATOM     15  N   UNL     1      -8.360   4.688 -36.785  0.00  0.00    +0.000 NA
ATOM     16  C   UNL     1      -7.783   3.915 -37.450  0.00  0.00    +0.000 C 
ENDBRANCH  14  15
ENDBRANCH   5   9
BRANCH   4  18
ATOM     17  N   UNL     1     -14.152   7.286 -33.969  0.00  0.00    +0.000 NA
ATOM     18  C   UNL     1     -13.482   8.354 -34.235  0.00  0.00    +0.000 C 
BRANCH  17  19
ATOM     19  O   UNL     1     -15.189   7.097 -34.894  0.00  0.00    +0.000 OA
BRANCH  19  20
ATOM     20  C   UNL     1     -15.830   8.365 -35.042  0.00  0.00    +0.000 C 
BRANCH  20  23
ATOM     21 CL   UNL     1     -20.716   9.590 -36.264  0.00  0.00    +0.000 Cl
ATOM     22 CL   UNL     1     -21.697   7.689 -33.811  0.00  0.00    +0.000 Cl
ATOM     23  C   UNL     1     -17.287   8.291 -34.672  0.00  0.00    +0.000 A 
ATOM     24  C   UNL     1     -18.244   8.939 -35.469  0.00  0.00    +0.000 A 
ATOM     25  C   UNL     1     -17.715   7.524 -33.582  0.00  0.00    +0.000 A 
ATOM     26  C   UNL     1     -19.608   8.783 -35.212  0.00  0.00    +0.000 A 
ATOM     27  C   UNL     1     -19.080   7.365 -33.324  0.00  0.00    +0.000 A 
ATOM     28  C   UNL     1     -20.029   7.981 -34.147  0.00  0.00    +0.000 A 
ENDBRANCH  20  23
ENDBRANCH  19  20
ENDBRANCH  17  19
ENDBRANCH   4  18
TORSDOF 6
ENDMDL
MODEL 10
REMARK VINA RESULT:      -5.2     21.527     24.178
REMARK  Name = 155635625
REMARK  6 active torsions:
REMARK  status: ('A' for Active; 'I' for Inactive)
REMARK    1  A    between atoms: O_4  and  N_7
REMARK    2  A    between atoms: O_4  and  C_22
REMARK    3  A    between atoms: N_8  and  C_20
REMARK    4  A    between atoms: C_9  and  C_14
REMARK    5  A    between atoms: C_10  and  C_12
REMARK    6  A    between atoms: C_21  and  C_22
REMARK                            x       y       z     vdW  Elec       q    Type
REMARK                         _______ _______ _______ _____ _____    ______ ____
ROOT
ATOM      1  S   UNL     1     -25.579   0.809 -56.076  0.00  0.00    +0.000 S 
ATOM      2  N   UNL     1     -25.045   0.688 -53.570  0.00  0.00    +0.000 N 
ATOM      3  N   UNL     1     -25.071  -1.382 -54.396  0.00  0.00    +0.000 NA
ATOM      4  C   UNL     1     -24.790  -0.114 -52.489  0.00  0.00    +0.000 A 
ATOM      5  C   UNL     1     -24.788  -1.406 -53.034  0.00  0.00    +0.000 A 
ATOM      6  C   UNL     1     -25.207  -0.114 -54.654  0.00  0.00    +0.000 A 
ATOM      7  C   UNL     1     -25.215   2.037 -53.806  0.00  0.00    +0.000 A 
ATOM      8  C   UNL     1     -25.505   2.279 -55.096  0.00  0.00    +0.000 A 
ENDROOT
BRANCH   5   9
ATOM      9  C   UNL     1     -24.520  -2.666 -52.344  0.00  0.00    +0.000 A 
ATOM     10  C   UNL     1     -23.419  -3.473 -52.668  0.00  0.00    +0.000 A 
ATOM     11  C   UNL     1     -25.414  -3.116 -51.355  0.00  0.00    +0.000 A 
ATOM     12  C   UNL     1     -23.180  -4.673 -51.995  0.00  0.00    +0.000 A 
ATOM     13  C   UNL     1     -25.199  -4.330 -50.692  0.00  0.00    +0.000 A 
ATOM     14  C   UNL     1     -24.080  -5.093 -51.021  0.00  0.00    +0.000 A 
BRANCH  14  15
ATOM     15  N   UNL     1     -23.869  -6.311 -50.392  0.00  0.00    +0.000 NA
ATOM     16  C   UNL     1     -23.673  -7.334 -49.854  0.00  0.00    +0.000 C 
ENDBRANCH  14  15
ENDBRANCH   5   9
BRANCH   4  18
ATOM     17  N   UNL     1     -23.505   0.250 -50.556  0.00  0.00    +0.000 NA
ATOM     18  C   UNL     1     -24.644   0.370 -51.148  0.00  0.00    +0.000 C 
BRANCH  17  19
ATOM     19  O   UNL     1     -23.555   0.775 -49.257  0.00  0.00    +0.000 OA
BRANCH  19  20
ATOM     20  C   UNL     1     -24.672   0.155 -48.617  0.00  0.00    +0.000 C 
BRANCH  20  23
ATOM     21 CL   UNL     1     -26.446   1.044 -43.829  0.00  0.00    +0.000 Cl
ATOM     22 CL   UNL     1     -27.032   4.116 -44.728  0.00  0.00    +0.000 Cl
ATOM     23  C   UNL     1     -25.363   1.104 -47.676  0.00  0.00    +0.000 A 
ATOM     24  C   UNL     1     -25.639   0.706 -46.359  0.00  0.00    +0.000 A 
ATOM     25  C   UNL     1     -25.675   2.410 -48.072  0.00  0.00    +0.000 A 
ATOM     26  C   UNL     1     -26.170   1.611 -45.437  0.00  0.00    +0.000 A 
ATOM     27  C   UNL     1     -26.204   3.319 -47.151  0.00  0.00    +0.000 A 
ATOM     28  C   UNL     1     -26.438   2.926 -45.829  0.00  0.00    +0.000 A 
ENDBRANCH  20  23
ENDBRANCH  19  20
ENDBRANCH  17  19
ENDBRANCH   4  18
TORSDOF 6
ENDMDL
