MODEL 1
REMARK VINA RESULT:      -4.8      0.000      0.000
REMARK  Name = 157414489
REMARK  6 active torsions:
REMARK  status: ('A' for Active; 'I' for Inactive)
REMARK    1  A    between atoms: O_4  and  N_7
REMARK    2  A    between atoms: O_4  and  C_18
REMARK    3  A    between atoms: C_8  and  C_13
REMARK    4  A    between atoms: C_9  and  C_11
REMARK    5  A    between atoms: C_17  and  C_18
REMARK    6  A    between atoms: C_19  and  C_27
REMARK                            x       y       z     vdW  Elec       q    Type
REMARK                         _______ _______ _______ _____ _____    ______ ____
ROOT
ATOM      1  S   UNL     1     -27.105   4.321 -53.872  0.00  0.00    +0.000 S 
ATOM      2  N   UNL     1     -25.231   3.548 -55.454  0.00  0.00    +0.000 N 
ATOM      3  N   UNL     1     -24.580   5.417 -54.417  0.00  0.00    +0.000 NA
ATOM      4  C   UNL     1     -23.985   3.819 -55.974  0.00  0.00    +0.000 A 
ATOM      5  C   UNL     1     -23.606   4.992 -55.307  0.00  0.00    +0.000 A 
ATOM      6  C   UNL     1     -25.532   4.544 -54.574  0.00  0.00    +0.000 A 
ATOM      7  C   UNL     1     -26.198   2.571 -55.567  0.00  0.00    +0.000 A 
ATOM      8  C   UNL     1     -27.280   2.838 -54.818  0.00  0.00    +0.000 A 
ENDROOT
BRANCH   5  10
ATOM      9 CL   UNL     1     -18.482   8.001 -56.030  0.00  0.00    +0.000 Cl
ATOM     10  C   UNL     1     -22.367   5.741 -55.476  0.00  0.00    +0.000 A 
ATOM     11  C   UNL     1     -21.300   5.168 -56.186  0.00  0.00    +0.000 A 
ATOM     12  C   UNL     1     -22.187   7.012 -54.908  0.00  0.00    +0.000 A 
ATOM     13  C   UNL     1     -20.100   5.860 -56.359  0.00  0.00    +0.000 A 
ATOM     14  C   UNL     1     -20.989   7.711 -55.086  0.00  0.00    +0.000 A 
ATOM     15  C   UNL     1     -19.951   7.137 -55.815  0.00  0.00    +0.000 A 
ENDBRANCH   5  10
BRANCH   4  17
ATOM     16  N   UNL     1     -23.360   3.026 -58.221  0.00  0.00    +0.000 NA
ATOM     17  C   UNL     1     -23.260   3.011 -56.922  0.00  0.00    +0.000 C 
BRANCH  16  18
ATOM     18  O   UNL     1     -24.167   4.080 -58.660  0.00  0.00    +0.000 OA
BRANCH  18  19
ATOM     19  C   UNL     1     -23.490   4.868 -59.641  0.00  0.00    +0.000 C 
BRANCH  19  21
ATOM     20 CL   UNL     1     -22.943  10.394 -57.270  0.00  0.00    +0.000 Cl
ATOM     21  C   UNL     1     -23.380   6.259 -59.069  0.00  0.00    +0.000 A 
ATOM     22  C   UNL     1     -22.019   8.264 -58.713  0.00  0.00    +0.000 A 
ATOM     23  C   UNL     1     -22.190   6.982 -59.255  0.00  0.00    +0.000 A 
ATOM     24  C   UNL     1     -24.422   6.841 -58.339  0.00  0.00    +0.000 A 
ATOM     25  C   UNL     1     -23.072   8.825 -57.979  0.00  0.00    +0.000 A 
ATOM     26  C   UNL     1     -24.267   8.119 -57.797  0.00  0.00    +0.000 A 
ATOM     27  C   UNL     1     -20.717   8.982 -58.926  0.00  0.00    +0.000 C 
ENDBRANCH  19  21
ENDBRANCH  18  19
ENDBRANCH  16  18
ENDBRANCH   4  17
TORSDOF 5
ENDMDL
MODEL 2
REMARK VINA RESULT:      -4.7     23.131     25.304
REMARK  Name = 157414489
REMARK  6 active torsions:
REMARK  status: ('A' for Active; 'I' for Inactive)
REMARK    1  A    between atoms: O_4  and  N_7
REMARK    2  A    between atoms: O_4  and  C_18
REMARK    3  A    between atoms: C_8  and  C_13
REMARK    4  A    between atoms: C_9  and  C_11
REMARK    5  A    between atoms: C_17  and  C_18
REMARK    6  A    between atoms: C_19  and  C_27
REMARK                            x       y       z     vdW  Elec       q    Type
REMARK                         _______ _______ _______ _____ _____    ______ ____
ROOT
ATOM      1  S   UNL     1      -9.811  10.064 -31.314  0.00  0.00    +0.000 S 
ATOM      2  N   UNL     1     -10.847   9.549 -33.611  0.00  0.00    +0.000 N 
ATOM      3  N   UNL     1      -9.212   8.081 -33.208  0.00  0.00    +0.000 NA
ATOM      4  C   UNL     1     -10.801   8.762 -34.739  0.00  0.00    +0.000 A 
ATOM      5  C   UNL     1      -9.769   7.855 -34.457  0.00  0.00    +0.000 A 
ATOM      6  C   UNL     1      -9.865   9.117 -32.770  0.00  0.00    +0.000 A 
ATOM      7  C   UNL     1     -11.603  10.595 -33.122  0.00  0.00    +0.000 A 
ATOM      8  C   UNL     1     -11.170  11.016 -31.922  0.00  0.00    +0.000 A 
ENDROOT
BRANCH   5  10
ATOM      9 CL   UNL     1      -7.797   3.418 -37.959  0.00  0.00    +0.000 Cl
ATOM     10  C   UNL     1      -9.274   6.787 -35.316  0.00  0.00    +0.000 A 
ATOM     11  C   UNL     1     -10.047   5.629 -35.498  0.00  0.00    +0.000 A 
ATOM     12  C   UNL     1      -8.018   6.858 -35.938  0.00  0.00    +0.000 A 
ATOM     13  C   UNL     1      -9.596   4.587 -36.312  0.00  0.00    +0.000 A 
ATOM     14  C   UNL     1      -7.567   5.820 -36.759  0.00  0.00    +0.000 A 
ATOM     15  C   UNL     1      -8.358   4.691 -36.949  0.00  0.00    +0.000 A 
ENDBRANCH   5  10
BRANCH   4  17
ATOM     16  N   UNL     1     -12.898   8.398 -35.978  0.00  0.00    +0.000 NA
ATOM     17  C   UNL     1     -11.679   8.846 -35.879  0.00  0.00    +0.000 C 
BRANCH  16  18
ATOM     18  O   UNL     1     -13.379   7.943 -34.747  0.00  0.00    +0.000 OA
BRANCH  18  19
ATOM     19  C   UNL     1     -14.118   6.730 -34.903  0.00  0.00    +0.000 C 
BRANCH  19  21
ATOM     20 CL   UNL     1     -19.677   8.009 -32.924  0.00  0.00    +0.000 Cl
ATOM     21  C   UNL     1     -15.514   7.015 -34.410  0.00  0.00    +0.000 A 
ATOM     22  C   UNL     1     -17.649   8.166 -34.750  0.00  0.00    +0.000 A 
ATOM     23  C   UNL     1     -16.355   7.838 -35.178  0.00  0.00    +0.000 A 
ATOM     24  C   UNL     1     -15.988   6.501 -33.198  0.00  0.00    +0.000 A 
ATOM     25  C   UNL     1     -18.100   7.648 -33.530  0.00  0.00    +0.000 A 
ATOM     26  C   UNL     1     -17.276   6.818 -32.762  0.00  0.00    +0.000 A 
ATOM     27  C   UNL     1     -18.496   9.067 -35.602  0.00  0.00    +0.000 C 
ENDBRANCH  19  21
ENDBRANCH  18  19
ENDBRANCH  16  18
ENDBRANCH   4  17
TORSDOF 5
ENDMDL
MODEL 3
REMARK VINA RESULT:      -4.7     18.255     20.519
REMARK  Name = 157414489
REMARK  6 active torsions:
REMARK  status: ('A' for Active; 'I' for Inactive)
REMARK    1  A    between atoms: O_4  and  N_7
REMARK    2  A    between atoms: O_4  and  C_18
REMARK    3  A    between atoms: C_8  and  C_13
REMARK    4  A    between atoms: C_9  and  C_11
REMARK    5  A    between atoms: C_17  and  C_18
REMARK    6  A    between atoms: C_19  and  C_27
REMARK                            x       y       z     vdW  Elec       q    Type
REMARK                         _______ _______ _______ _____ _____    ______ ____
ROOT
ATOM      1  S   UNL     1      -1.851  -2.821 -48.717  0.00  0.00    +0.000 S 
ATOM      2  N   UNL     1      -4.079  -3.908 -49.399  0.00  0.00    +0.000 N 
ATOM      3  N   UNL     1      -3.165  -2.942 -51.193  0.00  0.00    +0.000 NA
ATOM      4  C   UNL     1      -4.989  -4.123 -50.410  0.00  0.00    +0.000 A 
ATOM      5  C   UNL     1      -4.389  -3.507 -51.518  0.00  0.00    +0.000 A 
ATOM      6  C   UNL     1      -3.053  -3.179 -49.919  0.00  0.00    +0.000 A 
ATOM      7  C   UNL     1      -3.932  -4.238 -48.067  0.00  0.00    +0.000 A 
ATOM      8  C   UNL     1      -2.815  -3.714 -47.535  0.00  0.00    +0.000 A 
ENDROOT
BRANCH   5  10
ATOM      9 CL   UNL     1      -6.620  -3.202 -57.064  0.00  0.00    +0.000 Cl
ATOM     10  C   UNL     1      -4.921  -3.417 -52.872  0.00  0.00    +0.000 A 
ATOM     11  C   UNL     1      -6.012  -4.218 -53.244  0.00  0.00    +0.000 A 
ATOM     12  C   UNL     1      -4.344  -2.579 -53.840  0.00  0.00    +0.000 A 
ATOM     13  C   UNL     1      -6.540  -4.156 -54.535  0.00  0.00    +0.000 A 
ATOM     14  C   UNL     1      -4.875  -2.509 -55.131  0.00  0.00    +0.000 A 
ATOM     15  C   UNL     1      -5.973  -3.292 -55.475  0.00  0.00    +0.000 A 
ENDBRANCH   5  10
BRANCH   4  17
ATOM     16  N   UNL     1      -7.365  -4.466 -49.860  0.00  0.00    +0.000 NA
ATOM     17  C   UNL     1      -6.214  -4.875 -50.314  0.00  0.00    +0.000 C 
BRANCH  16  18
ATOM     18  O   UNL     1      -7.357  -3.090 -49.609  0.00  0.00    +0.000 OA
BRANCH  18  19
ATOM     19  C   UNL     1      -8.414  -2.436 -50.313  0.00  0.00    +0.000 C 
BRANCH  19  21
ATOM     20 CL   UNL     1      -5.752   1.255 -54.282  0.00  0.00    +0.000 Cl
ATOM     21  C   UNL     1      -7.756  -1.487 -51.282  0.00  0.00    +0.000 A 
ATOM     22  C   UNL     1      -7.686  -0.527 -53.535  0.00  0.00    +0.000 A 
ATOM     23  C   UNL     1      -8.279  -1.366 -52.581  0.00  0.00    +0.000 A 
ATOM     24  C   UNL     1      -6.626  -0.740 -50.933  0.00  0.00    +0.000 A 
ATOM     25  C   UNL     1      -6.551   0.205 -53.166  0.00  0.00    +0.000 A 
ATOM     26  C   UNL     1      -6.027   0.102 -51.873  0.00  0.00    +0.000 A 
ATOM     27  C   UNL     1      -8.276  -0.454 -54.915  0.00  0.00    +0.000 C 
ENDBRANCH  19  21
ENDBRANCH  18  19
ENDBRANCH  16  18
ENDBRANCH   4  17
TORSDOF 5
ENDMDL
MODEL 4
REMARK VINA RESULT:      -4.3      6.174      7.488
REMARK  Name = 157414489
REMARK  6 active torsions:
REMARK  status: ('A' for Active; 'I' for Inactive)
REMARK    1  A    between atoms: O_4  and  N_7
REMARK    2  A    between atoms: O_4  and  C_18
REMARK    3  A    between atoms: C_8  and  C_13
REMARK    4  A    between atoms: C_9  and  C_11
REMARK    5  A    between atoms: C_17  and  C_18
REMARK    6  A    between atoms: C_19  and  C_27
REMARK                            x       y       z     vdW  Elec       q    Type
REMARK                         _______ _______ _______ _____ _____    ______ ____
ROOT
ATOM      1  S   UNL     1     -27.099   4.242 -50.214  0.00  0.00    +0.000 S 
ATOM      2  N   UNL     1     -24.851   5.484 -50.087  0.00  0.00    +0.000 N 
ATOM      3  N   UNL     1     -26.099   6.061 -48.326  0.00  0.00    +0.000 NA
ATOM      4  C   UNL     1     -24.085   6.401 -49.403  0.00  0.00    +0.000 A 
ATOM      5  C   UNL     1     -24.892   6.742 -48.309  0.00  0.00    +0.000 A 
ATOM      6  C   UNL     1     -26.033   5.359 -49.419  0.00  0.00    +0.000 A 
ATOM      7  C   UNL     1     -24.736   4.683 -51.204  0.00  0.00    +0.000 A 
ATOM      8  C   UNL     1     -25.853   3.976 -51.439  0.00  0.00    +0.000 A 
ENDROOT
BRANCH   5  10
ATOM      9 CL   UNL     1     -23.624  10.703 -44.003  0.00  0.00    +0.000 Cl
ATOM     10  C   UNL     1     -24.582   7.692 -47.247  0.00  0.00    +0.000 A 
ATOM     11  C   UNL     1     -24.657   9.070 -47.505  0.00  0.00    +0.000 A 
ATOM     12  C   UNL     1     -24.165   7.271 -45.975  0.00  0.00    +0.000 A 
ATOM     13  C   UNL     1     -24.362  10.003 -46.508  0.00  0.00    +0.000 A 
ATOM     14  C   UNL     1     -23.877   8.202 -44.972  0.00  0.00    +0.000 A 
ATOM     15  C   UNL     1     -23.981   9.564 -45.239  0.00  0.00    +0.000 A 
ENDBRANCH   5  10
BRANCH   4  17
ATOM     16  N   UNL     1     -22.358   7.476 -50.792  0.00  0.00    +0.000 NA
ATOM     17  C   UNL     1     -22.746   6.817 -49.738  0.00  0.00    +0.000 C 
BRANCH  16  18
ATOM     18  O   UNL     1     -23.447   7.923 -51.546  0.00  0.00    +0.000 OA
BRANCH  18  19
ATOM     19  C   UNL     1     -23.010   8.668 -52.684  0.00  0.00    +0.000 C 
BRANCH  19  21
ATOM     20 CL   UNL     1     -21.379   4.722 -56.953  0.00  0.00    +0.000 Cl
ATOM     21  C   UNL     1     -22.604   7.657 -53.726  0.00  0.00    +0.000 A 
ATOM     22  C   UNL     1     -20.955   6.916 -55.379  0.00  0.00    +0.000 A 
ATOM     23  C   UNL     1     -21.367   7.805 -54.376  0.00  0.00    +0.000 A 
ATOM     24  C   UNL     1     -23.433   6.587 -54.080  0.00  0.00    +0.000 A 
ATOM     25  C   UNL     1     -21.804   5.857 -55.723  0.00  0.00    +0.000 A 
ATOM     26  C   UNL     1     -23.033   5.692 -55.075  0.00  0.00    +0.000 A 
ATOM     27  C   UNL     1     -19.631   7.136 -56.055  0.00  0.00    +0.000 C 
ENDBRANCH  19  21
ENDBRANCH  18  19
ENDBRANCH  16  18
ENDBRANCH   4  17
TORSDOF 5
ENDMDL
MODEL 5
REMARK VINA RESULT:      -4.2     17.990     20.430
REMARK  Name = 157414489
REMARK  6 active torsions:
REMARK  status: ('A' for Active; 'I' for Inactive)
REMARK    1  A    between atoms: O_4  and  N_7
REMARK    2  A    between atoms: O_4  and  C_18
REMARK    3  A    between atoms: C_8  and  C_13
REMARK    4  A    between atoms: C_9  and  C_11
REMARK    5  A    between atoms: C_17  and  C_18
REMARK    6  A    between atoms: C_19  and  C_27
REMARK                            x       y       z     vdW  Elec       q    Type
REMARK                         _______ _______ _______ _____ _____    ______ ____
ROOT
ATOM      1  S   UNL     1       1.187   6.326 -60.028  0.00  0.00    +0.000 S 
ATOM      2  N   UNL     1      -1.309   6.937 -59.945  0.00  0.00    +0.000 N 
ATOM      3  N   UNL     1      -0.808   5.693 -58.159  0.00  0.00    +0.000 NA
ATOM      4  C   UNL     1      -2.503   6.792 -59.276  0.00  0.00    +0.000 A 
ATOM      5  C   UNL     1      -2.157   6.010 -58.165  0.00  0.00    +0.000 A 
ATOM      6  C   UNL     1      -0.365   6.238 -59.254  0.00  0.00    +0.000 A 
ATOM      7  C   UNL     1      -0.835   7.590 -61.064  0.00  0.00    +0.000 A 
ATOM      8  C   UNL     1       0.469   7.349 -61.278  0.00  0.00    +0.000 A 
ENDROOT
BRANCH   5  10
ATOM      9 CL   UNL     1      -5.768   4.123 -53.779  0.00  0.00    +0.000 Cl
ATOM     10  C   UNL     1      -3.043   5.536 -57.110  0.00  0.00    +0.000 A 
ATOM     11  C   UNL     1      -3.207   6.302 -55.944  0.00  0.00    +0.000 A 
ATOM     12  C   UNL     1      -3.712   4.305 -57.200  0.00  0.00    +0.000 A 
ATOM     13  C   UNL     1      -4.045   5.871 -54.915  0.00  0.00    +0.000 A 
ATOM     14  C   UNL     1      -4.558   3.873 -56.174  0.00  0.00    +0.000 A 
ATOM     15  C   UNL     1      -4.727   4.659 -55.037  0.00  0.00    +0.000 A 
ENDBRANCH   5  10
BRANCH   4  17
ATOM     16  N   UNL     1      -4.665   6.916 -60.450  0.00  0.00    +0.000 NA
ATOM     17  C   UNL     1      -3.765   7.389 -59.637  0.00  0.00    +0.000 C 
BRANCH  16  18
ATOM     18  O   UNL     1      -4.361   5.609 -60.846  0.00  0.00    +0.000 OA
BRANCH  18  19
ATOM     19  C   UNL     1      -5.272   5.153 -61.848  0.00  0.00    +0.000 C 
BRANCH  19  21
ATOM     20 CL   UNL     1      -7.203  -0.302 -60.126  0.00  0.00    +0.000 Cl
ATOM     21  C   UNL     1      -5.721   3.779 -61.422  0.00  0.00    +0.000 A 
ATOM     22  C   UNL     1      -7.179   1.849 -61.813  0.00  0.00    +0.000 A 
ATOM     23  C   UNL     1      -6.697   3.112 -62.183  0.00  0.00    +0.000 A 
ATOM     24  C   UNL     1      -5.210   3.157 -60.278  0.00  0.00    +0.000 A 
ATOM     25  C   UNL     1      -6.660   1.248 -60.659  0.00  0.00    +0.000 A 
ATOM     26  C   UNL     1      -5.679   1.896 -59.900  0.00  0.00    +0.000 A 
ATOM     27  C   UNL     1      -8.238   1.193 -62.653  0.00  0.00    +0.000 C 
ENDBRANCH  19  21
ENDBRANCH  18  19
ENDBRANCH  16  18
ENDBRANCH   4  17
TORSDOF 5
ENDMDL
MODEL 6
REMARK VINA RESULT:      -4.1      3.202      4.574
REMARK  Name = 157414489
REMARK  6 active torsions:
REMARK  status: ('A' for Active; 'I' for Inactive)
REMARK    1  A    between atoms: O_4  and  N_7
REMARK    2  A    between atoms: O_4  and  C_18
REMARK    3  A    between atoms: C_8  and  C_13
REMARK    4  A    between atoms: C_9  and  C_11
REMARK    5  A    between atoms: C_17  and  C_18
REMARK    6  A    between atoms: C_19  and  C_27
REMARK                            x       y       z     vdW  Elec       q    Type
REMARK                         _______ _______ _______ _____ _____    ______ ____
ROOT
ATOM      1  S   UNL     1     -24.723   6.931 -59.140  0.00  0.00    +0.000 S 
ATOM      2  N   UNL     1     -22.846   5.970 -57.669  0.00  0.00    +0.000 N 
ATOM      3  N   UNL     1     -24.250   7.136 -56.381  0.00  0.00    +0.000 NA
ATOM      4  C   UNL     1     -22.303   5.895 -56.405  0.00  0.00    +0.000 A 
ATOM      5  C   UNL     1     -23.203   6.633 -55.624  0.00  0.00    +0.000 A 
ATOM      6  C   UNL     1     -23.966   6.742 -57.588  0.00  0.00    +0.000 A 
ATOM      7  C   UNL     1     -22.578   5.477 -58.929  0.00  0.00    +0.000 A 
ATOM      8  C   UNL     1     -23.460   5.914 -59.843  0.00  0.00    +0.000 A 
ENDROOT
BRANCH   5  10
ATOM      9 CL   UNL     1     -22.926   7.676 -49.736  0.00  0.00    +0.000 Cl
ATOM     10  C   UNL     1     -23.119   6.897 -54.193  0.00  0.00    +0.000 A 
ATOM     11  C   UNL     1     -23.995   6.242 -53.314  0.00  0.00    +0.000 A 
ATOM     12  C   UNL     1     -22.211   7.829 -53.664  0.00  0.00    +0.000 A 
ATOM     13  C   UNL     1     -23.940   6.478 -51.939  0.00  0.00    +0.000 A 
ATOM     14  C   UNL     1     -22.149   8.062 -52.287  0.00  0.00    +0.000 A 
ATOM     15  C   UNL     1     -23.008   7.384 -51.428  0.00  0.00    +0.000 A 
ENDBRANCH   5  10
BRANCH   4  17
ATOM     16  N   UNL     1     -19.892   5.393 -56.359  0.00  0.00    +0.000 NA
ATOM     17  C   UNL     1     -21.127   5.155 -56.021  0.00  0.00    +0.000 C 
BRANCH  16  18
ATOM     18  O   UNL     1     -19.772   6.608 -57.040  0.00  0.00    +0.000 OA
BRANCH  18  19
ATOM     19  C   UNL     1     -19.249   7.625 -56.184  0.00  0.00    +0.000 C 
BRANCH  19  21
ATOM     20 CL   UNL     1     -20.985  12.967 -58.398  0.00  0.00    +0.000 Cl
ATOM     21  C   UNL     1     -19.707   8.942 -56.756  0.00  0.00    +0.000 A 
ATOM     22  C   UNL     1     -19.156  10.973 -58.011  0.00  0.00    +0.000 A 
ATOM     23  C   UNL     1     -18.796   9.723 -57.488  0.00  0.00    +0.000 A 
ATOM     24  C   UNL     1     -21.007   9.420 -56.560  0.00  0.00    +0.000 A 
ATOM     25  C   UNL     1     -20.461  11.436 -57.796  0.00  0.00    +0.000 A 
ATOM     26  C   UNL     1     -21.380  10.662 -57.079  0.00  0.00    +0.000 A 
ATOM     27  C   UNL     1     -18.135  11.773 -58.767  0.00  0.00    +0.000 C 
ENDBRANCH  19  21
ENDBRANCH  18  19
ENDBRANCH  16  18
ENDBRANCH   4  17
TORSDOF 5
ENDMDL
MODEL 7
REMARK VINA RESULT:      -4.1      5.726      7.597
REMARK  Name = 157414489
REMARK  6 active torsions:
REMARK  status: ('A' for Active; 'I' for Inactive)
REMARK    1  A    between atoms: O_4  and  N_7
REMARK    2  A    between atoms: O_4  and  C_18
REMARK    3  A    between atoms: C_8  and  C_13
REMARK    4  A    between atoms: C_9  and  C_11
REMARK    5  A    between atoms: C_17  and  C_18
REMARK    6  A    between atoms: C_19  and  C_27
REMARK                            x       y       z     vdW  Elec       q    Type
REMARK                         _______ _______ _______ _____ _____    ______ ____
ROOT
ATOM      1  S   UNL     1     -27.636   9.521 -48.662  0.00  0.00    +0.000 S 
ATOM      2  N   UNL     1     -25.351   8.379 -48.959  0.00  0.00    +0.000 N 
ATOM      3  N   UNL     1     -26.925   6.807 -48.752  0.00  0.00    +0.000 NA
ATOM      4  C   UNL     1     -24.662   7.188 -49.009  0.00  0.00    +0.000 A 
ATOM      5  C   UNL     1     -25.673   6.226 -48.877  0.00  0.00    +0.000 A 
ATOM      6  C   UNL     1     -26.668   8.082 -48.771  0.00  0.00    +0.000 A 
ATOM      7  C   UNL     1     -25.075   9.727 -49.064  0.00  0.00    +0.000 A 
ATOM      8  C   UNL     1     -26.173  10.483 -48.899  0.00  0.00    +0.000 A 
ENDROOT
BRANCH   5  10
ATOM      9 CL   UNL     1     -25.022   0.275 -48.860  0.00  0.00    +0.000 Cl
ATOM     10  C   UNL     1     -25.514   4.777 -48.852  0.00  0.00    +0.000 A 
ATOM     11  C   UNL     1     -25.254   4.087 -50.047  0.00  0.00    +0.000 A 
ATOM     12  C   UNL     1     -25.659   4.035 -47.669  0.00  0.00    +0.000 A 
ATOM     13  C   UNL     1     -25.102   2.700 -50.055  0.00  0.00    +0.000 A 
ATOM     14  C   UNL     1     -25.499   2.646 -47.673  0.00  0.00    +0.000 A 
ATOM     15  C   UNL     1     -25.216   1.982 -48.863  0.00  0.00    +0.000 A 
ENDBRANCH   5  10
BRANCH   4  17
ATOM     16  N   UNL     1     -22.627   6.870 -50.359  0.00  0.00    +0.000 NA
ATOM     17  C   UNL     1     -23.246   7.026 -49.224  0.00  0.00    +0.000 C 
BRANCH  16  18
ATOM     18  O   UNL     1     -23.491   7.051 -51.443  0.00  0.00    +0.000 OA
BRANCH  18  19
ATOM     19  C   UNL     1     -23.039   8.111 -52.287  0.00  0.00    +0.000 C 
BRANCH  19  21
ATOM     20 CL   UNL     1     -20.860   5.632 -57.344  0.00  0.00    +0.000 Cl
ATOM     21  C   UNL     1     -22.492   7.461 -53.533  0.00  0.00    +0.000 A 
ATOM     22  C   UNL     1     -20.761   7.406 -55.266  0.00  0.00    +0.000 A 
ATOM     23  C   UNL     1     -21.296   7.947 -54.089  0.00  0.00    +0.000 A 
ATOM     24  C   UNL     1     -23.153   6.402 -54.164  0.00  0.00    +0.000 A 
ATOM     25  C   UNL     1     -21.444   6.351 -55.886  0.00  0.00    +0.000 A 
ATOM     26  C   UNL     1     -22.630   5.851 -55.336  0.00  0.00    +0.000 A 
ATOM     27  C   UNL     1     -19.491   7.979 -55.825  0.00  0.00    +0.000 C 
ENDBRANCH  19  21
ENDBRANCH  18  19
ENDBRANCH  16  18
ENDBRANCH   4  17
TORSDOF 5
ENDMDL
MODEL 8
REMARK VINA RESULT:      -4.1     12.785     15.320
REMARK  Name = 157414489
REMARK  6 active torsions:
REMARK  status: ('A' for Active; 'I' for Inactive)
REMARK    1  A    between atoms: O_4  and  N_7
REMARK    2  A    between atoms: O_4  and  C_18
REMARK    3  A    between atoms: C_8  and  C_13
REMARK    4  A    between atoms: C_9  and  C_11
REMARK    5  A    between atoms: C_17  and  C_18
REMARK    6  A    between atoms: C_19  and  C_27
REMARK                            x       y       z     vdW  Elec       q    Type
REMARK                         _______ _______ _______ _____ _____    ______ ____
ROOT
ATOM      1  S   UNL     1     -12.965  16.034 -62.456  0.00  0.00    +0.000 S 
ATOM      2  N   UNL     1     -11.805  13.855 -61.734  0.00  0.00    +0.000 N 
ATOM      3  N   UNL     1     -11.193  15.496 -60.348  0.00  0.00    +0.000 NA
ATOM      4  C   UNL     1     -10.920  13.261 -60.862  0.00  0.00    +0.000 A 
ATOM      5  C   UNL     1     -10.555  14.312 -60.009  0.00  0.00    +0.000 A 
ATOM      6  C   UNL     1     -11.891  15.173 -61.397  0.00  0.00    +0.000 A 
ATOM      7  C   UNL     1     -12.605  13.481 -62.794  0.00  0.00    +0.000 A 
ATOM      8  C   UNL     1     -13.270  14.522 -63.321  0.00  0.00    +0.000 A 
ENDROOT
BRANCH   5  10
ATOM      9 CL   UNL     1      -6.730  14.168 -55.407  0.00  0.00    +0.000 Cl
ATOM     10  C   UNL     1      -9.623  14.257 -58.891  0.00  0.00    +0.000 A 
ATOM     11  C   UNL     1      -9.386  15.411 -58.126  0.00  0.00    +0.000 A 
ATOM     12  C   UNL     1      -8.912  13.089 -58.576  0.00  0.00    +0.000 A 
ATOM     13  C   UNL     1      -8.495  15.389 -57.052  0.00  0.00    +0.000 A 
ATOM     14  C   UNL     1      -8.024  13.061 -57.496  0.00  0.00    +0.000 A 
ATOM     15  C   UNL     1      -7.822  14.208 -56.733  0.00  0.00    +0.000 A 
ENDBRANCH   5  10
BRANCH   4  17
ATOM     16  N   UNL     1     -11.179  10.892 -60.243  0.00  0.00    +0.000 NA
ATOM     17  C   UNL     1     -10.551  11.869 -60.833  0.00  0.00    +0.000 C 
BRANCH  16  18
ATOM     18  O   UNL     1     -12.417  11.306 -59.744  0.00  0.00    +0.000 OA
BRANCH  18  19
ATOM     19  C   UNL     1     -12.753  10.592 -58.553  0.00  0.00    +0.000 C 
BRANCH  19  21
ATOM     20 CL   UNL     1     -10.310  13.798 -54.057  0.00  0.00    +0.000 Cl
ATOM     21  C   UNL     1     -12.158  11.370 -57.407  0.00  0.00    +0.000 A 
ATOM     22  C   UNL     1     -11.958  13.503 -56.218  0.00  0.00    +0.000 A 
ATOM     23  C   UNL     1     -12.509  12.721 -57.243  0.00  0.00    +0.000 A 
ATOM     24  C   UNL     1     -11.249  10.792 -56.515  0.00  0.00    +0.000 A 
ATOM     25  C   UNL     1     -11.044  12.906 -55.341  0.00  0.00    +0.000 A 
ATOM     26  C   UNL     1     -10.694  11.558 -55.487  0.00  0.00    +0.000 A 
ATOM     27  C   UNL     1     -12.355  14.947 -56.103  0.00  0.00    +0.000 C 
ENDBRANCH  19  21
ENDBRANCH  18  19
ENDBRANCH  16  18
ENDBRANCH   4  17
TORSDOF 5
ENDMDL
MODEL 9
REMARK VINA RESULT:      -4.0      3.720      5.767
REMARK  Name = 157414489
REMARK  6 active torsions:
REMARK  status: ('A' for Active; 'I' for Inactive)
REMARK    1  A    between atoms: O_4  and  N_7
REMARK    2  A    between atoms: O_4  and  C_18
REMARK    3  A    between atoms: C_8  and  C_13
REMARK    4  A    between atoms: C_9  and  C_11
REMARK    5  A    between atoms: C_17  and  C_18
REMARK    6  A    between atoms: C_19  and  C_27
REMARK                            x       y       z     vdW  Elec       q    Type
REMARK                         _______ _______ _______ _____ _____    ______ ____
ROOT
ATOM      1  S   UNL     1     -22.653  10.131 -58.913  0.00  0.00    +0.000 S 
ATOM      2  N   UNL     1     -21.245   8.497 -57.513  0.00  0.00    +0.000 N 
ATOM      3  N   UNL     1     -23.147   8.929 -56.426  0.00  0.00    +0.000 NA
ATOM      4  C   UNL     1     -21.142   7.787 -56.338  0.00  0.00    +0.000 A 
ATOM      5  C   UNL     1     -22.345   8.078 -55.680  0.00  0.00    +0.000 A 
ATOM      6  C   UNL     1     -22.428   9.171 -57.482  0.00  0.00    +0.000 A 
ATOM      7  C   UNL     1     -20.510   8.680 -58.667  0.00  0.00    +0.000 A 
ATOM      8  C   UNL     1     -21.096   9.545 -59.510  0.00  0.00    +0.000 A 
ENDROOT
BRANCH   5  10
ATOM      9 CL   UNL     1     -24.048   6.152 -50.275  0.00  0.00    +0.000 Cl
ATOM     10  C   UNL     1     -22.774   7.598 -54.373  0.00  0.00    +0.000 A 
ATOM     11  C   UNL     1     -22.232   8.170 -53.211  0.00  0.00    +0.000 A 
ATOM     12  C   UNL     1     -23.689   6.542 -54.235  0.00  0.00    +0.000 A 
ATOM     13  C   UNL     1     -22.620   7.728 -51.945  0.00  0.00    +0.000 A 
ATOM     14  C   UNL     1     -24.086   6.102 -52.969  0.00  0.00    +0.000 A 
ATOM     15  C   UNL     1     -23.557   6.698 -51.828  0.00  0.00    +0.000 A 
ENDBRANCH   5  10
BRANCH   4  17
ATOM     16  N   UNL     1     -19.993   5.619 -56.123  0.00  0.00    +0.000 NA
ATOM     17  C   UNL     1     -20.063   6.910 -55.959  0.00  0.00    +0.000 C 
BRANCH  16  18
ATOM     18  O   UNL     1     -21.053   5.143 -56.901  0.00  0.00    +0.000 OA
BRANCH  18  19
ATOM     19  C   UNL     1     -21.833   4.192 -56.175  0.00  0.00    +0.000 C 
BRANCH  19  21
ATOM     20 CL   UNL     1     -26.376   2.728 -59.874  0.00  0.00    +0.000 Cl
ATOM     21  C   UNL     1     -22.973   3.798 -57.079  0.00  0.00    +0.000 A 
ATOM     22  C   UNL     1     -23.741   3.214 -59.331  0.00  0.00    +0.000 A 
ATOM     23  C   UNL     1     -22.714   3.548 -58.438  0.00  0.00    +0.000 A 
ATOM     24  C   UNL     1     -24.287   3.694 -56.609  0.00  0.00    +0.000 A 
ATOM     25  C   UNL     1     -25.050   3.124 -58.840  0.00  0.00    +0.000 A 
ATOM     26  C   UNL     1     -25.320   3.359 -57.487  0.00  0.00    +0.000 A 
ATOM     27  C   UNL     1     -23.408   2.979 -60.777  0.00  0.00    +0.000 C 
ENDBRANCH  19  21
ENDBRANCH  18  19
ENDBRANCH  16  18
ENDBRANCH   4  17
TORSDOF 5
ENDMDL
MODEL 10
REMARK VINA RESULT:      -3.9     17.172     20.023
REMARK  Name = 157414489
REMARK  6 active torsions:
REMARK  status: ('A' for Active; 'I' for Inactive)
REMARK    1  A    between atoms: O_4  and  N_7
REMARK    2  A    between atoms: O_4  and  C_18
REMARK    3  A    between atoms: C_8  and  C_13
REMARK    4  A    between atoms: C_9  and  C_11
REMARK    5  A    between atoms: C_17  and  C_18
REMARK    6  A    between atoms: C_19  and  C_27
REMARK                            x       y       z     vdW  Elec       q    Type
REMARK                         _______ _______ _______ _____ _____    ______ ____
ROOT
ATOM      1  S   UNL     1      -9.287  18.583 -48.924  0.00  0.00    +0.000 S 
ATOM      2  N   UNL     1      -9.963  17.901 -46.539  0.00  0.00    +0.000 N 
ATOM      3  N   UNL     1     -11.573  17.275 -47.956  0.00  0.00    +0.000 NA
ATOM      4  C   UNL     1     -10.930  17.336 -45.739  0.00  0.00    +0.000 A 
ATOM      5  C   UNL     1     -11.923  16.955 -46.653  0.00  0.00    +0.000 A 
ATOM      6  C   UNL     1     -10.421  17.865 -47.822  0.00  0.00    +0.000 A 
ATOM      7  C   UNL     1      -8.705  18.449 -46.394  0.00  0.00    +0.000 A 
ATOM      8  C   UNL     1      -8.207  18.893 -47.560  0.00  0.00    +0.000 A 
ENDROOT
BRANCH   5  10
ATOM      9 CL   UNL     1     -17.120  14.280 -45.360  0.00  0.00    +0.000 Cl
ATOM     10  C   UNL     1     -13.195  16.310 -46.356  0.00  0.00    +0.000 A 
ATOM     11  C   UNL     1     -13.431  15.798 -45.070  0.00  0.00    +0.000 A 
ATOM     12  C   UNL     1     -14.187  16.142 -47.335  0.00  0.00    +0.000 A 
ATOM     13  C   UNL     1     -14.638  15.171 -44.758  0.00  0.00    +0.000 A 
ATOM     14  C   UNL     1     -15.401  15.521 -47.024  0.00  0.00    +0.000 A 
ATOM     15  C   UNL     1     -15.626  15.043 -45.736  0.00  0.00    +0.000 A 
ENDBRANCH   5  10
BRANCH   4  17
ATOM     16  N   UNL     1     -11.071  18.018 -43.376  0.00  0.00    +0.000 NA
ATOM     17  C   UNL     1     -10.854  17.140 -44.313  0.00  0.00    +0.000 C 
BRANCH  16  18
ATOM     18  O   UNL     1     -11.581  19.210 -43.900  0.00  0.00    +0.000 OA
BRANCH  18  19
ATOM     19  C   UNL     1     -12.631  19.722 -43.078  0.00  0.00    +0.000 C 
BRANCH  19  21
ATOM     20 CL   UNL     1     -17.778  18.002 -45.727  0.00  0.00    +0.000 Cl
ATOM     21  C   UNL     1     -13.925  19.327 -43.744  0.00  0.00    +0.000 A 
ATOM     22  C   UNL     1     -16.066  18.145 -43.600  0.00  0.00    +0.000 A 
ATOM     23  C   UNL     1     -14.864  18.572 -43.019  0.00  0.00    +0.000 A 
ATOM     24  C   UNL     1     -14.208  19.670 -45.070  0.00  0.00    +0.000 A 
ATOM     25  C   UNL     1     -16.325  18.494 -44.932  0.00  0.00    +0.000 A 
ATOM     26  C   UNL     1     -15.404  19.255 -45.660  0.00  0.00    +0.000 A 
ATOM     27  C   UNL     1     -17.023  17.323 -42.784  0.00  0.00    +0.000 C 
ENDBRANCH  19  21
ENDBRANCH  18  19
ENDBRANCH  16  18
ENDBRANCH   4  17
TORSDOF 5
ENDMDL
