MODEL 1
REMARK VINA RESULT:      -6.5      0.000      0.000
REMARK  Name = 157414489
REMARK  6 active torsions:
REMARK  status: ('A' for Active; 'I' for Inactive)
REMARK    1  A    between atoms: O_4  and  N_7
REMARK    2  A    between atoms: O_4  and  C_18
REMARK    3  A    between atoms: C_8  and  C_13
REMARK    4  A    between atoms: C_9  and  C_11
REMARK    5  A    between atoms: C_17  and  C_18
REMARK    6  A    between atoms: C_19  and  C_27
REMARK                            x       y       z     vdW  Elec       q    Type
REMARK                         _______ _______ _______ _____ _____    ______ ____
ROOT
ATOM      1  S   UNL     1      10.721   7.619  21.988  0.00  0.00    +0.000 S 
ATOM      2  N   UNL     1      11.403  10.018  21.362  0.00  0.00    +0.000 N 
ATOM      3  N   UNL     1      10.974   9.935  23.553  0.00  0.00    +0.000 NA
ATOM      4  C   UNL     1      11.586  11.310  21.802  0.00  0.00    +0.000 A 
ATOM      5  C   UNL     1      11.310  11.226  23.174  0.00  0.00    +0.000 A 
ATOM      6  C   UNL     1      11.011   9.273  22.434  0.00  0.00    +0.000 A 
ATOM      7  C   UNL     1      11.526   9.310  20.185  0.00  0.00    +0.000 A 
ATOM      8  C   UNL     1      11.173   8.022  20.328  0.00  0.00    +0.000 A 
ENDROOT
BRANCH   5  10
ATOM      9 CL   UNL     1      11.363  15.712  27.136  0.00  0.00    +0.000 Cl
ATOM     10  C   UNL     1      11.338  12.309  24.148  0.00  0.00    +0.000 A 
ATOM     11  C   UNL     1      10.293  13.246  24.175  0.00  0.00    +0.000 A 
ATOM     12  C   UNL     1      12.409  12.475  25.040  0.00  0.00    +0.000 A 
ATOM     13  C   UNL     1      10.295  14.297  25.093  0.00  0.00    +0.000 A 
ATOM     14  C   UNL     1      12.411  13.523  25.967  0.00  0.00    +0.000 A 
ATOM     15  C   UNL     1      11.353  14.427  25.996  0.00  0.00    +0.000 A 
ENDBRANCH   5  10
BRANCH   4  17
ATOM     16  N   UNL     1      13.242  12.696  20.618  0.00  0.00    +0.000 NA
ATOM     17  C   UNL     1      12.029  12.429  21.009  0.00  0.00    +0.000 C 
BRANCH  16  18
ATOM     18  O   UNL     1      14.117  11.645  20.910  0.00  0.00    +0.000 OA
BRANCH  18  19
ATOM     19  C   UNL     1      14.761  11.171  19.726  0.00  0.00    +0.000 C 
BRANCH  19  21
ATOM     20 CL   UNL     1      18.344   6.651  21.514  0.00  0.00    +0.000 Cl
ATOM     21  C   UNL     1      15.684  10.060  20.159  0.00  0.00    +0.000 A 
ATOM     22  C   UNL     1      16.273   7.683  20.059  0.00  0.00    +0.000 A 
ATOM     23  C   UNL     1      15.470   8.762  19.662  0.00  0.00    +0.000 A 
ATOM     24  C   UNL     1      16.733  10.278  21.057  0.00  0.00    +0.000 A 
ATOM     25  C   UNL     1      17.313   7.924  20.966  0.00  0.00    +0.000 A 
ATOM     26  C   UNL     1      17.543   9.213  21.459  0.00  0.00    +0.000 A 
ATOM     27  C   UNL     1      15.984   6.315  19.512  0.00  0.00    +0.000 C 
ENDBRANCH  19  21
ENDBRANCH  18  19
ENDBRANCH  16  18
ENDBRANCH   4  17
TORSDOF 5
ENDMDL
MODEL 2
REMARK VINA RESULT:      -6.2      1.564      2.160
REMARK  Name = 157414489
REMARK  6 active torsions:
REMARK  status: ('A' for Active; 'I' for Inactive)
REMARK    1  A    between atoms: O_4  and  N_7
REMARK    2  A    between atoms: O_4  and  C_18
REMARK    3  A    between atoms: C_8  and  C_13
REMARK    4  A    between atoms: C_9  and  C_11
REMARK    5  A    between atoms: C_17  and  C_18
REMARK    6  A    between atoms: C_19  and  C_27
REMARK                            x       y       z     vdW  Elec       q    Type
REMARK                         _______ _______ _______ _____ _____    ______ ____
ROOT
ATOM      1  S   UNL     1      10.648   7.856  22.146  0.00  0.00    +0.000 S 
ATOM      2  N   UNL     1      11.392  10.219  21.456  0.00  0.00    +0.000 N 
ATOM      3  N   UNL     1      10.839  10.236  23.620  0.00  0.00    +0.000 NA
ATOM      4  C   UNL     1      11.564  11.527  21.849  0.00  0.00    +0.000 A 
ATOM      5  C   UNL     1      11.210  11.506  23.205  0.00  0.00    +0.000 A 
ATOM      6  C   UNL     1      10.931   9.525  22.535  0.00  0.00    +0.000 A 
ATOM      7  C   UNL     1      11.575   9.459  20.320  0.00  0.00    +0.000 A 
ATOM      8  C   UNL     1      11.199   8.181  20.498  0.00  0.00    +0.000 A 
ENDROOT
BRANCH   5  10
ATOM      9 CL   UNL     1      11.091  16.163  26.964  0.00  0.00    +0.000 Cl
ATOM     10  C   UNL     1      11.195  12.631  24.131  0.00  0.00    +0.000 A 
ATOM     11  C   UNL     1      10.195  13.610  24.019  0.00  0.00    +0.000 A 
ATOM     12  C   UNL     1      12.184  12.794  25.114  0.00  0.00    +0.000 A 
ATOM     13  C   UNL     1      10.158  14.701  24.889  0.00  0.00    +0.000 A 
ATOM     14  C   UNL     1      12.146  13.882  25.992  0.00  0.00    +0.000 A 
ATOM     15  C   UNL     1      11.131  14.829  25.882  0.00  0.00    +0.000 A 
ENDBRANCH   5  10
BRANCH   4  17
ATOM     16  N   UNL     1      13.295  13.021  20.934  0.00  0.00    +0.000 NA
ATOM     17  C   UNL     1      12.065  12.607  21.035  0.00  0.00    +0.000 C 
BRANCH  16  18
ATOM     18  O   UNL     1      14.181  12.168  21.599  0.00  0.00    +0.000 OA
BRANCH  18  19
ATOM     19  C   UNL     1      15.380  11.984  20.845  0.00  0.00    +0.000 C 
BRANCH  19  21
ATOM     20 CL   UNL     1      14.229   7.379  17.113  0.00  0.00    +0.000 Cl
ATOM     21  C   UNL     1      15.126  10.824  19.916  0.00  0.00    +0.000 A 
ATOM     22  C   UNL     1      14.421  10.041  17.704  0.00  0.00    +0.000 A 
ATOM     23  C   UNL     1      14.707  11.081  18.599  0.00  0.00    +0.000 A 
ATOM     24  C   UNL     1      15.274   9.498  20.334  0.00  0.00    +0.000 A 
ATOM     25  C   UNL     1      14.569   8.720  18.147  0.00  0.00    +0.000 A 
ATOM     26  C   UNL     1      14.996   8.451  19.452  0.00  0.00    +0.000 A 
ATOM     27  C   UNL     1      13.957  10.375  16.315  0.00  0.00    +0.000 C 
ENDBRANCH  19  21
ENDBRANCH  18  19
ENDBRANCH  16  18
ENDBRANCH   4  17
TORSDOF 5
ENDMDL
MODEL 3
REMARK VINA RESULT:      -6.1     29.191     31.551
REMARK  Name = 157414489
REMARK  6 active torsions:
REMARK  status: ('A' for Active; 'I' for Inactive)
REMARK    1  A    between atoms: O_4  and  N_7
REMARK    2  A    between atoms: O_4  and  C_18
REMARK    3  A    between atoms: C_8  and  C_13
REMARK    4  A    between atoms: C_9  and  C_11
REMARK    5  A    between atoms: C_17  and  C_18
REMARK    6  A    between atoms: C_19  and  C_27
REMARK                            x       y       z     vdW  Elec       q    Type
REMARK                         _______ _______ _______ _____ _____    ______ ____
ROOT
ATOM      1  S   UNL     1     -18.585  -0.886  23.212  0.00  0.00    +0.000 S 
ATOM      2  N   UNL     1     -18.622   1.339  24.500  0.00  0.00    +0.000 N 
ATOM      3  N   UNL     1     -17.249   1.538  22.749  0.00  0.00    +0.000 NA
ATOM      4  C   UNL     1     -18.119   2.617  24.596  0.00  0.00    +0.000 A 
ATOM      5  C   UNL     1     -17.264   2.711  23.489  0.00  0.00    +0.000 A 
ATOM      6  C   UNL     1     -18.042   0.752  23.415  0.00  0.00    +0.000 A 
ATOM      7  C   UNL     1     -19.529   0.543  25.168  0.00  0.00    +0.000 A 
ATOM      8  C   UNL     1     -19.612  -0.688  24.636  0.00  0.00    +0.000 A 
ENDROOT
BRANCH   5  10
ATOM      9 CL   UNL     1     -13.872   7.396  21.946  0.00  0.00    +0.000 Cl
ATOM     10  C   UNL     1     -16.450   3.854  23.097  0.00  0.00    +0.000 A 
ATOM     11  C   UNL     1     -15.248   4.115  23.774  0.00  0.00    +0.000 A 
ATOM     12  C   UNL     1     -16.853   4.739  22.085  0.00  0.00    +0.000 A 
ATOM     13  C   UNL     1     -14.450   5.205  23.424  0.00  0.00    +0.000 A 
ATOM     14  C   UNL     1     -16.052   5.828  21.726  0.00  0.00    +0.000 A 
ATOM     15  C   UNL     1     -14.851   6.055  22.391  0.00  0.00    +0.000 A 
ENDBRANCH   5  10
BRANCH   4  17
ATOM     16  N   UNL     1     -18.139   3.639  26.837  0.00  0.00    +0.000 NA
ATOM     17  C   UNL     1     -18.478   3.607  25.580  0.00  0.00    +0.000 C 
BRANCH  16  18
ATOM     18  O   UNL     1     -17.194   2.653  27.138  0.00  0.00    +0.000 OA
BRANCH  18  19
ATOM     19  C   UNL     1     -15.927   3.236  27.448  0.00  0.00    +0.000 C 
BRANCH  19  21
ATOM     20 CL   UNL     1     -14.781   1.574  33.138  0.00  0.00    +0.000 Cl
ATOM     21  C   UNL     1     -15.610   2.837  28.866  0.00  0.00    +0.000 A 
ATOM     22  C   UNL     1     -15.312   1.044  30.509  0.00  0.00    +0.000 A 
ATOM     23  C   UNL     1     -15.566   1.472  29.199  0.00  0.00    +0.000 A 
ATOM     24  C   UNL     1     -15.379   3.787  29.867  0.00  0.00    +0.000 A 
ATOM     25  C   UNL     1     -15.092   2.013  31.497  0.00  0.00    +0.000 A 
ATOM     26  C   UNL     1     -15.121   3.375  31.176  0.00  0.00    +0.000 A 
ATOM     27  C   UNL     1     -15.298  -0.427  30.810  0.00  0.00    +0.000 C 
ENDBRANCH  19  21
ENDBRANCH  18  19
ENDBRANCH  16  18
ENDBRANCH   4  17
TORSDOF 5
ENDMDL
MODEL 4
REMARK VINA RESULT:      -6.0     24.467     26.680
REMARK  Name = 157414489
REMARK  6 active torsions:
REMARK  status: ('A' for Active; 'I' for Inactive)
REMARK    1  A    between atoms: O_4  and  N_7
REMARK    2  A    between atoms: O_4  and  C_18
REMARK    3  A    between atoms: C_8  and  C_13
REMARK    4  A    between atoms: C_9  and  C_11
REMARK    5  A    between atoms: C_17  and  C_18
REMARK    6  A    between atoms: C_19  and  C_27
REMARK                            x       y       z     vdW  Elec       q    Type
REMARK                         _______ _______ _______ _____ _____    ______ ____
ROOT
ATOM      1  S   UNL     1     -11.037  14.409  18.242  0.00  0.00    +0.000 S 
ATOM      2  N   UNL     1     -10.425  12.037  17.460  0.00  0.00    +0.000 N 
ATOM      3  N   UNL     1     -11.679  11.891  19.303  0.00  0.00    +0.000 NA
ATOM      4  C   UNL     1     -10.511  10.687  17.716  0.00  0.00    +0.000 A 
ATOM      5  C   UNL     1     -11.299  10.629  18.874  0.00  0.00    +0.000 A 
ATOM      6  C   UNL     1     -11.102  12.685  18.449  0.00  0.00    +0.000 A 
ATOM      7  C   UNL     1      -9.879  12.864  16.500  0.00  0.00    +0.000 A 
ATOM      8  C   UNL     1     -10.082  14.163  16.775  0.00  0.00    +0.000 A 
ENDROOT
BRANCH   5  10
ATOM      9 CL   UNL     1     -13.011   5.775  21.931  0.00  0.00    +0.000 Cl
ATOM     10  C   UNL     1     -11.707   9.435  19.605  0.00  0.00    +0.000 A 
ATOM     11  C   UNL     1     -12.622   9.548  20.664  0.00  0.00    +0.000 A 
ATOM     12  C   UNL     1     -11.176   8.169  19.311  0.00  0.00    +0.000 A 
ATOM     13  C   UNL     1     -13.027   8.423  21.384  0.00  0.00    +0.000 A 
ATOM     14  C   UNL     1     -11.585   7.039  20.026  0.00  0.00    +0.000 A 
ATOM     15  C   UNL     1     -12.513   7.167  21.056  0.00  0.00    +0.000 A 
ENDBRANCH   5  10
BRANCH   4  17
ATOM     16  N   UNL     1     -10.554   8.964  15.956  0.00  0.00    +0.000 NA
ATOM     17  C   UNL     1      -9.962   9.626  16.910  0.00  0.00    +0.000 C 
BRANCH  16  18
ATOM     18  O   UNL     1     -11.799   9.519  15.645  0.00  0.00    +0.000 OA
BRANCH  18  19
ATOM     19  C   UNL     1     -12.825   8.525  15.679  0.00  0.00    +0.000 C 
BRANCH  19  21
ATOM     20 CL   UNL     1     -16.707  10.400  19.908  0.00  0.00    +0.000 Cl
ATOM     21  C   UNL     1     -13.820   8.975  16.719  0.00  0.00    +0.000 A 
ATOM     22  C   UNL     1     -14.953  10.827  17.855  0.00  0.00    +0.000 A 
ATOM     23  C   UNL     1     -14.066  10.350  16.879  0.00  0.00    +0.000 A 
ATOM     24  C   UNL     1     -14.489   8.065  17.544  0.00  0.00    +0.000 A 
ATOM     25  C   UNL     1     -15.606   9.898  18.675  0.00  0.00    +0.000 A 
ATOM     26  C   UNL     1     -15.378   8.526  18.518  0.00  0.00    +0.000 A 
ATOM     27  C   UNL     1     -15.161  12.308  17.994  0.00  0.00    +0.000 C 
ENDBRANCH  19  21
ENDBRANCH  18  19
ENDBRANCH  16  18
ENDBRANCH   4  17
TORSDOF 5
ENDMDL
MODEL 5
REMARK VINA RESULT:      -5.8     35.040     36.969
REMARK  Name = 157414489
REMARK  6 active torsions:
REMARK  status: ('A' for Active; 'I' for Inactive)
REMARK    1  A    between atoms: O_4  and  N_7
REMARK    2  A    between atoms: O_4  and  C_18
REMARK    3  A    between atoms: C_8  and  C_13
REMARK    4  A    between atoms: C_9  and  C_11
REMARK    5  A    between atoms: C_17  and  C_18
REMARK    6  A    between atoms: C_19  and  C_27
REMARK                            x       y       z     vdW  Elec       q    Type
REMARK                         _______ _______ _______ _____ _____    ______ ____
ROOT
ATOM      1  S   UNL     1       1.187 -19.126  -0.660  0.00  0.00    +0.000 S 
ATOM      2  N   UNL     1       1.674 -16.633  -0.263  0.00  0.00    +0.000 N 
ATOM      3  N   UNL     1       1.518 -17.000  -2.461  0.00  0.00    +0.000 NA
ATOM      4  C   UNL     1       1.922 -15.407  -0.839  0.00  0.00    +0.000 A 
ATOM      5  C   UNL     1       1.818 -15.669  -2.212  0.00  0.00    +0.000 A 
ATOM      6  C   UNL     1       1.481 -17.527  -1.273  0.00  0.00    +0.000 A 
ATOM      7  C   UNL     1       1.555 -17.163   1.005  0.00  0.00    +0.000 A 
ATOM      8  C   UNL     1       1.327 -18.487   0.982  0.00  0.00    +0.000 A 
ENDROOT
BRANCH   5  10
ATOM      9 CL   UNL     1       2.482 -11.756  -6.693  0.00  0.00    +0.000 Cl
ATOM     10  C   UNL     1       1.998 -14.724  -3.307  0.00  0.00    +0.000 A 
ATOM     11  C   UNL     1       1.079 -13.676  -3.477  0.00  0.00    +0.000 A 
ATOM     12  C   UNL     1       3.044 -14.854  -4.234  0.00  0.00    +0.000 A 
ATOM     13  C   UNL     1       1.223 -12.759  -4.520  0.00  0.00    +0.000 A 
ATOM     14  C   UNL     1       3.196 -13.933  -5.274  0.00  0.00    +0.000 A 
ATOM     15  C   UNL     1       2.290 -12.885  -5.412  0.00  0.00    +0.000 A 
ENDBRANCH   5  10
BRANCH   4  17
ATOM     16  N   UNL     1       3.270 -13.501  -0.052  0.00  0.00    +0.000 NA
ATOM     17  C   UNL     1       2.153 -14.166  -0.144  0.00  0.00    +0.000 C 
BRANCH  16  18
ATOM     18  O   UNL     1       4.258 -14.043  -0.880  0.00  0.00    +0.000 OA
BRANCH  18  19
ATOM     19  C   UNL     1       5.448 -14.322  -0.140  0.00  0.00    +0.000 C 
BRANCH  19  21
ATOM     20 CL   UNL     1       4.986 -19.931   2.047  0.00  0.00    +0.000 Cl
ATOM     21  C   UNL     1       5.305 -15.728   0.385  0.00  0.00    +0.000 A 
ATOM     22  C   UNL     1       4.953 -17.210   2.304  0.00  0.00    +0.000 A 
ATOM     23  C   UNL     1       5.058 -15.924   1.754  0.00  0.00    +0.000 A 
ATOM     24  C   UNL     1       5.433 -16.844  -0.449  0.00  0.00    +0.000 A 
ATOM     25  C   UNL     1       5.092 -18.313   1.452  0.00  0.00    +0.000 A 
ATOM     26  C   UNL     1       5.327 -18.131   0.085  0.00  0.00    +0.000 A 
ATOM     27  C   UNL     1       4.708 -17.359   3.778  0.00  0.00    +0.000 C 
ENDBRANCH  19  21
ENDBRANCH  18  19
ENDBRANCH  16  18
ENDBRANCH   4  17
TORSDOF 5
ENDMDL
MODEL 6
REMARK VINA RESULT:      -5.8     28.005     29.793
REMARK  Name = 157414489
REMARK  6 active torsions:
REMARK  status: ('A' for Active; 'I' for Inactive)
REMARK    1  A    between atoms: O_4  and  N_7
REMARK    2  A    between atoms: O_4  and  C_18
REMARK    3  A    between atoms: C_8  and  C_13
REMARK    4  A    between atoms: C_9  and  C_11
REMARK    5  A    between atoms: C_17  and  C_18
REMARK    6  A    between atoms: C_19  and  C_27
REMARK                            x       y       z     vdW  Elec       q    Type
REMARK                         _______ _______ _______ _____ _____    ______ ____
ROOT
ATOM      1  S   UNL     1      -2.550 -15.807  13.908  0.00  0.00    +0.000 S 
ATOM      2  N   UNL     1      -2.178 -13.275  14.154  0.00  0.00    +0.000 N 
ATOM      3  N   UNL     1      -4.196 -13.792  14.958  0.00  0.00    +0.000 NA
ATOM      4  C   UNL     1      -2.716 -12.069  14.544  0.00  0.00    +0.000 A 
ATOM      5  C   UNL     1      -3.977 -12.426  15.041  0.00  0.00    +0.000 A 
ATOM      6  C   UNL     1      -3.113 -14.237  14.392  0.00  0.00    +0.000 A 
ATOM      7  C   UNL     1      -0.991 -13.745  13.630  0.00  0.00    +0.000 A 
ATOM      8  C   UNL     1      -1.024 -15.069  13.406  0.00  0.00    +0.000 A 
ENDROOT
BRANCH   5  10
ATOM      9 CL   UNL     1      -8.165  -8.734  17.203  0.00  0.00    +0.000 Cl
ATOM     10  C   UNL     1      -4.995 -11.536  15.586  0.00  0.00    +0.000 A 
ATOM     11  C   UNL     1      -5.729 -10.708  14.720  0.00  0.00    +0.000 A 
ATOM     12  C   UNL     1      -5.239 -11.445  16.965  0.00  0.00    +0.000 A 
ATOM     13  C   UNL     1      -6.706  -9.843  15.214  0.00  0.00    +0.000 A 
ATOM     14  C   UNL     1      -6.222 -10.584  17.462  0.00  0.00    +0.000 A 
ATOM     15  C   UNL     1      -6.957  -9.790  16.586  0.00  0.00    +0.000 A 
ENDBRANCH   5  10
BRANCH   4  17
ATOM     16  N   UNL     1      -1.626 -10.151  13.448  0.00  0.00    +0.000 NA
ATOM     17  C   UNL     1      -2.063 -10.785  14.498  0.00  0.00    +0.000 C 
BRANCH  16  18
ATOM     18  O   UNL     1      -2.018 -10.788  12.266  0.00  0.00    +0.000 OA
BRANCH  18  19
ATOM     19  C   UNL     1      -2.171  -9.846  11.203  0.00  0.00    +0.000 C 
BRANCH  19  21
ATOM     20 CL   UNL     1      -8.057  -9.744   9.862  0.00  0.00    +0.000 Cl
ATOM     21  C   UNL     1      -3.644  -9.792  10.889  0.00  0.00    +0.000 A 
ATOM     22  C   UNL     1      -5.826 -10.905  10.933  0.00  0.00    +0.000 A 
ATOM     23  C   UNL     1      -4.457 -10.885  11.234  0.00  0.00    +0.000 A 
ATOM     24  C   UNL     1      -4.221  -8.694  10.243  0.00  0.00    +0.000 A 
ATOM     25  C   UNL     1      -6.382  -9.798  10.278  0.00  0.00    +0.000 A 
ATOM     26  C   UNL     1      -5.585  -8.699   9.940  0.00  0.00    +0.000 A 
ATOM     27  C   UNL     1      -6.642 -12.110  11.307  0.00  0.00    +0.000 C 
ENDBRANCH  19  21
ENDBRANCH  18  19
ENDBRANCH  16  18
ENDBRANCH   4  17
TORSDOF 5
ENDMDL
MODEL 7
REMARK VINA RESULT:      -5.7     30.983     34.386
REMARK  Name = 157414489
REMARK  6 active torsions:
REMARK  status: ('A' for Active; 'I' for Inactive)
REMARK    1  A    between atoms: O_4  and  N_7
REMARK    2  A    between atoms: O_4  and  C_18
REMARK    3  A    between atoms: C_8  and  C_13
REMARK    4  A    between atoms: C_9  and  C_11
REMARK    5  A    between atoms: C_17  and  C_18
REMARK    6  A    between atoms: C_19  and  C_27
REMARK                            x       y       z     vdW  Elec       q    Type
REMARK                         _______ _______ _______ _____ _____    ______ ____
ROOT
ATOM      1  S   UNL     1      14.405 -19.848  -1.848  0.00  0.00    +0.000 S 
ATOM      2  N   UNL     1      16.279 -18.931  -0.345  0.00  0.00    +0.000 N 
ATOM      3  N   UNL     1      15.454 -17.260  -1.577  0.00  0.00    +0.000 NA
ATOM      4  C   UNL     1      17.034 -17.834   0.007  0.00  0.00    +0.000 A 
ATOM      5  C   UNL     1      16.494 -16.807  -0.780  0.00  0.00    +0.000 A 
ATOM      6  C   UNL     1      15.397 -18.530  -1.303  0.00  0.00    +0.000 A 
ATOM      7  C   UNL     1      16.173 -20.259   0.014  0.00  0.00    +0.000 A 
ATOM      8  C   UNL     1      15.245 -20.907  -0.708  0.00  0.00    +0.000 A 
ENDROOT
BRANCH   5  10
ATOM      9 CL   UNL     1      18.315 -11.108  -0.992  0.00  0.00    +0.000 Cl
ATOM     10  C   UNL     1      16.920 -15.413  -0.825  0.00  0.00    +0.000 A 
ATOM     11  C   UNL     1      18.127 -15.076  -1.457  0.00  0.00    +0.000 A 
ATOM     12  C   UNL     1      16.178 -14.392  -0.211  0.00  0.00    +0.000 A 
ATOM     13  C   UNL     1      18.562 -13.751  -1.511  0.00  0.00    +0.000 A 
ATOM     14  C   UNL     1      16.607 -13.063  -0.270  0.00  0.00    +0.000 A 
ATOM     15  C   UNL     1      17.793 -12.744  -0.924  0.00  0.00    +0.000 A 
ENDBRANCH   5  10
BRANCH   4  17
ATOM     16  N   UNL     1      18.017 -17.238   2.184  0.00  0.00    +0.000 NA
ATOM     17  C   UNL     1      18.070 -17.793   1.008  0.00  0.00    +0.000 C 
BRANCH  16  18
ATOM     18  O   UNL     1      16.725 -16.796   2.485  0.00  0.00    +0.000 OA
BRANCH  18  19
ATOM     19  C   UNL     1      16.677 -16.200   3.782  0.00  0.00    +0.000 C 
BRANCH  19  21
ATOM     20 CL   UNL     1      16.278 -10.223   3.020  0.00  0.00    +0.000 Cl
ATOM     21  C   UNL     1      16.555 -14.713   3.565  0.00  0.00    +0.000 A 
ATOM     22  C   UNL     1      17.661 -12.580   3.082  0.00  0.00    +0.000 A 
ATOM     23  C   UNL     1      17.709 -13.971   3.258  0.00  0.00    +0.000 A 
ATOM     24  C   UNL     1      15.331 -14.047   3.681  0.00  0.00    +0.000 A 
ATOM     25  C   UNL     1      16.425 -11.934   3.211  0.00  0.00    +0.000 A 
ATOM     26  C   UNL     1      15.268 -12.663   3.505  0.00  0.00    +0.000 A 
ATOM     27  C   UNL     1      18.929 -11.836   2.776  0.00  0.00    +0.000 C 
ENDBRANCH  19  21
ENDBRANCH  18  19
ENDBRANCH  16  18
ENDBRANCH   4  17
TORSDOF 5
ENDMDL
MODEL 8
REMARK VINA RESULT:      -5.6     20.100     22.157
REMARK  Name = 157414489
REMARK  6 active torsions:
REMARK  status: ('A' for Active; 'I' for Inactive)
REMARK    1  A    between atoms: O_4  and  N_7
REMARK    2  A    between atoms: O_4  and  C_18
REMARK    3  A    between atoms: C_8  and  C_13
REMARK    4  A    between atoms: C_9  and  C_11
REMARK    5  A    between atoms: C_17  and  C_18
REMARK    6  A    between atoms: C_19  and  C_27
REMARK                            x       y       z     vdW  Elec       q    Type
REMARK                         _______ _______ _______ _____ _____    ______ ____
ROOT
ATOM      1  S   UNL     1      -4.378  13.379  31.829  0.00  0.00    +0.000 S 
ATOM      2  N   UNL     1      -2.957  13.355  33.972  0.00  0.00    +0.000 N 
ATOM      3  N   UNL     1      -4.654  11.922  34.211  0.00  0.00    +0.000 NA
ATOM      4  C   UNL     1      -2.812  12.854  35.246  0.00  0.00    +0.000 A 
ATOM      5  C   UNL     1      -3.887  11.963  35.366  0.00  0.00    +0.000 A 
ATOM      6  C   UNL     1      -4.077  12.793  33.436  0.00  0.00    +0.000 A 
ATOM      7  C   UNL     1      -2.289  14.219  33.129  0.00  0.00    +0.000 A 
ATOM      8  C   UNL     1      -2.922  14.374  31.955  0.00  0.00    +0.000 A 
ENDROOT
BRANCH   5  10
ATOM      9 CL   UNL     1      -5.317   8.556  40.076  0.00  0.00    +0.000 Cl
ATOM     10  C   UNL     1      -4.234  11.149  36.524  0.00  0.00    +0.000 A 
ATOM     11  C   UNL     1      -4.267   9.751  36.406  0.00  0.00    +0.000 A 
ATOM     12  C   UNL     1      -4.584  11.725  37.756  0.00  0.00    +0.000 A 
ATOM     13  C   UNL     1      -4.600   8.947  37.497  0.00  0.00    +0.000 A 
ATOM     14  C   UNL     1      -4.911  10.923  38.853  0.00  0.00    +0.000 A 
ATOM     15  C   UNL     1      -4.913   9.537  38.724  0.00  0.00    +0.000 A 
ENDBRANCH   5  10
BRANCH   4  17
ATOM     16  N   UNL     1      -0.855  12.333  36.648  0.00  0.00    +0.000 NA
ATOM     17  C   UNL     1      -1.745  13.154  36.167  0.00  0.00    +0.000 C 
BRANCH  16  18
ATOM     18  O   UNL     1      -0.922  11.083  36.025  0.00  0.00    +0.000 OA
BRANCH  18  19
ATOM     19  C   UNL     1       0.098  10.211  36.517  0.00  0.00    +0.000 C 
BRANCH  19  21
ATOM     20 CL   UNL     1      -2.513   6.366  40.371  0.00  0.00    +0.000 Cl
ATOM     21  C   UNL     1      -0.581   9.248  37.457  0.00  0.00    +0.000 A 
ATOM     22  C   UNL     1      -1.536   8.822  39.672  0.00  0.00    +0.000 A 
ATOM     23  C   UNL     1      -0.937   9.685  38.744  0.00  0.00    +0.000 A 
ATOM     24  C   UNL     1      -0.848   7.924  37.092  0.00  0.00    +0.000 A 
ATOM     25  C   UNL     1      -1.786   7.498  39.288  0.00  0.00    +0.000 A 
ATOM     26  C   UNL     1      -1.448   7.054  38.005  0.00  0.00    +0.000 A 
ATOM     27  C   UNL     1      -1.875   9.339  41.041  0.00  0.00    +0.000 C 
ENDBRANCH  19  21
ENDBRANCH  18  19
ENDBRANCH  16  18
ENDBRANCH   4  17
TORSDOF 5
ENDMDL
MODEL 9
REMARK VINA RESULT:      -5.5     29.041     31.447
REMARK  Name = 157414489
REMARK  6 active torsions:
REMARK  status: ('A' for Active; 'I' for Inactive)
REMARK    1  A    between atoms: O_4  and  N_7
REMARK    2  A    between atoms: O_4  and  C_18
REMARK    3  A    between atoms: C_8  and  C_13
REMARK    4  A    between atoms: C_9  and  C_11
REMARK    5  A    between atoms: C_17  and  C_18
REMARK    6  A    between atoms: C_19  and  C_27
REMARK                            x       y       z     vdW  Elec       q    Type
REMARK                         _______ _______ _______ _____ _____    ______ ____
ROOT
ATOM      1  S   UNL     1     -11.212 -15.390  16.970  0.00  0.00    +0.000 S 
ATOM      2  N   UNL     1     -10.607 -13.434  18.526  0.00  0.00    +0.000 N 
ATOM      3  N   UNL     1     -11.174 -12.619  16.525  0.00  0.00    +0.000 NA
ATOM      4  C   UNL     1     -10.443 -12.072  18.646  0.00  0.00    +0.000 A 
ATOM      5  C   UNL     1     -10.805 -11.592  17.379  0.00  0.00    +0.000 A 
ATOM      6  C   UNL     1     -11.002 -13.688  17.246  0.00  0.00    +0.000 A 
ATOM      7  C   UNL     1     -10.500 -14.553  19.326  0.00  0.00    +0.000 A 
ATOM      8  C   UNL     1     -10.757 -15.686  18.652  0.00  0.00    +0.000 A 
ENDROOT
BRANCH   5  10
ATOM      9 CL   UNL     1     -10.910  -5.892  15.553  0.00  0.00    +0.000 Cl
ATOM     10  C   UNL     1     -10.811 -10.205  16.930  0.00  0.00    +0.000 A 
ATOM     11  C   UNL     1     -11.942  -9.405  17.162  0.00  0.00    +0.000 A 
ATOM     12  C   UNL     1      -9.731  -9.650  16.227  0.00  0.00    +0.000 A 
ATOM     13  C   UNL     1     -11.977  -8.076  16.739  0.00  0.00    +0.000 A 
ATOM     14  C   UNL     1      -9.760  -8.316  15.809  0.00  0.00    +0.000 A 
ATOM     15  C   UNL     1     -10.879  -7.531  16.070  0.00  0.00    +0.000 A 
ENDBRANCH   5  10
BRANCH   4  17
ATOM     16  N   UNL     1      -8.884 -10.892  20.143  0.00  0.00    +0.000 NA
ATOM     17  C   UNL     1     -10.061 -11.358  19.837  0.00  0.00    +0.000 C 
BRANCH  16  18
ATOM     18  O   UNL     1      -7.994 -11.005  19.070  0.00  0.00    +0.000 OA
BRANCH  18  19
ATOM     19  C   UNL     1      -6.654 -11.175  19.533  0.00  0.00    +0.000 C 
BRANCH  19  21
ATOM     20 CL   UNL     1      -3.166 -10.638  14.633  0.00  0.00    +0.000 Cl
ATOM     21  C   UNL     1      -5.763 -11.018  18.327  0.00  0.00    +0.000 A 
ATOM     22  C   UNL     1      -5.544 -10.412  15.963  0.00  0.00    +0.000 A 
ATOM     23  C   UNL     1      -6.317 -10.543  17.126  0.00  0.00    +0.000 A 
ATOM     24  C   UNL     1      -4.405 -11.352  18.363  0.00  0.00    +0.000 A 
ATOM     25  C   UNL     1      -4.188 -10.760  16.020  0.00  0.00    +0.000 A 
ATOM     26  C   UNL     1      -3.622 -11.223  17.214  0.00  0.00    +0.000 A 
ATOM     27  C   UNL     1      -6.194  -9.919  14.703  0.00  0.00    +0.000 C 
ENDBRANCH  19  21
ENDBRANCH  18  19
ENDBRANCH  16  18
ENDBRANCH   4  17
TORSDOF 5
ENDMDL
MODEL 10
REMARK VINA RESULT:      -5.5     30.427     32.182
REMARK  Name = 157414489
REMARK  6 active torsions:
REMARK  status: ('A' for Active; 'I' for Inactive)
REMARK    1  A    between atoms: O_4  and  N_7
REMARK    2  A    between atoms: O_4  and  C_18
REMARK    3  A    between atoms: C_8  and  C_13
REMARK    4  A    between atoms: C_9  and  C_11
REMARK    5  A    between atoms: C_17  and  C_18
REMARK    6  A    between atoms: C_19  and  C_27
REMARK                            x       y       z     vdW  Elec       q    Type
REMARK                         _______ _______ _______ _____ _____    ______ ____
ROOT
ATOM      1  S   UNL     1     -14.902   8.552  32.945  0.00  0.00    +0.000 S 
ATOM      2  N   UNL     1     -16.531   6.579  32.690  0.00  0.00    +0.000 N 
ATOM      3  N   UNL     1     -14.496   5.927  32.041  0.00  0.00    +0.000 NA
ATOM      4  C   UNL     1     -16.698   5.275  32.281  0.00  0.00    +0.000 A 
ATOM      5  C   UNL     1     -15.409   4.896  31.881  0.00  0.00    +0.000 A 
ATOM      6  C   UNL     1     -15.224   6.907  32.488  0.00  0.00    +0.000 A 
ATOM      7  C   UNL     1     -17.297   7.585  33.243  0.00  0.00    +0.000 A 
ATOM      8  C   UNL     1     -16.597   8.718  33.416  0.00  0.00    +0.000 A 
ENDROOT
BRANCH   5  10
ATOM      9 CL   UNL     1     -13.756  -0.389  29.607  0.00  0.00    +0.000 Cl
ATOM     10  C   UNL     1     -14.996   3.605  31.344  0.00  0.00    +0.000 A 
ATOM     11  C   UNL     1     -15.276   3.289  30.005  0.00  0.00    +0.000 A 
ATOM     12  C   UNL     1     -14.361   2.640  32.141  0.00  0.00    +0.000 A 
ATOM     13  C   UNL     1     -14.896   2.059  29.464  0.00  0.00    +0.000 A 
ATOM     14  C   UNL     1     -13.972   1.410  31.601  0.00  0.00    +0.000 A 
ATOM     15  C   UNL     1     -14.235   1.125  30.264  0.00  0.00    +0.000 A 
ENDBRANCH   5  10
BRANCH   4  17
ATOM     16  N   UNL     1     -18.892   4.491  31.481  0.00  0.00    +0.000 NA
ATOM     17  C   UNL     1     -17.917   4.507  32.344  0.00  0.00    +0.000 C 
BRANCH  16  18
ATOM     18  O   UNL     1     -18.564   5.205  30.324  0.00  0.00    +0.000 OA
BRANCH  18  19
ATOM     19  C   UNL     1     -19.467   4.900  29.260  0.00  0.00    +0.000 C 
BRANCH  19  21
ATOM     20 CL   UNL     1     -16.594   0.852  25.823  0.00  0.00    +0.000 Cl
ATOM     21  C   UNL     1     -18.761   3.906  28.373  0.00  0.00    +0.000 A 
ATOM     22  C   UNL     1     -18.484   1.579  27.659  0.00  0.00    +0.000 A 
ATOM     23  C   UNL     1     -19.132   2.552  28.433  0.00  0.00    +0.000 A 
ATOM     24  C   UNL     1     -17.731   4.291  27.508  0.00  0.00    +0.000 A 
ATOM     25  C   UNL     1     -17.450   1.985  26.805  0.00  0.00    +0.000 A 
ATOM     26  C   UNL     1     -17.080   3.332  26.728  0.00  0.00    +0.000 A 
ATOM     27  C   UNL     1     -18.909   0.144  27.779  0.00  0.00    +0.000 C 
ENDBRANCH  19  21
ENDBRANCH  18  19
ENDBRANCH  16  18
ENDBRANCH   4  17
TORSDOF 5
ENDMDL
