REMARK  Name = 157888353
REMARK  6 active torsions:
REMARK  status: ('A' for Active; 'I' for Inactive)
REMARK    1  A    between atoms: O_4  and  N_7
REMARK    2  A    between atoms: O_4  and  C_22
REMARK    3  A    between atoms: C_8  and  C_10
REMARK    4  A    between atoms: C_9  and  C_15
REMARK    5  A    between atoms: C_16  and  C_20
REMARK    6  A    between atoms: C_21  and  C_22
REMARK                            x       y       z     vdW  Elec       q    Type
REMARK                         _______ _______ _______ _____ _____    ______ ____
ROOT
ATOM      1  S   UNL     1      -8.652  -2.450  -4.283  0.00  0.00    +0.000 S 
ATOM      2  N   UNL     1      -6.579  -0.957  -3.989  0.00  0.00    +0.000 N 
ATOM      3  N   UNL     1      -8.220  -0.181  -2.689  0.00  0.00    +0.000 NA
ATOM      4  C   UNL     1      -7.086   0.609  -2.563  0.00  0.00    +0.000 A 
ATOM      5  C   UNL     1      -6.038   0.145  -3.368  0.00  0.00    +0.000 A 
ATOM      6  C   UNL     1      -7.868  -1.074  -3.566  0.00  0.00    +0.000 A 
ATOM      7  C   UNL     1      -6.162  -1.952  -4.852  0.00  0.00    +0.000 A 
ATOM      8  C   UNL     1      -7.146  -2.821  -5.132  0.00  0.00    +0.000 A 
ENDROOT
BRANCH   4   9
ATOM      9  C   UNL     1      -7.056   1.753  -1.660  0.00  0.00    +0.000 A 
ATOM     10  C   UNL     1      -7.825   1.726  -0.488  0.00  0.00    +0.000 A 
ATOM     11  C   UNL     1      -6.296   2.897  -1.933  0.00  0.00    +0.000 A 
ATOM     12  C   UNL     1      -7.002   3.917   0.156  0.00  0.00    +0.000 A 
ATOM     13  C   UNL     1      -7.797   2.796   0.413  0.00  0.00    +0.000 A 
ATOM     14  C   UNL     1      -6.258   3.962  -1.027  0.00  0.00    +0.000 A 
ATOM     15  C   UNL     1      -6.943   5.067   1.117  0.00  0.00    +0.000 C 
ENDBRANCH   4   9
BRANCH   5  17
ATOM     16  N   UNL     1      -3.958   0.690  -4.557  0.00  0.00    +0.000 NA
ATOM     17  C   UNL     1      -4.680   0.604  -3.477  0.00  0.00    +0.000 C 
BRANCH  16  18
ATOM     18  O   UNL     1      -4.713   0.420  -5.705  0.00  0.00    +0.000 OA
BRANCH  18  19
ATOM     19  C   UNL     1      -3.855   0.298  -6.840  0.00  0.00    +0.000 C 
BRANCH  19  22
ATOM     20 CL   UNL     1      -5.505  -1.769 -11.338  0.00  0.00    +0.000 Cl
ATOM     21 CL   UNL     1      -7.350   0.882 -11.737  0.00  0.00    +0.000 Cl
ATOM     22  C   UNL     1      -4.723   0.400  -8.071  0.00  0.00    +0.000 A 
ATOM     23  C   UNL     1      -4.732  -0.606  -9.045  0.00  0.00    +0.000 A 
ATOM     24  C   UNL     1      -5.538   1.530  -8.248  0.00  0.00    +0.000 A 
ATOM     25  C   UNL     1      -5.541  -0.483 -10.182  0.00  0.00    +0.000 A 
ATOM     26  C   UNL     1      -6.344   1.654  -9.379  0.00  0.00    +0.000 A 
ATOM     27  C   UNL     1      -6.344   0.653 -10.352  0.00  0.00    +0.000 A 
ENDBRANCH  19  22
ENDBRANCH  18  19
ENDBRANCH  16  18
ENDBRANCH   5  17
TORSDOF 5
