MODEL 1
REMARK VINA RESULT:      -5.9      0.000      0.000
REMARK  Name = 157812418
REMARK  6 active torsions:
REMARK  status: ('A' for Active; 'I' for Inactive)
REMARK    1  A    between atoms: O_4  and  N_7
REMARK    2  A    between atoms: O_4  and  C_22
REMARK    3  A    between atoms: N_8  and  C_20
REMARK    4  A    between atoms: C_9  and  C_14
REMARK    5  A    between atoms: C_10  and  C_12
REMARK    6  A    between atoms: C_21  and  C_22
REMARK                            x       y       z     vdW  Elec       q    Type
REMARK                         _______ _______ _______ _____ _____    ______ ____
ROOT
ATOM      1  S   UNL     1      -0.629 -14.256   1.922  0.00  0.00    +0.000 S 
ATOM      2  N   UNL     1       0.975 -15.131   0.118  0.00  0.00    +0.000 N 
ATOM      3  N   UNL     1      -0.306 -13.532  -0.771  0.00  0.00    +0.000 NA
ATOM      4  C   UNL     1       1.383 -15.048  -1.195  0.00  0.00    +0.000 A 
ATOM      5  C   UNL     1       0.567 -14.038  -1.723  0.00  0.00    +0.000 A 
ATOM      6  C   UNL     1      -0.038 -14.238   0.289  0.00  0.00    +0.000 A 
ATOM      7  C   UNL     1       1.340 -15.819   1.257  0.00  0.00    +0.000 A 
ATOM      8  C   UNL     1       0.575 -15.493   2.310  0.00  0.00    +0.000 A 
ENDROOT
BRANCH   5   9
ATOM      9  C   UNL     1       0.602 -13.507  -3.081  0.00  0.00    +0.000 A 
ATOM     10  C   UNL     1       1.529 -12.499  -3.400  0.00  0.00    +0.000 A 
ATOM     11  C   UNL     1      -0.265 -13.968  -4.084  0.00  0.00    +0.000 A 
ATOM     12  C   UNL     1       1.630 -12.005  -4.705  0.00  0.00    +0.000 A 
ATOM     13  C   UNL     1      -0.161 -13.488  -5.393  0.00  0.00    +0.000 A 
ATOM     14  C   UNL     1       0.794 -12.519  -5.691  0.00  0.00    +0.000 A 
BRANCH  14  15
ATOM     15  N   UNL     1       0.915 -12.066  -7.000  0.00  0.00    +0.000 NA
ATOM     16  C   UNL     1       1.005 -11.679  -8.101  0.00  0.00    +0.000 C 
ENDBRANCH  14  15
ENDBRANCH   5   9
BRANCH   4  18
ATOM     17  N   UNL     1       3.736 -15.511  -1.713  0.00  0.00    +0.000 NA
ATOM     18  C   UNL     1       2.465 -15.779  -1.793  0.00  0.00    +0.000 C 
BRANCH  17  19
ATOM     19  O   UNL     1       3.990 -14.471  -0.810  0.00  0.00    +0.000 OA
BRANCH  19  20
ATOM     20  C   UNL     1       5.290 -14.622  -0.239  0.00  0.00    +0.000 C 
BRANCH  20  23
ATOM     21 CL   UNL     1       6.239 -19.678   0.627  0.00  0.00    +0.000 Cl
ATOM     22 CL   UNL     1       4.886 -19.305   3.562  0.00  0.00    +0.000 Cl
ATOM     23  C   UNL     1       5.239 -15.806   0.694  0.00  0.00    +0.000 A 
ATOM     24  C   UNL     1       5.720 -17.065   0.307  0.00  0.00    +0.000 A 
ATOM     25  C   UNL     1       4.678 -15.658   1.970  0.00  0.00    +0.000 A 
ATOM     26  C   UNL     1       5.629 -18.158   1.179  0.00  0.00    +0.000 A 
ATOM     27  C   UNL     1       4.588 -16.743   2.841  0.00  0.00    +0.000 A 
ATOM     28  C   UNL     1       5.056 -17.998   2.446  0.00  0.00    +0.000 A 
ENDBRANCH  20  23
ENDBRANCH  19  20
ENDBRANCH  17  19
ENDBRANCH   4  18
TORSDOF 6
ENDMDL
MODEL 2
REMARK VINA RESULT:      -5.7     32.956     34.841
REMARK  Name = 157812418
REMARK  6 active torsions:
REMARK  status: ('A' for Active; 'I' for Inactive)
REMARK    1  A    between atoms: O_4  and  N_7
REMARK    2  A    between atoms: O_4  and  C_22
REMARK    3  A    between atoms: N_8  and  C_20
REMARK    4  A    between atoms: C_9  and  C_14
REMARK    5  A    between atoms: C_10  and  C_12
REMARK    6  A    between atoms: C_21  and  C_22
REMARK                            x       y       z     vdW  Elec       q    Type
REMARK                         _______ _______ _______ _____ _____    ______ ____
ROOT
ATOM      1  S   UNL     1     -14.289  12.156  19.057  0.00  0.00    +0.000 S 
ATOM      2  N   UNL     1     -13.114  11.090  17.037  0.00  0.00    +0.000 N 
ATOM      3  N   UNL     1     -11.943  12.875  17.692  0.00  0.00    +0.000 NA
ATOM      4  C   UNL     1     -12.059  11.157  16.155  0.00  0.00    +0.000 A 
ATOM      5  C   UNL     1     -11.343  12.279  16.593  0.00  0.00    +0.000 A 
ATOM      6  C   UNL     1     -13.002  12.144  17.891  0.00  0.00    +0.000 A 
ATOM      7  C   UNL     1     -14.176  10.247  17.293  0.00  0.00    +0.000 A 
ATOM      8  C   UNL     1     -14.923  10.675  18.323  0.00  0.00    +0.000 A 
ENDROOT
BRANCH   5   9
ATOM      9  C   UNL     1     -10.097  12.793  16.036  0.00  0.00    +0.000 A 
ATOM     10  C   UNL     1     -10.117  13.434  14.785  0.00  0.00    +0.000 A 
ATOM     11  C   UNL     1      -8.871  12.665  16.708  0.00  0.00    +0.000 A 
ATOM     12  C   UNL     1      -8.952  13.989  14.244  0.00  0.00    +0.000 A 
ATOM     13  C   UNL     1      -7.705  13.228  16.180  0.00  0.00    +0.000 A 
ATOM     14  C   UNL     1      -7.762  13.893  14.958  0.00  0.00    +0.000 A 
BRANCH  14  15
ATOM     15  N   UNL     1      -6.607  14.479  14.450  0.00  0.00    +0.000 NA
ATOM     16  C   UNL     1      -5.640  14.968  14.010  0.00  0.00    +0.000 C 
ENDBRANCH  14  15
ENDBRANCH   5   9
BRANCH   4  18
ATOM     17  N   UNL     1     -10.804   9.326  15.107  0.00  0.00    +0.000 NA
ATOM     18  C   UNL     1     -11.761  10.209  15.117  0.00  0.00    +0.000 C 
BRANCH  17  19
ATOM     19  O   UNL     1     -10.138   9.271  16.339  0.00  0.00    +0.000 OA
BRANCH  19  20
ATOM     20  C   UNL     1     -10.436   8.043  17.003  0.00  0.00    +0.000 C 
BRANCH  20  23
ATOM     21 CL   UNL     1     -14.055   7.012  20.617  0.00  0.00    +0.000 Cl
ATOM     22 CL   UNL     1     -13.012   9.635  22.235  0.00  0.00    +0.000 Cl
ATOM     23  C   UNL     1     -11.081   8.387  18.322  0.00  0.00    +0.000 A 
ATOM     24  C   UNL     1     -12.143   7.630  18.839  0.00  0.00    +0.000 A 
ATOM     25  C   UNL     1     -10.630   9.503  19.042  0.00  0.00    +0.000 A 
ATOM     26  C   UNL     1     -12.749   7.992  20.049  0.00  0.00    +0.000 A 
ATOM     27  C   UNL     1     -11.230   9.863  20.248  0.00  0.00    +0.000 A 
ATOM     28  C   UNL     1     -12.296   9.115  20.752  0.00  0.00    +0.000 A 
ENDBRANCH  20  23
ENDBRANCH  19  20
ENDBRANCH  17  19
ENDBRANCH   4  18
TORSDOF 6
ENDMDL
MODEL 3
REMARK VINA RESULT:      -5.7     33.232     35.009
REMARK  Name = 157812418
REMARK  6 active torsions:
REMARK  status: ('A' for Active; 'I' for Inactive)
REMARK    1  A    between atoms: O_4  and  N_7
REMARK    2  A    between atoms: O_4  and  C_22
REMARK    3  A    between atoms: N_8  and  C_20
REMARK    4  A    between atoms: C_9  and  C_14
REMARK    5  A    between atoms: C_10  and  C_12
REMARK    6  A    between atoms: C_21  and  C_22
REMARK                            x       y       z     vdW  Elec       q    Type
REMARK                         _______ _______ _______ _____ _____    ______ ____
ROOT
ATOM      1  S   UNL     1     -17.992   5.186  17.647  0.00  0.00    +0.000 S 
ATOM      2  N   UNL     1     -16.535   6.250  19.476  0.00  0.00    +0.000 N 
ATOM      3  N   UNL     1     -16.382   7.486  17.622  0.00  0.00    +0.000 NA
ATOM      4  C   UNL     1     -15.669   7.268  19.806  0.00  0.00    +0.000 A 
ATOM      5  C   UNL     1     -15.596   8.025  18.629  0.00  0.00    +0.000 A 
ATOM      6  C   UNL     1     -16.890   6.421  18.172  0.00  0.00    +0.000 A 
ATOM      7  C   UNL     1     -17.141   5.182  20.105  0.00  0.00    +0.000 A 
ATOM      8  C   UNL     1     -17.935   4.490  19.273  0.00  0.00    +0.000 A 
ENDROOT
BRANCH   5   9
ATOM      9  C   UNL     1     -14.842   9.257  18.428  0.00  0.00    +0.000 A 
ATOM     10  C   UNL     1     -14.295   9.527  17.161  0.00  0.00    +0.000 A 
ATOM     11  C   UNL     1     -14.638  10.184  19.462  0.00  0.00    +0.000 A 
ATOM     12  C   UNL     1     -13.613  10.724  16.914  0.00  0.00    +0.000 A 
ATOM     13  C   UNL     1     -13.969  11.388  19.220  0.00  0.00    +0.000 A 
ATOM     14  C   UNL     1     -13.473  11.649  17.945  0.00  0.00    +0.000 A 
BRANCH  14  15
ATOM     15  N   UNL     1     -12.835  12.860  17.700  0.00  0.00    +0.000 NA
ATOM     16  C   UNL     1     -12.301  13.883  17.506  0.00  0.00    +0.000 C 
ENDBRANCH  14  15
ENDBRANCH   5   9
BRANCH   4  18
ATOM     17  N   UNL     1     -13.894   7.174  21.499  0.00  0.00    +0.000 NA
ATOM     18  C   UNL     1     -15.090   7.500  21.101  0.00  0.00    +0.000 C 
BRANCH  17  19
ATOM     19  O   UNL     1     -13.114   6.683  20.445  0.00  0.00    +0.000 OA
BRANCH  19  20
ATOM     20  C   UNL     1     -11.730   6.923  20.704  0.00  0.00    +0.000 C 
BRANCH  20  23
ATOM     21 CL   UNL     1     -10.516   8.064  15.761  0.00  0.00    +0.000 Cl
ATOM     22 CL   UNL     1      -9.652  11.028  16.784  0.00  0.00    +0.000 Cl
ATOM     23  C   UNL     1     -11.249   7.930  19.691  0.00  0.00    +0.000 A 
ATOM     24  C   UNL     1     -11.127   7.602  18.332  0.00  0.00    +0.000 A 
ATOM     25  C   UNL     1     -10.892   9.219  20.112  0.00  0.00    +0.000 A 
ATOM     26  C   UNL     1     -10.644   8.545  17.416  0.00  0.00    +0.000 A 
ATOM     27  C   UNL     1     -10.413  10.160  19.201  0.00  0.00    +0.000 A 
ATOM     28  C   UNL     1     -10.280   9.825  17.851  0.00  0.00    +0.000 A 
ENDBRANCH  20  23
ENDBRANCH  19  20
ENDBRANCH  17  19
ENDBRANCH   4  18
TORSDOF 6
ENDMDL
MODEL 4
REMARK VINA RESULT:      -5.7     18.696     22.315
REMARK  Name = 157812418
REMARK  6 active torsions:
REMARK  status: ('A' for Active; 'I' for Inactive)
REMARK    1  A    between atoms: O_4  and  N_7
REMARK    2  A    between atoms: O_4  and  C_22
REMARK    3  A    between atoms: N_8  and  C_20
REMARK    4  A    between atoms: C_9  and  C_14
REMARK    5  A    between atoms: C_10  and  C_12
REMARK    6  A    between atoms: C_21  and  C_22
REMARK                            x       y       z     vdW  Elec       q    Type
REMARK                         _______ _______ _______ _____ _____    ______ ____
ROOT
ATOM      1  S   UNL     1      -7.781 -11.335  14.164  0.00  0.00    +0.000 S 
ATOM      2  N   UNL     1      -7.436 -10.601  16.602  0.00  0.00    +0.000 N 
ATOM      3  N   UNL     1      -8.930 -12.260  16.553  0.00  0.00    +0.000 NA
ATOM      4  C   UNL     1      -7.797 -10.784  17.918  0.00  0.00    +0.000 A 
ATOM      5  C   UNL     1      -8.728 -11.830  17.855  0.00  0.00    +0.000 A 
ATOM      6  C   UNL     1      -8.161 -11.477  15.853  0.00  0.00    +0.000 A 
ATOM      7  C   UNL     1      -6.543  -9.830  15.887  0.00  0.00    +0.000 A 
ATOM      8  C   UNL     1      -6.607 -10.073  14.569  0.00  0.00    +0.000 A 
ENDROOT
BRANCH   5   9
ATOM      9  C   UNL     1      -9.409 -12.462  18.980  0.00  0.00    +0.000 A 
ATOM     10  C   UNL     1      -8.841 -13.603  19.573  0.00  0.00    +0.000 A 
ATOM     11  C   UNL     1     -10.621 -11.969  19.489  0.00  0.00    +0.000 A 
ATOM     12  C   UNL     1      -9.435 -14.203  20.688  0.00  0.00    +0.000 A 
ATOM     13  C   UNL     1     -11.214 -12.556  20.612  0.00  0.00    +0.000 A 
ATOM     14  C   UNL     1     -10.608 -13.661  21.205  0.00  0.00    +0.000 A 
BRANCH  14  15
ATOM     15  N   UNL     1     -11.184 -14.223  22.339  0.00  0.00    +0.000 NA
ATOM     16  C   UNL     1     -11.678 -14.703  23.285  0.00  0.00    +0.000 C 
ENDBRANCH  14  15
ENDBRANCH   5   9
BRANCH   4  18
ATOM     17  N   UNL     1      -6.356 -10.562  19.892  0.00  0.00    +0.000 NA
ATOM     18  C   UNL     1      -7.237 -10.102  19.052  0.00  0.00    +0.000 C 
BRANCH  17  19
ATOM     19  O   UNL     1      -5.852 -11.804  19.485  0.00  0.00    +0.000 OA
BRANCH  19  20
ATOM     20  C   UNL     1      -4.450 -11.707  19.233  0.00  0.00    +0.000 C 
BRANCH  20  23
ATOM     21 CL   UNL     1      -2.115 -10.435  14.745  0.00  0.00    +0.000 Cl
ATOM     22 CL   UNL     1      -3.800 -12.830  13.329  0.00  0.00    +0.000 Cl
ATOM     23  C   UNL     1      -4.235 -11.978  17.766  0.00  0.00    +0.000 A 
ATOM     24  C   UNL     1      -3.361 -11.196  16.996  0.00  0.00    +0.000 A 
ATOM     25  C   UNL     1      -4.938 -13.020  17.144  0.00  0.00    +0.000 A 
ATOM     26  C   UNL     1      -3.205 -11.446  15.626  0.00  0.00    +0.000 A 
ATOM     27  C   UNL     1      -4.782 -13.272  15.781  0.00  0.00    +0.000 A 
ATOM     28  C   UNL     1      -3.922 -12.482  15.016  0.00  0.00    +0.000 A 
ENDBRANCH  20  23
ENDBRANCH  19  20
ENDBRANCH  17  19
ENDBRANCH   4  18
TORSDOF 6
ENDMDL
MODEL 5
REMARK VINA RESULT:      -5.5     40.637     43.537
REMARK  Name = 157812418
REMARK  6 active torsions:
REMARK  status: ('A' for Active; 'I' for Inactive)
REMARK    1  A    between atoms: O_4  and  N_7
REMARK    2  A    between atoms: O_4  and  C_22
REMARK    3  A    between atoms: N_8  and  C_20
REMARK    4  A    between atoms: C_9  and  C_14
REMARK    5  A    between atoms: C_10  and  C_12
REMARK    6  A    between atoms: C_21  and  C_22
REMARK                            x       y       z     vdW  Elec       q    Type
REMARK                         _______ _______ _______ _____ _____    ______ ____
ROOT
ATOM      1  S   UNL     1     -14.677   9.495  32.785  0.00  0.00    +0.000 S 
ATOM      2  N   UNL     1     -14.532   7.071  33.625  0.00  0.00    +0.000 N 
ATOM      3  N   UNL     1     -16.682   7.620  33.375  0.00  0.00    +0.000 NA
ATOM      4  C   UNL     1     -15.225   5.946  34.011  0.00  0.00    +0.000 A 
ATOM      5  C   UNL     1     -16.566   6.318  33.839  0.00  0.00    +0.000 A 
ATOM      6  C   UNL     1     -15.447   8.024  33.295  0.00  0.00    +0.000 A 
ATOM      7  C   UNL     1     -13.216   7.449  33.452  0.00  0.00    +0.000 A 
ATOM      8  C   UNL     1     -13.106   8.718  33.031  0.00  0.00    +0.000 A 
ENDROOT
BRANCH   5   9
ATOM      9  C   UNL     1     -17.740   5.483  34.065  0.00  0.00    +0.000 A 
ATOM     10  C   UNL     1     -18.204   5.292  35.378  0.00  0.00    +0.000 A 
ATOM     11  C   UNL     1     -18.423   4.857  33.010  0.00  0.00    +0.000 A 
ATOM     12  C   UNL     1     -19.360   4.544  35.629  0.00  0.00    +0.000 A 
ATOM     13  C   UNL     1     -19.586   4.119  33.252  0.00  0.00    +0.000 A 
ATOM     14  C   UNL     1     -20.047   3.980  34.558  0.00  0.00    +0.000 A 
BRANCH  14  15
ATOM     15  N   UNL     1     -21.220   3.271  34.792  0.00  0.00    +0.000 NA
ATOM     16  C   UNL     1     -22.207   2.678  35.001  0.00  0.00    +0.000 C 
ENDBRANCH  14  15
ENDBRANCH   5   9
BRANCH   4  18
ATOM     17  N   UNL     1     -14.234   3.739  33.599  0.00  0.00    +0.000 NA
ATOM     18  C   UNL     1     -14.650   4.686  34.390  0.00  0.00    +0.000 C 
BRANCH  17  19
ATOM     19  O   UNL     1     -14.254   4.140  32.257  0.00  0.00    +0.000 OA
BRANCH  19  20
ATOM     20  C   UNL     1     -13.537   3.204  31.453  0.00  0.00    +0.000 C 
BRANCH  20  23
ATOM     21 CL   UNL     1     -16.406   3.784  27.135  0.00  0.00    +0.000 Cl
ATOM     22 CL   UNL     1     -17.551   0.781  27.638  0.00  0.00    +0.000 Cl
ATOM     23  C   UNL     1     -14.511   2.621  30.460  0.00  0.00    +0.000 A 
ATOM     24  C   UNL     1     -14.962   3.360  29.356  0.00  0.00    +0.000 A 
ATOM     25  C   UNL     1     -14.998   1.320  30.650  0.00  0.00    +0.000 A 
ATOM     26  C   UNL     1     -15.894   2.809  28.468  0.00  0.00    +0.000 A 
ATOM     27  C   UNL     1     -15.924   0.769  29.765  0.00  0.00    +0.000 A 
ATOM     28  C   UNL     1     -16.381   1.513  28.676  0.00  0.00    +0.000 A 
ENDBRANCH  20  23
ENDBRANCH  19  20
ENDBRANCH  17  19
ENDBRANCH   4  18
TORSDOF 6
ENDMDL
MODEL 6
REMARK VINA RESULT:      -5.5     37.720     38.992
REMARK  Name = 157812418
REMARK  6 active torsions:
REMARK  status: ('A' for Active; 'I' for Inactive)
REMARK    1  A    between atoms: O_4  and  N_7
REMARK    2  A    between atoms: O_4  and  C_22
REMARK    3  A    between atoms: N_8  and  C_20
REMARK    4  A    between atoms: C_9  and  C_14
REMARK    5  A    between atoms: C_10  and  C_12
REMARK    6  A    between atoms: C_21  and  C_22
REMARK                            x       y       z     vdW  Elec       q    Type
REMARK                         _______ _______ _______ _____ _____    ______ ____
ROOT
ATOM      1  S   UNL     1       7.720  19.933  17.437  0.00  0.00    +0.000 S 
ATOM      2  N   UNL     1       7.366  17.576  18.395  0.00  0.00    +0.000 N 
ATOM      3  N   UNL     1       5.402  18.639  18.351  0.00  0.00    +0.000 NA
ATOM      4  C   UNL     1       6.469  16.673  18.919  0.00  0.00    +0.000 A 
ATOM      5  C   UNL     1       5.251  17.364  18.875  0.00  0.00    +0.000 A 
ATOM      6  C   UNL     1       6.679  18.718  18.113  0.00  0.00    +0.000 A 
ATOM      7  C   UNL     1       8.703  17.606  18.057  0.00  0.00    +0.000 A 
ATOM      8  C   UNL     1       9.070  18.795  17.553  0.00  0.00    +0.000 A 
ENDROOT
BRANCH   5   9
ATOM      9  C   UNL     1       3.943  16.857  19.276  0.00  0.00    +0.000 A 
ATOM     10  C   UNL     1       3.199  17.563  20.238  0.00  0.00    +0.000 A 
ATOM     11  C   UNL     1       3.402  15.681  18.735  0.00  0.00    +0.000 A 
ATOM     12  C   UNL     1       1.918  17.139  20.607  0.00  0.00    +0.000 A 
ATOM     13  C   UNL     1       2.117  15.258  19.089  0.00  0.00    +0.000 A 
ATOM     14  C   UNL     1       1.385  15.999  20.014  0.00  0.00    +0.000 A 
BRANCH  14  15
ATOM     15  N   UNL     1       0.096  15.593  20.341  0.00  0.00    +0.000 NA
ATOM     16  C   UNL     1      -0.984  15.238  20.619  0.00  0.00    +0.000 C 
ENDBRANCH  14  15
ENDBRANCH   5   9
BRANCH   4  18
ATOM     17  N   UNL     1       6.994  14.877  20.507  0.00  0.00    +0.000 NA
ATOM     18  C   UNL     1       6.758  15.319  19.306  0.00  0.00    +0.000 C 
BRANCH  17  19
ATOM     19  O   UNL     1       6.777  15.866  21.475  0.00  0.00    +0.000 OA
BRANCH  19  20
ATOM     20  C   UNL     1       6.532  15.265  22.746  0.00  0.00    +0.000 C 
BRANCH  20  23
ATOM     21 CL   UNL     1       1.411  15.469  23.721  0.00  0.00    +0.000 Cl
ATOM     22 CL   UNL     1       1.924  18.336  25.169  0.00  0.00    +0.000 Cl
ATOM     23  C   UNL     1       5.362  15.984  23.369  0.00  0.00    +0.000 A 
ATOM     24  C   UNL     1       4.061  15.465  23.298  0.00  0.00    +0.000 A 
ATOM     25  C   UNL     1       5.569  17.211  24.015  0.00  0.00    +0.000 A 
ATOM     26  C   UNL     1       2.986  16.170  23.854  0.00  0.00    +0.000 A 
ATOM     27  C   UNL     1       4.500  17.913  24.571  0.00  0.00    +0.000 A 
ATOM     28  C   UNL     1       3.204  17.400  24.486  0.00  0.00    +0.000 A 
ENDBRANCH  20  23
ENDBRANCH  19  20
ENDBRANCH  17  19
ENDBRANCH   4  18
TORSDOF 6
ENDMDL
MODEL 7
REMARK VINA RESULT:      -5.5     37.269     40.224
REMARK  Name = 157812418
REMARK  6 active torsions:
REMARK  status: ('A' for Active; 'I' for Inactive)
REMARK    1  A    between atoms: O_4  and  N_7
REMARK    2  A    between atoms: O_4  and  C_22
REMARK    3  A    between atoms: N_8  and  C_20
REMARK    4  A    between atoms: C_9  and  C_14
REMARK    5  A    between atoms: C_10  and  C_12
REMARK    6  A    between atoms: C_21  and  C_22
REMARK                            x       y       z     vdW  Elec       q    Type
REMARK                         _______ _______ _______ _____ _____    ______ ____
ROOT
ATOM      1  S   UNL     1     -18.082   0.055  23.307  0.00  0.00    +0.000 S 
ATOM      2  N   UNL     1     -18.951   0.498  25.684  0.00  0.00    +0.000 N 
ATOM      3  N   UNL     1     -16.758   0.916  25.629  0.00  0.00    +0.000 NA
ATOM      4  C   UNL     1     -18.636   0.875  26.970  0.00  0.00    +0.000 A 
ATOM      5  C   UNL     1     -17.261   1.133  26.903  0.00  0.00    +0.000 A 
ATOM      6  C   UNL     1     -17.799   0.513  24.959  0.00  0.00    +0.000 A 
ATOM      7  C   UNL     1     -20.083   0.170  24.966  0.00  0.00    +0.000 A 
ATOM      8  C   UNL     1     -19.802  -0.119  23.685  0.00  0.00    +0.000 A 
ENDROOT
BRANCH   5   9
ATOM      9  C   UNL     1     -16.407   1.610  27.986  0.00  0.00    +0.000 A 
ATOM     10  C   UNL     1     -16.165   0.771  29.089  0.00  0.00    +0.000 A 
ATOM     11  C   UNL     1     -15.821   2.885  27.967  0.00  0.00    +0.000 A 
ATOM     12  C   UNL     1     -15.308   1.172  30.119  0.00  0.00    +0.000 A 
ATOM     13  C   UNL     1     -14.953   3.286  28.987  0.00  0.00    +0.000 A 
ATOM     14  C   UNL     1     -14.698   2.420  30.047  0.00  0.00    +0.000 A 
BRANCH  14  15
ATOM     15  N   UNL     1     -13.811   2.810  31.044  0.00  0.00    +0.000 NA
ATOM     16  C   UNL     1     -13.068   3.151  31.882  0.00  0.00    +0.000 C 
ENDBRANCH  14  15
ENDBRANCH   5   9
BRANCH   4  18
ATOM     17  N   UNL     1     -19.914   2.160  28.625  0.00  0.00    +0.000 NA
ATOM     18  C   UNL     1     -19.565   1.044  28.054  0.00  0.00    +0.000 C 
BRANCH  17  19
ATOM     19  O   UNL     1     -19.393   3.272  27.951  0.00  0.00    +0.000 OA
BRANCH  19  20
ATOM     20  C   UNL     1     -19.766   4.474  28.624  0.00  0.00    +0.000 C 
BRANCH  20  23
ATOM     21 CL   UNL     1     -16.757   3.900  32.847  0.00  0.00    +0.000 Cl
ATOM     22 CL   UNL     1     -15.060   6.487  31.840  0.00  0.00    +0.000 Cl
ATOM     23  C   UNL     1     -18.578   4.925  29.436  0.00  0.00    +0.000 A 
ATOM     24  C   UNL     1     -18.219   4.282  30.630  0.00  0.00    +0.000 A 
ATOM     25  C   UNL     1     -17.823   6.026  29.005  0.00  0.00    +0.000 A 
ATOM     26  C   UNL     1     -17.132   4.742  31.384  0.00  0.00    +0.000 A 
ATOM     27  C   UNL     1     -16.739   6.483  29.753  0.00  0.00    +0.000 A 
ATOM     28  C   UNL     1     -16.394   5.849  30.949  0.00  0.00    +0.000 A 
ENDBRANCH  20  23
ENDBRANCH  19  20
ENDBRANCH  17  19
ENDBRANCH   4  18
TORSDOF 6
ENDMDL
MODEL 8
REMARK VINA RESULT:      -5.5     38.237     39.739
REMARK  Name = 157812418
REMARK  6 active torsions:
REMARK  status: ('A' for Active; 'I' for Inactive)
REMARK    1  A    between atoms: O_4  and  N_7
REMARK    2  A    between atoms: O_4  and  C_22
REMARK    3  A    between atoms: N_8  and  C_20
REMARK    4  A    between atoms: C_9  and  C_14
REMARK    5  A    between atoms: C_10  and  C_12
REMARK    6  A    between atoms: C_21  and  C_22
REMARK                            x       y       z     vdW  Elec       q    Type
REMARK                         _______ _______ _______ _____ _____    ______ ____
ROOT
ATOM      1  S   UNL     1      -0.234  19.849  24.399  0.00  0.00    +0.000 S 
ATOM      2  N   UNL     1       0.545  17.479  23.788  0.00  0.00    +0.000 N 
ATOM      3  N   UNL     1       2.339  18.787  24.035  0.00  0.00    +0.000 NA
ATOM      4  C   UNL     1       1.617  16.655  23.526  0.00  0.00    +0.000 A 
ATOM      5  C   UNL     1       2.723  17.499  23.692  0.00  0.00    +0.000 A 
ATOM      6  C   UNL     1       1.039  18.722  24.048  0.00  0.00    +0.000 A 
ATOM      7  C   UNL     1      -0.825  17.367  23.895  0.00  0.00    +0.000 A 
ATOM      8  C   UNL     1      -1.406  18.540  24.193  0.00  0.00    +0.000 A 
ENDROOT
BRANCH   5   9
ATOM      9  C   UNL     1       4.129  17.131  23.573  0.00  0.00    +0.000 A 
ATOM     10  C   UNL     1       5.102  17.926  24.204  0.00  0.00    +0.000 A 
ATOM     11  C   UNL     1       4.546  16.008  22.842  0.00  0.00    +0.000 A 
ATOM     12  C   UNL     1       6.455  17.573  24.160  0.00  0.00    +0.000 A 
ATOM     13  C   UNL     1       5.895  15.642  22.804  0.00  0.00    +0.000 A 
ATOM     14  C   UNL     1       6.834  16.424  23.473  0.00  0.00    +0.000 A 
BRANCH  14  15
ATOM     15  N   UNL     1       8.170  16.041  23.458  0.00  0.00    +0.000 NA
ATOM     16  C   UNL     1       9.292  15.707  23.451  0.00  0.00    +0.000 C 
ENDBRANCH  14  15
ENDBRANCH   5   9
BRANCH   4  18
ATOM     17  N   UNL     1       1.075  14.670  22.188  0.00  0.00    +0.000 NA
ATOM     18  C   UNL     1       1.553  15.245  23.253  0.00  0.00    +0.000 C 
BRANCH  17  19
ATOM     19  O   UNL     1       0.745  15.605  21.199  0.00  0.00    +0.000 OA
BRANCH  19  20
ATOM     20  C   UNL     1       0.870  15.016  19.904  0.00  0.00    +0.000 C 
BRANCH  20  23
ATOM     21 CL   UNL     1       4.901  18.326  19.963  0.00  0.00    +0.000 Cl
ATOM     22 CL   UNL     1       6.143  16.668  17.454  0.00  0.00    +0.000 Cl
ATOM     23  C   UNL     1       2.204  15.438  19.343  0.00  0.00    +0.000 A 
ATOM     24  C   UNL     1       2.894  16.550  19.850  0.00  0.00    +0.000 A 
ATOM     25  C   UNL     1       2.764  14.722  18.275  0.00  0.00    +0.000 A 
ATOM     26  C   UNL     1       4.115  16.943  19.288  0.00  0.00    +0.000 A 
ATOM     27  C   UNL     1       3.981  15.110  17.716  0.00  0.00    +0.000 A 
ATOM     28  C   UNL     1       4.657  16.226  18.214  0.00  0.00    +0.000 A 
ENDBRANCH  20  23
ENDBRANCH  19  20
ENDBRANCH  17  19
ENDBRANCH   4  18
TORSDOF 6
ENDMDL
MODEL 9
REMARK VINA RESULT:      -5.5     37.860     39.160
REMARK  Name = 157812418
REMARK  6 active torsions:
REMARK  status: ('A' for Active; 'I' for Inactive)
REMARK    1  A    between atoms: O_4  and  N_7
REMARK    2  A    between atoms: O_4  and  C_22
REMARK    3  A    between atoms: N_8  and  C_20
REMARK    4  A    between atoms: C_9  and  C_14
REMARK    5  A    between atoms: C_10  and  C_12
REMARK    6  A    between atoms: C_21  and  C_22
REMARK                            x       y       z     vdW  Elec       q    Type
REMARK                         _______ _______ _______ _____ _____    ______ ____
ROOT
ATOM      1  S   UNL     1       7.062  19.218  16.306  0.00  0.00    +0.000 S 
ATOM      2  N   UNL     1       6.668  17.068  17.656  0.00  0.00    +0.000 N 
ATOM      3  N   UNL     1       4.951  18.457  17.994  0.00  0.00    +0.000 NA
ATOM      4  C   UNL     1       5.843  16.396  18.530  0.00  0.00    +0.000 A 
ATOM      5  C   UNL     1       4.778  17.287  18.719  0.00  0.00    +0.000 A 
ATOM      6  C   UNL     1       6.101  18.281  17.408  0.00  0.00    +0.000 A 
ATOM      7  C   UNL     1       7.837  16.825  16.966  0.00  0.00    +0.000 A 
ATOM      8  C   UNL     1       8.208  17.873  16.214  0.00  0.00    +0.000 A 
ENDROOT
BRANCH   5   9
ATOM      9  C   UNL     1       3.586  17.065  19.530  0.00  0.00    +0.000 A 
ATOM     10  C   UNL     1       2.824  15.902  19.324  0.00  0.00    +0.000 A 
ATOM     11  C   UNL     1       3.170  17.979  20.510  0.00  0.00    +0.000 A 
ATOM     12  C   UNL     1       1.706  15.626  20.120  0.00  0.00    +0.000 A 
ATOM     13  C   UNL     1       2.063  17.704  21.318  0.00  0.00    +0.000 A 
ATOM     14  C   UNL     1       1.349  16.525  21.121  0.00  0.00    +0.000 A 
BRANCH  14  15
ATOM     15  N   UNL     1       0.266  16.240  21.945  0.00  0.00    +0.000 NA
ATOM     16  C   UNL     1      -0.647  15.990  22.632  0.00  0.00    +0.000 C 
ENDBRANCH  14  15
ENDBRANCH   5   9
BRANCH   4  18
ATOM     17  N   UNL     1       6.529  14.701  20.166  0.00  0.00    +0.000 NA
ATOM     18  C   UNL     1       6.036  15.058  19.015  0.00  0.00    +0.000 C 
BRANCH  17  19
ATOM     19  O   UNL     1       6.729  15.802  21.008  0.00  0.00    +0.000 OA
BRANCH  19  20
ATOM     20  C   UNL     1       6.854  15.369  22.362  0.00  0.00    +0.000 C 
BRANCH  20  23
ATOM     21 CL   UNL     1       5.511  19.358  25.444  0.00  0.00    +0.000 Cl
ATOM     22 CL   UNL     1       2.545  18.040  25.653  0.00  0.00    +0.000 Cl
ATOM     23  C   UNL     1       5.797  16.083  23.165  0.00  0.00    +0.000 A 
ATOM     24  C   UNL     1       6.077  17.273  23.853  0.00  0.00    +0.000 A 
ATOM     25  C   UNL     1       4.506  15.540  23.249  0.00  0.00    +0.000 A 
ATOM     26  C   UNL     1       5.087  17.899  24.620  0.00  0.00    +0.000 A 
ATOM     27  C   UNL     1       3.518  16.162  24.010  0.00  0.00    +0.000 A 
ATOM     28  C   UNL     1       3.806  17.339  24.705  0.00  0.00    +0.000 A 
ENDBRANCH  20  23
ENDBRANCH  19  20
ENDBRANCH  17  19
ENDBRANCH   4  18
TORSDOF 6
ENDMDL
MODEL 10
REMARK VINA RESULT:      -5.4     13.817     17.489
REMARK  Name = 157812418
REMARK  6 active torsions:
REMARK  status: ('A' for Active; 'I' for Inactive)
REMARK    1  A    between atoms: O_4  and  N_7
REMARK    2  A    between atoms: O_4  and  C_22
REMARK    3  A    between atoms: N_8  and  C_20
REMARK    4  A    between atoms: C_9  and  C_14
REMARK    5  A    between atoms: C_10  and  C_12
REMARK    6  A    between atoms: C_21  and  C_22
REMARK                            x       y       z     vdW  Elec       q    Type
REMARK                         _______ _______ _______ _____ _____    ______ ____
ROOT
ATOM      1  S   UNL     1      -2.789 -16.256  14.398  0.00  0.00    +0.000 S 
ATOM      2  N   UNL     1      -2.406 -13.723  14.212  0.00  0.00    +0.000 N 
ATOM      3  N   UNL     1      -4.409 -14.084  15.132  0.00  0.00    +0.000 NA
ATOM      4  C   UNL     1      -2.923 -12.465  14.426  0.00  0.00    +0.000 A 
ATOM      5  C   UNL     1      -4.173 -12.723  15.005  0.00  0.00    +0.000 A 
ATOM      6  C   UNL     1      -3.342 -14.625  14.619  0.00  0.00    +0.000 A 
ATOM      7  C   UNL     1      -1.227 -14.277  13.758  0.00  0.00    +0.000 A 
ATOM      8  C   UNL     1      -1.264 -15.619  13.766  0.00  0.00    +0.000 A 
ENDROOT
BRANCH   5   9
ATOM      9  C   UNL     1      -5.139 -11.736  15.475  0.00  0.00    +0.000 A 
ATOM     10  C   UNL     1      -6.240 -11.414  14.662  0.00  0.00    +0.000 A 
ATOM     11  C   UNL     1      -5.003 -11.091  16.714  0.00  0.00    +0.000 A 
ATOM     12  C   UNL     1      -7.217 -10.515  15.103  0.00  0.00    +0.000 A 
ATOM     13  C   UNL     1      -5.982 -10.201  17.166  0.00  0.00    +0.000 A 
ATOM     14  C   UNL     1      -7.084  -9.931  16.359  0.00  0.00    +0.000 A 
BRANCH  14  15
ATOM     15  N   UNL     1      -8.071  -9.069  16.824  0.00  0.00    +0.000 NA
ATOM     16  C   UNL     1      -8.902  -8.337  17.203  0.00  0.00    +0.000 C 
ENDBRANCH  14  15
ENDBRANCH   5   9
BRANCH   4  18
ATOM     17  N   UNL     1      -2.302 -10.488  13.111  0.00  0.00    +0.000 NA
ATOM     18  C   UNL     1      -2.247 -11.220  14.186  0.00  0.00    +0.000 C 
BRANCH  17  19
ATOM     19  O   UNL     1      -3.258 -10.969  12.206  0.00  0.00    +0.000 OA
BRANCH  19  20
ATOM     20  C   UNL     1      -4.039  -9.888  11.695  0.00  0.00    +0.000 C 
BRANCH  20  23
ATOM     21 CL   UNL     1      -4.094 -13.328   7.774  0.00  0.00    +0.000 Cl
ATOM     22 CL   UNL     1      -5.231 -10.952   5.866  0.00  0.00    +0.000 Cl
ATOM     23  C   UNL     1      -4.356 -10.202  10.255  0.00  0.00    +0.000 A 
ATOM     24  C   UNL     1      -4.132 -11.477   9.716  0.00  0.00    +0.000 A 
ATOM     25  C   UNL     1      -4.867  -9.194   9.424  0.00  0.00    +0.000 A 
ATOM     26  C   UNL     1      -4.402 -11.734   8.366  0.00  0.00    +0.000 A 
ATOM     27  C   UNL     1      -5.139  -9.448   8.080  0.00  0.00    +0.000 A 
ATOM     28  C   UNL     1      -4.900 -10.716   7.544  0.00  0.00    +0.000 A 
ENDBRANCH  20  23
ENDBRANCH  19  20
ENDBRANCH  17  19
ENDBRANCH   4  18
TORSDOF 6
ENDMDL
