MODEL 1
REMARK VINA RESULT:      -5.1      0.000      0.000
REMARK  Name = 157812418
REMARK  6 active torsions:
REMARK  status: ('A' for Active; 'I' for Inactive)
REMARK    1  A    between atoms: O_4  and  N_7
REMARK    2  A    between atoms: O_4  and  C_22
REMARK    3  A    between atoms: N_8  and  C_20
REMARK    4  A    between atoms: C_9  and  C_14
REMARK    5  A    between atoms: C_10  and  C_12
REMARK    6  A    between atoms: C_21  and  C_22
REMARK                            x       y       z     vdW  Elec       q    Type
REMARK                         _______ _______ _______ _____ _____    ______ ____
ROOT
ATOM      1  S   UNL     1     -23.999   9.252 -60.420  0.00  0.00    +0.000 S 
ATOM      2  N   UNL     1     -22.111   9.979 -58.838  0.00  0.00    +0.000 N 
ATOM      3  N   UNL     1     -23.684   8.931 -57.649  0.00  0.00    +0.000 NA
ATOM      4  C   UNL     1     -21.650  10.015 -57.541  0.00  0.00    +0.000 A 
ATOM      5  C   UNL     1     -22.652   9.349 -56.823  0.00  0.00    +0.000 A 
ATOM      6  C   UNL     1     -23.322   9.357 -58.824  0.00  0.00    +0.000 A 
ATOM      7  C   UNL     1     -21.664  10.350 -60.089  0.00  0.00    +0.000 A 
ATOM      8  C   UNL     1     -22.555  10.059 -61.050  0.00  0.00    +0.000 A 
ENDROOT
BRANCH   5   9
ATOM      9  C   UNL     1     -22.659   9.062 -55.392  0.00  0.00    +0.000 A 
ATOM     10  C   UNL     1     -23.342   9.929 -54.522  0.00  0.00    +0.000 A 
ATOM     11  C   UNL     1     -21.999   7.947 -54.853  0.00  0.00    +0.000 A 
ATOM     12  C   UNL     1     -23.418   9.657 -53.152  0.00  0.00    +0.000 A 
ATOM     13  C   UNL     1     -22.081   7.661 -53.487  0.00  0.00    +0.000 A 
ATOM     14  C   UNL     1     -22.800   8.514 -52.653  0.00  0.00    +0.000 A 
BRANCH  14  15
ATOM     15  N   UNL     1     -22.905   8.211 -51.300  0.00  0.00    +0.000 NA
ATOM     16  C   UNL     1     -23.003   7.946 -50.164  0.00  0.00    +0.000 C 
ENDBRANCH  14  15
ENDBRANCH   5   9
BRANCH   4  18
ATOM     17  N   UNL     1     -19.218   9.964 -57.210  0.00  0.00    +0.000 NA
ATOM     18  C   UNL     1     -20.383  10.537 -57.107  0.00  0.00    +0.000 C 
BRANCH  17  19
ATOM     19  O   UNL     1     -19.285   8.787 -57.966  0.00  0.00    +0.000 OA
BRANCH  19  20
ATOM     20  C   UNL     1     -18.708   7.702 -57.239  0.00  0.00    +0.000 C 
BRANCH  20  23
ATOM     21 CL   UNL     1     -22.938   5.471 -59.323  0.00  0.00    +0.000 Cl
ATOM     22 CL   UNL     1     -22.739   3.205 -56.997  0.00  0.00    +0.000 Cl
ATOM     23  C   UNL     1     -19.712   6.577 -57.233  0.00  0.00    +0.000 A 
ATOM     24  C   UNL     1     -20.748   6.513 -58.177  0.00  0.00    +0.000 A 
ATOM     25  C   UNL     1     -19.628   5.580 -56.250  0.00  0.00    +0.000 A 
ATOM     26  C   UNL     1     -21.688   5.477 -58.128  0.00  0.00    +0.000 A 
ATOM     27  C   UNL     1     -20.562   4.546 -56.201  0.00  0.00    +0.000 A 
ATOM     28  C   UNL     1     -21.600   4.495 -57.135  0.00  0.00    +0.000 A 
ENDBRANCH  20  23
ENDBRANCH  19  20
ENDBRANCH  17  19
ENDBRANCH   4  18
TORSDOF 6
ENDMDL
MODEL 2
REMARK VINA RESULT:      -5.0      1.711      2.384
REMARK  Name = 157812418
REMARK  6 active torsions:
REMARK  status: ('A' for Active; 'I' for Inactive)
REMARK    1  A    between atoms: O_4  and  N_7
REMARK    2  A    between atoms: O_4  and  C_22
REMARK    3  A    between atoms: N_8  and  C_20
REMARK    4  A    between atoms: C_9  and  C_14
REMARK    5  A    between atoms: C_10  and  C_12
REMARK    6  A    between atoms: C_21  and  C_22
REMARK                            x       y       z     vdW  Elec       q    Type
REMARK                         _______ _______ _______ _____ _____    ______ ____
ROOT
ATOM      1  S   UNL     1     -22.895   9.552 -59.672  0.00  0.00    +0.000 S 
ATOM      2  N   UNL     1     -21.232   9.108 -57.765  0.00  0.00    +0.000 N 
ATOM      3  N   UNL     1     -23.274   8.497 -57.097  0.00  0.00    +0.000 NA
ATOM      4  C   UNL     1     -21.057   8.660 -56.475  0.00  0.00    +0.000 A 
ATOM      5  C   UNL     1     -22.349   8.282 -56.086  0.00  0.00    +0.000 A 
ATOM      6  C   UNL     1     -22.559   9.014 -58.055  0.00  0.00    +0.000 A 
ATOM      7  C   UNL     1     -20.443   9.561 -58.803  0.00  0.00    +0.000 A 
ATOM      8  C   UNL     1     -21.167   9.867 -59.891  0.00  0.00    +0.000 A 
ENDROOT
BRANCH   5   9
ATOM      9  C   UNL     1     -22.741   7.694 -54.810  0.00  0.00    +0.000 A 
ATOM     10  C   UNL     1     -22.361   8.331 -53.616  0.00  0.00    +0.000 A 
ATOM     11  C   UNL     1     -23.484   6.505 -54.734  0.00  0.00    +0.000 A 
ATOM     12  C   UNL     1     -22.766   7.828 -52.374  0.00  0.00    +0.000 A 
ATOM     13  C   UNL     1     -23.903   6.004 -53.498  0.00  0.00    +0.000 A 
ATOM     14  C   UNL     1     -23.548   6.678 -52.332  0.00  0.00    +0.000 A 
BRANCH  14  15
ATOM     15  N   UNL     1     -23.991   6.193 -51.106  0.00  0.00    +0.000 NA
ATOM     16  C   UNL     1     -24.358   5.773 -50.077  0.00  0.00    +0.000 C 
ENDBRANCH  14  15
ENDBRANCH   5   9
BRANCH   4  18
ATOM     17  N   UNL     1     -18.979   7.531 -55.818  0.00  0.00    +0.000 NA
ATOM     18  C   UNL     1     -19.803   8.539 -55.783  0.00  0.00    +0.000 C 
BRANCH  17  19
ATOM     19  O   UNL     1     -19.368   6.577 -56.766  0.00  0.00    +0.000 OA
BRANCH  19  20
ATOM     20  C   UNL     1     -19.718   5.354 -56.118  0.00  0.00    +0.000 C 
BRANCH  20  23
ATOM     21 CL   UNL     1     -23.721   2.010 -56.119  0.00  0.00    +0.000 Cl
ATOM     22 CL   UNL     1     -24.604   3.256 -58.992  0.00  0.00    +0.000 Cl
ATOM     23  C   UNL     1     -20.962   4.827 -56.787  0.00  0.00    +0.000 A 
ATOM     24  C   UNL     1     -21.716   3.789 -56.220  0.00  0.00    +0.000 A 
ATOM     25  C   UNL     1     -21.368   5.368 -58.016  0.00  0.00    +0.000 A 
ATOM     26  C   UNL     1     -22.848   3.294 -56.879  0.00  0.00    +0.000 A 
ATOM     27  C   UNL     1     -22.497   4.877 -58.672  0.00  0.00    +0.000 A 
ATOM     28  C   UNL     1     -23.236   3.834 -58.111  0.00  0.00    +0.000 A 
ENDBRANCH  20  23
ENDBRANCH  19  20
ENDBRANCH  17  19
ENDBRANCH   4  18
TORSDOF 6
ENDMDL
MODEL 3
REMARK VINA RESULT:      -4.9      2.957      4.239
REMARK  Name = 157812418
REMARK  6 active torsions:
REMARK  status: ('A' for Active; 'I' for Inactive)
REMARK    1  A    between atoms: O_4  and  N_7
REMARK    2  A    between atoms: O_4  and  C_22
REMARK    3  A    between atoms: N_8  and  C_20
REMARK    4  A    between atoms: C_9  and  C_14
REMARK    5  A    between atoms: C_10  and  C_12
REMARK    6  A    between atoms: C_21  and  C_22
REMARK                            x       y       z     vdW  Elec       q    Type
REMARK                         _______ _______ _______ _____ _____    ______ ____
ROOT
ATOM      1  S   UNL     1     -25.553   6.862 -59.747  0.00  0.00    +0.000 S 
ATOM      2  N   UNL     1     -24.512   5.127 -58.164  0.00  0.00    +0.000 N 
ATOM      3  N   UNL     1     -24.804   7.039 -57.047  0.00  0.00    +0.000 NA
ATOM      4  C   UNL     1     -24.031   4.869 -56.900  0.00  0.00    +0.000 A 
ATOM      5  C   UNL     1     -24.231   6.081 -56.224  0.00  0.00    +0.000 A 
ATOM      6  C   UNL     1     -24.920   6.426 -58.189  0.00  0.00    +0.000 A 
ATOM      7  C   UNL     1     -24.717   4.433 -59.338  0.00  0.00    +0.000 A 
ATOM      8  C   UNL     1     -25.245   5.208 -60.298  0.00  0.00    +0.000 A 
ENDROOT
BRANCH   5   9
ATOM      9  C   UNL     1     -23.934   6.360 -54.824  0.00  0.00    +0.000 A 
ATOM     10  C   UNL     1     -22.826   7.164 -54.504  0.00  0.00    +0.000 A 
ATOM     11  C   UNL     1     -24.718   5.846 -53.779  0.00  0.00    +0.000 A 
ATOM     12  C   UNL     1     -22.543   7.500 -53.176  0.00  0.00    +0.000 A 
ATOM     13  C   UNL     1     -24.449   6.188 -52.450  0.00  0.00    +0.000 A 
ATOM     14  C   UNL     1     -23.370   7.020 -52.165  0.00  0.00    +0.000 A 
BRANCH  14  15
ATOM     15  N   UNL     1     -23.122   7.383 -50.845  0.00  0.00    +0.000 NA
ATOM     16  C   UNL     1     -22.916   7.700 -49.738  0.00  0.00    +0.000 C 
ENDBRANCH  14  15
ENDBRANCH   5   9
BRANCH   4  18
ATOM     17  N   UNL     1     -22.366   3.090 -56.609  0.00  0.00    +0.000 NA
ATOM     18  C   UNL     1     -23.546   3.604 -56.420  0.00  0.00    +0.000 C 
BRANCH  17  19
ATOM     19  O   UNL     1     -21.499   3.998 -57.230  0.00  0.00    +0.000 OA
BRANCH  19  20
ATOM     20  C   UNL     1     -20.557   4.505 -56.285  0.00  0.00    +0.000 C 
BRANCH  20  23
ATOM     21 CL   UNL     1     -21.518   8.606 -59.361  0.00  0.00    +0.000 Cl
ATOM     22 CL   UNL     1     -19.214  10.219 -57.726  0.00  0.00    +0.000 Cl
ATOM     23  C   UNL     1     -20.275   5.939 -56.651  0.00  0.00    +0.000 A 
ATOM     24  C   UNL     1     -20.951   6.573 -57.705  0.00  0.00    +0.000 A 
ATOM     25  C   UNL     1     -19.299   6.656 -55.943  0.00  0.00    +0.000 A 
ATOM     26  C   UNL     1     -20.646   7.896 -58.048  0.00  0.00    +0.000 A 
ATOM     27  C   UNL     1     -18.995   7.974 -56.282  0.00  0.00    +0.000 A 
ATOM     28  C   UNL     1     -19.661   8.596 -57.340  0.00  0.00    +0.000 A 
ENDBRANCH  20  23
ENDBRANCH  19  20
ENDBRANCH  17  19
ENDBRANCH   4  18
TORSDOF 6
ENDMDL
MODEL 4
REMARK VINA RESULT:      -4.7     23.002     24.616
REMARK  Name = 157812418
REMARK  6 active torsions:
REMARK  status: ('A' for Active; 'I' for Inactive)
REMARK    1  A    between atoms: O_4  and  N_7
REMARK    2  A    between atoms: O_4  and  C_22
REMARK    3  A    between atoms: N_8  and  C_20
REMARK    4  A    between atoms: C_9  and  C_14
REMARK    5  A    between atoms: C_10  and  C_12
REMARK    6  A    between atoms: C_21  and  C_22
REMARK                            x       y       z     vdW  Elec       q    Type
REMARK                         _______ _______ _______ _____ _____    ______ ____
ROOT
ATOM      1  S   UNL     1     -12.767   8.938 -30.386  0.00  0.00    +0.000 S 
ATOM      2  N   UNL     1     -13.929   8.405 -32.614  0.00  0.00    +0.000 N 
ATOM      3  N   UNL     1     -14.621   6.944 -31.072  0.00  0.00    +0.000 NA
ATOM      4  C   UNL     1     -14.802   7.577 -33.284  0.00  0.00    +0.000 A 
ATOM      5  C   UNL     1     -15.221   6.678 -32.294  0.00  0.00    +0.000 A 
ATOM      6  C   UNL     1     -13.846   7.957 -31.330  0.00  0.00    +0.000 A 
ATOM      7  C   UNL     1     -13.190   9.538 -32.881  0.00  0.00    +0.000 A 
ATOM      8  C   UNL     1     -12.490   9.948 -31.812  0.00  0.00    +0.000 A 
ENDROOT
BRANCH   5   9
ATOM      9  C   UNL     1     -16.190   5.599 -32.447  0.00  0.00    +0.000 A 
ATOM     10  C   UNL     1     -17.558   5.876 -32.276  0.00  0.00    +0.000 A 
ATOM     11  C   UNL     1     -15.801   4.286 -32.755  0.00  0.00    +0.000 A 
ATOM     12  C   UNL     1     -18.521   4.880 -32.470  0.00  0.00    +0.000 A 
ATOM     13  C   UNL     1     -16.759   3.288 -32.962  0.00  0.00    +0.000 A 
ATOM     14  C   UNL     1     -18.109   3.600 -32.828  0.00  0.00    +0.000 A 
BRANCH  14  15
ATOM     15  N   UNL     1     -19.060   2.613 -33.064  0.00  0.00    +0.000 NA
ATOM     16  C   UNL     1     -19.870   1.790 -33.258  0.00  0.00    +0.000 C 
ENDBRANCH  14  15
ENDBRANCH   5   9
BRANCH   4  18
ATOM     17  N   UNL     1     -14.550   7.396 -35.719  0.00  0.00    +0.000 NA
ATOM     18  C   UNL     1     -15.222   7.719 -34.651  0.00  0.00    +0.000 C 
BRANCH  17  19
ATOM     19  O   UNL     1     -13.369   6.713 -35.401  0.00  0.00    +0.000 OA
BRANCH  19  20
ATOM     20  C   UNL     1     -12.238   7.434 -35.890  0.00  0.00    +0.000 C 
BRANCH  20  23
ATOM     21 CL   UNL     1      -7.207   6.057 -35.836  0.00  0.00    +0.000 Cl
ATOM     22 CL   UNL     1      -8.054   3.354 -37.434  0.00  0.00    +0.000 Cl
ATOM     23  C   UNL     1     -11.171   6.424 -36.227  0.00  0.00    +0.000 A 
ATOM     24  C   UNL     1      -9.823   6.646 -35.906  0.00  0.00    +0.000 A 
ATOM     25  C   UNL     1     -11.522   5.243 -36.898  0.00  0.00    +0.000 A 
ATOM     26  C   UNL     1      -8.845   5.709 -36.261  0.00  0.00    +0.000 A 
ATOM     27  C   UNL     1     -10.550   4.307 -37.250  0.00  0.00    +0.000 A 
ATOM     28  C   UNL     1      -9.208   4.540 -36.941  0.00  0.00    +0.000 A 
ENDBRANCH  20  23
ENDBRANCH  19  20
ENDBRANCH  17  19
ENDBRANCH   4  18
TORSDOF 6
ENDMDL
MODEL 5
REMARK VINA RESULT:      -4.7     21.803     23.339
REMARK  Name = 157812418
REMARK  6 active torsions:
REMARK  status: ('A' for Active; 'I' for Inactive)
REMARK    1  A    between atoms: O_4  and  N_7
REMARK    2  A    between atoms: O_4  and  C_22
REMARK    3  A    between atoms: N_8  and  C_20
REMARK    4  A    between atoms: C_9  and  C_14
REMARK    5  A    between atoms: C_10  and  C_12
REMARK    6  A    between atoms: C_21  and  C_22
REMARK                            x       y       z     vdW  Elec       q    Type
REMARK                         _______ _______ _______ _____ _____    ______ ____
ROOT
ATOM      1  S   UNL     1      -7.863  17.982 -43.014  0.00  0.00    +0.000 S 
ATOM      2  N   UNL     1      -6.752  16.398 -44.704  0.00  0.00    +0.000 N 
ATOM      3  N   UNL     1      -6.164  15.778 -42.640  0.00  0.00    +0.000 NA
ATOM      4  C   UNL     1      -5.919  15.317 -44.888  0.00  0.00    +0.000 A 
ATOM      5  C   UNL     1      -5.571  14.950 -43.581  0.00  0.00    +0.000 A 
ATOM      6  C   UNL     1      -6.826  16.633 -43.365  0.00  0.00    +0.000 A 
ATOM      7  C   UNL     1      -7.527  17.232 -45.482  0.00  0.00    +0.000 A 
ATOM      8  C   UNL     1      -8.171  18.153 -44.749  0.00  0.00    +0.000 A 
ENDROOT
BRANCH   5   9
ATOM      9  C   UNL     1      -4.729  13.828 -43.183  0.00  0.00    +0.000 A 
ATOM     10  C   UNL     1      -4.105  13.851 -41.923  0.00  0.00    +0.000 A 
ATOM     11  C   UNL     1      -4.515  12.722 -44.022  0.00  0.00    +0.000 A 
ATOM     12  C   UNL     1      -3.335  12.768 -41.484  0.00  0.00    +0.000 A 
ATOM     13  C   UNL     1      -3.758  11.631 -43.584  0.00  0.00    +0.000 A 
ATOM     14  C   UNL     1      -3.185  11.662 -42.315  0.00  0.00    +0.000 A 
BRANCH  14  15
ATOM     15  N   UNL     1      -2.458  10.563 -41.872  0.00  0.00    +0.000 NA
ATOM     16  C   UNL     1      -1.836   9.646 -41.497  0.00  0.00    +0.000 C 
ENDBRANCH  14  15
ENDBRANCH   5   9
BRANCH   4  18
ATOM     17  N   UNL     1      -4.568  14.931 -46.901  0.00  0.00    +0.000 NA
ATOM     18  C   UNL     1      -5.602  14.697 -46.146  0.00  0.00    +0.000 C 
BRANCH  17  19
ATOM     19  O   UNL     1      -3.650  15.782 -46.273  0.00  0.00    +0.000 OA
BRANCH  19  20
ATOM     20  C   UNL     1      -2.325  15.486 -46.713  0.00  0.00    +0.000 C 
BRANCH  20  23
ATOM     21 CL   UNL     1      -0.568  15.299 -41.804  0.00  0.00    +0.000 Cl
ATOM     22 CL   UNL     1       0.544  12.309 -42.445  0.00  0.00    +0.000 Cl
ATOM     23  C   UNL     1      -1.645  14.712 -45.612  0.00  0.00    +0.000 A 
ATOM     24  C   UNL     1      -1.446  15.269 -44.340  0.00  0.00    +0.000 A 
ATOM     25  C   UNL     1      -1.178  13.414 -45.865  0.00  0.00    +0.000 A 
ATOM     26  C   UNL     1      -0.780  14.542 -43.344  0.00  0.00    +0.000 A 
ATOM     27  C   UNL     1      -0.517  12.689 -44.874  0.00  0.00    +0.000 A 
ATOM     28  C   UNL     1      -0.309  13.252 -43.614  0.00  0.00    +0.000 A 
ENDBRANCH  20  23
ENDBRANCH  19  20
ENDBRANCH  17  19
ENDBRANCH   4  18
TORSDOF 6
ENDMDL
MODEL 6
REMARK VINA RESULT:      -4.5     10.052     11.717
REMARK  Name = 157812418
REMARK  6 active torsions:
REMARK  status: ('A' for Active; 'I' for Inactive)
REMARK    1  A    between atoms: O_4  and  N_7
REMARK    2  A    between atoms: O_4  and  C_22
REMARK    3  A    between atoms: N_8  and  C_20
REMARK    4  A    between atoms: C_9  and  C_14
REMARK    5  A    between atoms: C_10  and  C_12
REMARK    6  A    between atoms: C_21  and  C_22
REMARK                            x       y       z     vdW  Elec       q    Type
REMARK                         _______ _______ _______ _____ _____    ______ ____
ROOT
ATOM      1  S   UNL     1     -16.775  13.023 -64.302  0.00  0.00    +0.000 S 
ATOM      2  N   UNL     1     -14.508  11.996 -63.667  0.00  0.00    +0.000 N 
ATOM      3  N   UNL     1     -15.581  12.585 -61.799  0.00  0.00    +0.000 NA
ATOM      4  C   UNL     1     -13.645  11.660 -62.648  0.00  0.00    +0.000 A 
ATOM      5  C   UNL     1     -14.345  12.036 -61.493  0.00  0.00    +0.000 A 
ATOM      6  C   UNL     1     -15.609  12.562 -63.100  0.00  0.00    +0.000 A 
ATOM      7  C   UNL     1     -14.562  11.872 -65.039  0.00  0.00    +0.000 A 
ATOM      8  C   UNL     1     -15.691  12.388 -65.549  0.00  0.00    +0.000 A 
ENDROOT
BRANCH   5   9
ATOM      9  C   UNL     1     -13.908  11.867 -60.112  0.00  0.00    +0.000 A 
ATOM     10  C   UNL     1     -13.712  10.569 -59.608  0.00  0.00    +0.000 A 
ATOM     11  C   UNL     1     -13.679  12.961 -59.264  0.00  0.00    +0.000 A 
ATOM     12  C   UNL     1     -13.240  10.369 -58.307  0.00  0.00    +0.000 A 
ATOM     13  C   UNL     1     -13.194  12.769 -57.966  0.00  0.00    +0.000 A 
ATOM     14  C   UNL     1     -12.970  11.474 -57.506  0.00  0.00    +0.000 A 
BRANCH  14  15
ATOM     15  N   UNL     1     -12.460  11.288 -56.226  0.00  0.00    +0.000 NA
ATOM     16  C   UNL     1     -12.038  11.141 -55.144  0.00  0.00    +0.000 C 
ENDBRANCH  14  15
ENDBRANCH   5   9
BRANCH   4  18
ATOM     17  N   UNL     1     -11.196  11.522 -62.729  0.00  0.00    +0.000 NA
ATOM     18  C   UNL     1     -12.382  10.990 -62.794  0.00  0.00    +0.000 C 
BRANCH  17  19
ATOM     19  O   UNL     1     -11.251  12.863 -62.326  0.00  0.00    +0.000 OA
BRANCH  19  20
ATOM     20  C   UNL     1      -9.950  13.318 -61.955  0.00  0.00    +0.000 C 
BRANCH  20  23
ATOM     21 CL   UNL     1     -10.898  16.673 -58.075  0.00  0.00    +0.000 Cl
ATOM     22 CL   UNL     1      -9.872  14.382 -56.006  0.00  0.00    +0.000 Cl
ATOM     23  C   UNL     1      -9.978  13.610 -60.476  0.00  0.00    +0.000 A 
ATOM     24  C   UNL     1     -10.394  14.855 -59.982  0.00  0.00    +0.000 A 
ATOM     25  C   UNL     1      -9.558  12.626 -59.569  0.00  0.00    +0.000 A 
ATOM     26  C   UNL     1     -10.377  15.113 -58.606  0.00  0.00    +0.000 A 
ATOM     27  C   UNL     1      -9.543  12.880 -58.198  0.00  0.00    +0.000 A 
ATOM     28  C   UNL     1      -9.945  14.126 -57.712  0.00  0.00    +0.000 A 
ENDBRANCH  20  23
ENDBRANCH  19  20
ENDBRANCH  17  19
ENDBRANCH   4  18
TORSDOF 6
ENDMDL
MODEL 7
REMARK VINA RESULT:      -4.4      9.203     11.521
REMARK  Name = 157812418
REMARK  6 active torsions:
REMARK  status: ('A' for Active; 'I' for Inactive)
REMARK    1  A    between atoms: O_4  and  N_7
REMARK    2  A    between atoms: O_4  and  C_22
REMARK    3  A    between atoms: N_8  and  C_20
REMARK    4  A    between atoms: C_9  and  C_14
REMARK    5  A    between atoms: C_10  and  C_12
REMARK    6  A    between atoms: C_21  and  C_22
REMARK                            x       y       z     vdW  Elec       q    Type
REMARK                         _______ _______ _______ _____ _____    ______ ____
ROOT
ATOM      1  S   UNL     1     -17.536  14.436 -58.880  0.00  0.00    +0.000 S 
ATOM      2  N   UNL     1     -16.127  12.288 -58.943  0.00  0.00    +0.000 N 
ATOM      3  N   UNL     1     -14.990  13.864 -57.842  0.00  0.00    +0.000 NA
ATOM      4  C   UNL     1     -14.940  11.683 -58.596  0.00  0.00    +0.000 A 
ATOM      5  C   UNL     1     -14.253  12.691 -57.906  0.00  0.00    +0.000 A 
ATOM      6  C   UNL     1     -16.077  13.574 -58.498  0.00  0.00    +0.000 A 
ATOM      7  C   UNL     1     -17.312  11.933 -59.554  0.00  0.00    +0.000 A 
ATOM      8  C   UNL     1     -18.171  12.962 -59.627  0.00  0.00    +0.000 A 
ENDROOT
BRANCH   5   9
ATOM      9  C   UNL     1     -12.943  12.581 -57.275  0.00  0.00    +0.000 A 
ATOM     10  C   UNL     1     -12.176  13.744 -57.080  0.00  0.00    +0.000 A 
ATOM     11  C   UNL     1     -12.417  11.349 -56.859  0.00  0.00    +0.000 A 
ATOM     12  C   UNL     1     -10.939  13.686 -56.428  0.00  0.00    +0.000 A 
ATOM     13  C   UNL     1     -11.187  11.285 -56.195  0.00  0.00    +0.000 A 
ATOM     14  C   UNL     1     -10.467  12.457 -55.978  0.00  0.00    +0.000 A 
BRANCH  14  15
ATOM     15  N   UNL     1      -9.260  12.393 -55.291  0.00  0.00    +0.000 NA
ATOM     16  C   UNL     1      -8.240  12.352 -54.719  0.00  0.00    +0.000 C 
ENDBRANCH  14  15
ENDBRANCH   5   9
BRANCH   4  18
ATOM     17  N   UNL     1     -13.824   9.837 -59.766  0.00  0.00    +0.000 NA
ATOM     18  C   UNL     1     -14.592  10.308 -58.826  0.00  0.00    +0.000 C 
BRANCH  17  19
ATOM     19  O   UNL     1     -13.203  10.863 -60.490  0.00  0.00    +0.000 OA
BRANCH  19  20
ATOM     20  C   UNL     1     -11.784  10.711 -60.438  0.00  0.00    +0.000 C 
BRANCH  20  23
ATOM     21 CL   UNL     1      -7.871  13.789 -58.882  0.00  0.00    +0.000 Cl
ATOM     22 CL   UNL     1      -9.577  16.321 -60.006  0.00  0.00    +0.000 Cl
ATOM     23  C   UNL     1     -11.185  12.091 -60.343  0.00  0.00    +0.000 A 
ATOM     24  C   UNL     1      -9.934  12.307 -59.745  0.00  0.00    +0.000 A 
ATOM     25  C   UNL     1     -11.897  13.191 -60.841  0.00  0.00    +0.000 A 
ATOM     26  C   UNL     1      -9.415  13.604 -59.637  0.00  0.00    +0.000 A 
ATOM     27  C   UNL     1     -11.381  14.482 -60.737  0.00  0.00    +0.000 A 
ATOM     28  C   UNL     1     -10.142  14.694 -60.128  0.00  0.00    +0.000 A 
ENDBRANCH  20  23
ENDBRANCH  19  20
ENDBRANCH  17  19
ENDBRANCH   4  18
TORSDOF 6
ENDMDL
MODEL 8
REMARK VINA RESULT:      -4.4     11.241     13.364
REMARK  Name = 157812418
REMARK  6 active torsions:
REMARK  status: ('A' for Active; 'I' for Inactive)
REMARK    1  A    between atoms: O_4  and  N_7
REMARK    2  A    between atoms: O_4  and  C_22
REMARK    3  A    between atoms: N_8  and  C_20
REMARK    4  A    between atoms: C_9  and  C_14
REMARK    5  A    between atoms: C_10  and  C_12
REMARK    6  A    between atoms: C_21  and  C_22
REMARK                            x       y       z     vdW  Elec       q    Type
REMARK                         _______ _______ _______ _____ _____    ______ ____
ROOT
ATOM      1  S   UNL     1      -9.365  14.878 -59.985  0.00  0.00    +0.000 S 
ATOM      2  N   UNL     1     -10.466  14.544 -57.688  0.00  0.00    +0.000 N 
ATOM      3  N   UNL     1      -8.247  14.473 -57.442  0.00  0.00    +0.000 NA
ATOM      4  C   UNL     1     -10.271  14.319 -56.344  0.00  0.00    +0.000 A 
ATOM      5  C   UNL     1      -8.876  14.284 -56.220  0.00  0.00    +0.000 A 
ATOM      6  C   UNL     1      -9.239  14.592 -58.277  0.00  0.00    +0.000 A 
ATOM      7  C   UNL     1     -11.526  14.767 -58.542  0.00  0.00    +0.000 A 
ATOM      8  C   UNL     1     -11.125  14.942 -59.810  0.00  0.00    +0.000 A 
ENDROOT
BRANCH   5   9
ATOM      9  C   UNL     1      -8.111  14.112 -54.990  0.00  0.00    +0.000 A 
ATOM     10  C   UNL     1      -7.126  15.059 -54.657  0.00  0.00    +0.000 A 
ATOM     11  C   UNL     1      -8.323  13.027 -54.126  0.00  0.00    +0.000 A 
ATOM     12  C   UNL     1      -6.412  14.959 -53.458  0.00  0.00    +0.000 A 
ATOM     13  C   UNL     1      -7.622  12.927 -52.920  0.00  0.00    +0.000 A 
ATOM     14  C   UNL     1      -6.682  13.901 -52.595  0.00  0.00    +0.000 A 
BRANCH  14  15
ATOM     15  N   UNL     1      -6.008  13.816 -51.381  0.00  0.00    +0.000 NA
ATOM     16  C   UNL     1      -5.448  13.754 -50.355  0.00  0.00    +0.000 C 
ENDBRANCH  14  15
ENDBRANCH   5   9
BRANCH   4  18
ATOM     17  N   UNL     1     -11.898  13.181 -54.901  0.00  0.00    +0.000 NA
ATOM     18  C   UNL     1     -11.297  14.249 -55.340  0.00  0.00    +0.000 C 
BRANCH  17  19
ATOM     19  O   UNL     1     -11.317  12.013 -55.411  0.00  0.00    +0.000 OA
BRANCH  19  20
ATOM     20  C   UNL     1     -12.332  11.098 -55.823  0.00  0.00    +0.000 C 
BRANCH  20  23
ATOM     21 CL   UNL     1     -15.387  11.666 -60.012  0.00  0.00    +0.000 Cl
ATOM     22 CL   UNL     1     -12.714  11.401 -61.847  0.00  0.00    +0.000 Cl
ATOM     23  C   UNL     1     -12.464  11.213 -57.320  0.00  0.00    +0.000 A 
ATOM     24  C   UNL     1     -13.713  11.388 -57.935  0.00  0.00    +0.000 A 
ATOM     25  C   UNL     1     -11.319  11.122 -58.125  0.00  0.00    +0.000 A 
ATOM     26  C   UNL     1     -13.813  11.457 -59.330  0.00  0.00    +0.000 A 
ATOM     27  C   UNL     1     -11.417  11.193 -59.514  0.00  0.00    +0.000 A 
ATOM     28  C   UNL     1     -12.664  11.353 -60.122  0.00  0.00    +0.000 A 
ENDBRANCH  20  23
ENDBRANCH  19  20
ENDBRANCH  17  19
ENDBRANCH   4  18
TORSDOF 6
ENDMDL
MODEL 9
REMARK VINA RESULT:      -4.3     23.125     25.031
REMARK  Name = 157812418
REMARK  6 active torsions:
REMARK  status: ('A' for Active; 'I' for Inactive)
REMARK    1  A    between atoms: O_4  and  N_7
REMARK    2  A    between atoms: O_4  and  C_22
REMARK    3  A    between atoms: N_8  and  C_20
REMARK    4  A    between atoms: C_9  and  C_14
REMARK    5  A    between atoms: C_10  and  C_12
REMARK    6  A    between atoms: C_21  and  C_22
REMARK                            x       y       z     vdW  Elec       q    Type
REMARK                         _______ _______ _______ _____ _____    ______ ____
ROOT
ATOM      1  S   UNL     1     -14.117   8.907 -29.805  0.00  0.00    +0.000 S 
ATOM      2  N   UNL     1     -14.539   8.064 -32.194  0.00  0.00    +0.000 N 
ATOM      3  N   UNL     1     -14.128   6.311 -30.873  0.00  0.00    +0.000 NA
ATOM      4  C   UNL     1     -14.606   6.973 -33.032  0.00  0.00    +0.000 A 
ATOM      5  C   UNL     1     -14.349   5.893 -32.177  0.00  0.00    +0.000 A 
ATOM      6  C   UNL     1     -14.224   7.606 -30.951  0.00  0.00    +0.000 A 
ATOM      7  C   UNL     1     -14.743   9.426 -32.276  0.00  0.00    +0.000 A 
ATOM      8  C   UNL     1     -14.539  10.038 -31.099  0.00  0.00    +0.000 A 
ENDROOT
BRANCH   5   9
ATOM      9  C   UNL     1     -14.337   4.479 -32.535  0.00  0.00    +0.000 A 
ATOM     10  C   UNL     1     -15.434   3.673 -32.183  0.00  0.00    +0.000 A 
ATOM     11  C   UNL     1     -13.260   3.892 -33.218  0.00  0.00    +0.000 A 
ATOM     12  C   UNL     1     -15.483   2.325 -32.557  0.00  0.00    +0.000 A 
ATOM     13  C   UNL     1     -13.308   2.550 -33.607  0.00  0.00    +0.000 A 
ATOM     14  C   UNL     1     -14.425   1.784 -33.281  0.00  0.00    +0.000 A 
BRANCH  14  15
ATOM     15  N   UNL     1     -14.483   0.458 -33.696  0.00  0.00    +0.000 NA
ATOM     16  C   UNL     1     -14.545  -0.657 -34.047  0.00  0.00    +0.000 C 
ENDBRANCH  14  15
ENDBRANCH   5   9
BRANCH   4  18
ATOM     17  N   UNL     1     -14.161   7.141 -35.439  0.00  0.00    +0.000 NA
ATOM     18  C   UNL     1     -14.962   6.995 -34.424  0.00  0.00    +0.000 C 
BRANCH  17  19
ATOM     19  O   UNL     1     -12.817   7.121 -35.046  0.00  0.00    +0.000 OA
BRANCH  19  20
ATOM     20  C   UNL     1     -11.984   7.563 -36.118  0.00  0.00    +0.000 C 
BRANCH  20  23
ATOM     21 CL   UNL     1      -7.026   5.964 -35.846  0.00  0.00    +0.000 Cl
ATOM     22 CL   UNL     1      -7.961   3.209 -37.302  0.00  0.00    +0.000 Cl
ATOM     23  C   UNL     1     -10.958   6.486 -36.365  0.00  0.00    +0.000 A 
ATOM     24  C   UNL     1      -9.609   6.667 -36.022  0.00  0.00    +0.000 A 
ATOM     25  C   UNL     1     -11.347   5.284 -36.973  0.00  0.00    +0.000 A 
ATOM     26  C   UNL     1      -8.668   5.665 -36.294  0.00  0.00    +0.000 A 
ATOM     27  C   UNL     1     -10.413   4.285 -37.243  0.00  0.00    +0.000 A 
ATOM     28  C   UNL     1      -9.069   4.475 -36.912  0.00  0.00    +0.000 A 
ENDBRANCH  20  23
ENDBRANCH  19  20
ENDBRANCH  17  19
ENDBRANCH   4  18
TORSDOF 6
ENDMDL
MODEL 10
REMARK VINA RESULT:      -4.3      2.233      2.825
REMARK  Name = 157812418
REMARK  6 active torsions:
REMARK  status: ('A' for Active; 'I' for Inactive)
REMARK    1  A    between atoms: O_4  and  N_7
REMARK    2  A    between atoms: O_4  and  C_22
REMARK    3  A    between atoms: N_8  and  C_20
REMARK    4  A    between atoms: C_9  and  C_14
REMARK    5  A    between atoms: C_10  and  C_12
REMARK    6  A    between atoms: C_21  and  C_22
REMARK                            x       y       z     vdW  Elec       q    Type
REMARK                         _______ _______ _______ _____ _____    ______ ____
ROOT
ATOM      1  S   UNL     1     -22.419  10.521 -59.116  0.00  0.00    +0.000 S 
ATOM      2  N   UNL     1     -21.002   9.200 -57.429  0.00  0.00    +0.000 N 
ATOM      3  N   UNL     1     -22.891   9.851 -56.430  0.00  0.00    +0.000 NA
ATOM      4  C   UNL     1     -20.897   8.724 -56.142  0.00  0.00    +0.000 A 
ATOM      5  C   UNL     1     -22.094   9.143 -55.544  0.00  0.00    +0.000 A 
ATOM      6  C   UNL     1     -22.180   9.877 -57.521  0.00  0.00    +0.000 A 
ATOM      7  C   UNL     1     -20.280   9.133 -58.603  0.00  0.00    +0.000 A 
ATOM      8  C   UNL     1     -20.877   9.802 -59.602  0.00  0.00    +0.000 A 
ENDROOT
BRANCH   5   9
ATOM      9  C   UNL     1     -22.530   8.872 -54.178  0.00  0.00    +0.000 A 
ATOM     10  C   UNL     1     -23.235   9.864 -53.475  0.00  0.00    +0.000 A 
ATOM     11  C   UNL     1     -22.263   7.652 -53.539  0.00  0.00    +0.000 A 
ATOM     12  C   UNL     1     -23.718   9.621 -52.184  0.00  0.00    +0.000 A 
ATOM     13  C   UNL     1     -22.754   7.397 -52.254  0.00  0.00    +0.000 A 
ATOM     14  C   UNL     1     -23.486   8.382 -51.596  0.00  0.00    +0.000 A 
BRANCH  14  15
ATOM     15  N   UNL     1     -23.998   8.115 -50.331  0.00  0.00    +0.000 NA
ATOM     16  C   UNL     1     -24.430   7.877 -49.269  0.00  0.00    +0.000 C 
ENDBRANCH  14  15
ENDBRANCH   5   9
BRANCH   4  18
ATOM     17  N   UNL     1     -19.695   6.621 -55.750  0.00  0.00    +0.000 NA
ATOM     18  C   UNL     1     -19.833   7.909 -55.624  0.00  0.00    +0.000 C 
BRANCH  17  19
ATOM     19  O   UNL     1     -20.653   6.080 -56.618  0.00  0.00    +0.000 OA
BRANCH  19  20
ATOM     20  C   UNL     1     -20.663   4.656 -56.514  0.00  0.00    +0.000 C 
BRANCH  20  23
ATOM     21 CL   UNL     1     -25.337   5.832 -54.519  0.00  0.00    +0.000 Cl
ATOM     22 CL   UNL     1     -26.251   2.780 -55.178  0.00  0.00    +0.000 Cl
ATOM     23  C   UNL     1     -22.075   4.236 -56.197  0.00  0.00    +0.000 A 
ATOM     24  C   UNL     1     -22.983   5.116 -55.589  0.00  0.00    +0.000 A 
ATOM     25  C   UNL     1     -22.493   2.930 -56.494  0.00  0.00    +0.000 A 
ATOM     26  C   UNL     1     -24.280   4.691 -55.273  0.00  0.00    +0.000 A 
ATOM     27  C   UNL     1     -23.784   2.506 -56.182  0.00  0.00    +0.000 A 
ATOM     28  C   UNL     1     -24.679   3.381 -55.564  0.00  0.00    +0.000 A 
ENDBRANCH  20  23
ENDBRANCH  19  20
ENDBRANCH  17  19
ENDBRANCH   4  18
TORSDOF 6
ENDMDL
