MODEL 1
REMARK VINA RESULT:      -6.3      0.000      0.000
REMARK  Name = 157888353
REMARK  6 active torsions:
REMARK  status: ('A' for Active; 'I' for Inactive)
REMARK    1  A    between atoms: O_4  and  N_7
REMARK    2  A    between atoms: O_4  and  C_22
REMARK    3  A    between atoms: C_8  and  C_10
REMARK    4  A    between atoms: C_9  and  C_15
REMARK    5  A    between atoms: C_16  and  C_20
REMARK    6  A    between atoms: C_21  and  C_22
REMARK                            x       y       z     vdW  Elec       q    Type
REMARK                         _______ _______ _______ _____ _____    ______ ____
ROOT
ATOM      1  S   UNL     1      -2.776 -15.708  12.271  0.00  0.00    +0.000 S 
ATOM      2  N   UNL     1      -2.156 -13.242  12.654  0.00  0.00    +0.000 N 
ATOM      3  N   UNL     1      -3.919 -13.342  11.287  0.00  0.00    +0.000 NA
ATOM      4  C   UNL     1      -3.550 -12.022  11.508  0.00  0.00    +0.000 A 
ATOM      5  C   UNL     1      -2.445 -11.929  12.364  0.00  0.00    +0.000 A 
ATOM      6  C   UNL     1      -3.041 -14.017  11.969  0.00  0.00    +0.000 A 
ATOM      7  C   UNL     1      -1.274 -13.943  13.454  0.00  0.00    +0.000 A 
ATOM      8  C   UNL     1      -1.450 -15.270  13.356  0.00  0.00    +0.000 A 
ENDROOT
BRANCH   4   9
ATOM      9  C   UNL     1      -4.289 -10.918  10.908  0.00  0.00    +0.000 A 
ATOM     10  C   UNL     1      -4.052 -10.578   9.569  0.00  0.00    +0.000 A 
ATOM     11  C   UNL     1      -5.220 -10.165  11.633  0.00  0.00    +0.000 A 
ATOM     12  C   UNL     1      -5.725  -8.822   9.673  0.00  0.00    +0.000 A 
ATOM     13  C   UNL     1      -4.765  -9.542   8.955  0.00  0.00    +0.000 A 
ATOM     14  C   UNL     1      -5.941  -9.136  11.018  0.00  0.00    +0.000 A 
ATOM     15  C   UNL     1      -6.512  -7.719   9.030  0.00  0.00    +0.000 C 
ENDBRANCH   4   9
BRANCH   5  17
ATOM     16  N   UNL     1      -2.072 -10.175  14.043  0.00  0.00    +0.000 NA
ATOM     17  C   UNL     1      -1.798 -10.771  12.919  0.00  0.00    +0.000 C 
BRANCH  16  18
ATOM     18  O   UNL     1      -3.014 -10.891  14.791  0.00  0.00    +0.000 OA
BRANCH  18  19
ATOM     19  C   UNL     1      -2.653 -10.887  16.172  0.00  0.00    +0.000 C 
BRANCH  19  22
ATOM     20 CL   UNL     1      -7.570  -9.226  16.713  0.00  0.00    +0.000 Cl
ATOM     21 CL   UNL     1      -7.691 -10.883  19.512  0.00  0.00    +0.000 Cl
ATOM     22  C   UNL     1      -3.934 -10.870  16.971  0.00  0.00    +0.000 A 
ATOM     23  C   UNL     1      -5.053 -10.144  16.544  0.00  0.00    +0.000 A 
ATOM     24  C   UNL     1      -4.007 -11.595  18.172  0.00  0.00    +0.000 A 
ATOM     25  C   UNL     1      -6.227 -10.139  17.308  0.00  0.00    +0.000 A 
ATOM     26  C   UNL     1      -5.175 -11.591  18.933  0.00  0.00    +0.000 A 
ATOM     27  C   UNL     1      -6.285 -10.860  18.509  0.00  0.00    +0.000 A 
ENDBRANCH  19  22
ENDBRANCH  18  19
ENDBRANCH  16  18
ENDBRANCH   5  17
TORSDOF 5
ENDMDL
MODEL 2
REMARK VINA RESULT:      -6.2      2.381      6.312
REMARK  Name = 157888353
REMARK  6 active torsions:
REMARK  status: ('A' for Active; 'I' for Inactive)
REMARK    1  A    between atoms: O_4  and  N_7
REMARK    2  A    between atoms: O_4  and  C_22
REMARK    3  A    between atoms: C_8  and  C_10
REMARK    4  A    between atoms: C_9  and  C_15
REMARK    5  A    between atoms: C_16  and  C_20
REMARK    6  A    between atoms: C_21  and  C_22
REMARK                            x       y       z     vdW  Elec       q    Type
REMARK                         _______ _______ _______ _____ _____    ______ ____
ROOT
ATOM      1  S   UNL     1      -3.743 -15.949  12.755  0.00  0.00    +0.000 S 
ATOM      2  N   UNL     1      -2.722 -13.795  13.719  0.00  0.00    +0.000 N 
ATOM      3  N   UNL     1      -4.578 -14.287  14.857  0.00  0.00    +0.000 NA
ATOM      4  C   UNL     1      -4.005 -13.122  15.345  0.00  0.00    +0.000 A 
ATOM      5  C   UNL     1      -2.836 -12.788  14.649  0.00  0.00    +0.000 A 
ATOM      6  C   UNL     1      -3.790 -14.624  13.879  0.00  0.00    +0.000 A 
ATOM      7  C   UNL     1      -1.826 -14.189  12.743  0.00  0.00    +0.000 A 
ATOM      8  C   UNL     1      -2.225 -15.307  12.116  0.00  0.00    +0.000 A 
ENDROOT
BRANCH   4   9
ATOM      9  C   UNL     1      -4.591 -12.401  16.468  0.00  0.00    +0.000 A 
ATOM     10  C   UNL     1      -5.034 -13.116  17.589  0.00  0.00    +0.000 A 
ATOM     11  C   UNL     1      -4.749 -11.010  16.458  0.00  0.00    +0.000 A 
ATOM     12  C   UNL     1      -5.691 -11.058  18.697  0.00  0.00    +0.000 A 
ATOM     13  C   UNL     1      -5.577 -12.452  18.695  0.00  0.00    +0.000 A 
ATOM     14  C   UNL     1      -5.280 -10.344  17.568  0.00  0.00    +0.000 A 
ATOM     15  C   UNL     1      -6.253 -10.325  19.879  0.00  0.00    +0.000 C 
ENDBRANCH   4   9
BRANCH   5  17
ATOM     16  N   UNL     1      -1.824 -10.583  14.260  0.00  0.00    +0.000 NA
ATOM     17  C   UNL     1      -1.893 -11.727  14.877  0.00  0.00    +0.000 C 
BRANCH  16  18
ATOM     18  O   UNL     1      -2.911 -10.396  13.398  0.00  0.00    +0.000 OA
BRANCH  18  19
ATOM     19  C   UNL     1      -2.462 -10.347  12.044  0.00  0.00    +0.000 C 
BRANCH  19  22
ATOM     20 CL   UNL     1      -7.554  -9.307  11.578  0.00  0.00    +0.000 Cl
ATOM     21 CL   UNL     1      -6.936  -8.253   8.561  0.00  0.00    +0.000 Cl
ATOM     22  C   UNL     1      -3.605  -9.820  11.210  0.00  0.00    +0.000 A 
ATOM     23  C   UNL     1      -4.917  -9.798  11.700  0.00  0.00    +0.000 A 
ATOM     24  C   UNL     1      -3.351  -9.345   9.913  0.00  0.00    +0.000 A 
ATOM     25  C   UNL     1      -5.961  -9.311  10.903  0.00  0.00    +0.000 A 
ATOM     26  C   UNL     1      -4.389  -8.860   9.119  0.00  0.00    +0.000 A 
ATOM     27  C   UNL     1      -5.697  -8.847   9.607  0.00  0.00    +0.000 A 
ENDBRANCH  19  22
ENDBRANCH  18  19
ENDBRANCH  16  18
ENDBRANCH   5  17
TORSDOF 5
ENDMDL
MODEL 3
REMARK VINA RESULT:      -6.1     23.817     26.246
REMARK  Name = 157888353
REMARK  6 active torsions:
REMARK  status: ('A' for Active; 'I' for Inactive)
REMARK    1  A    between atoms: O_4  and  N_7
REMARK    2  A    between atoms: O_4  and  C_22
REMARK    3  A    between atoms: C_8  and  C_10
REMARK    4  A    between atoms: C_9  and  C_15
REMARK    5  A    between atoms: C_16  and  C_20
REMARK    6  A    between atoms: C_21  and  C_22
REMARK                            x       y       z     vdW  Elec       q    Type
REMARK                         _______ _______ _______ _____ _____    ______ ____
ROOT
ATOM      1  S   UNL     1       8.202  10.355   2.597  0.00  0.00    +0.000 S 
ATOM      2  N   UNL     1      10.161   8.899   3.406  0.00  0.00    +0.000 N 
ATOM      3  N   UNL     1       8.446   8.651   4.814  0.00  0.00    +0.000 NA
ATOM      4  C   UNL     1       9.527   7.885   5.226  0.00  0.00    +0.000 A 
ATOM      5  C   UNL     1      10.620   8.020   4.360  0.00  0.00    +0.000 A 
ATOM      6  C   UNL     1       8.890   9.249   3.748  0.00  0.00    +0.000 A 
ATOM      7  C   UNL     1      10.615   9.456   2.226  0.00  0.00    +0.000 A 
ATOM      8  C   UNL     1       9.707  10.274   1.672  0.00  0.00    +0.000 A 
ENDROOT
BRANCH   4   9
ATOM      9  C   UNL     1       9.451   7.044   6.414  0.00  0.00    +0.000 A 
ATOM     10  C   UNL     1       9.764   5.681   6.315  0.00  0.00    +0.000 A 
ATOM     11  C   UNL     1       9.053   7.548   7.659  0.00  0.00    +0.000 A 
ATOM     12  C   UNL     1       9.372   5.372   8.691  0.00  0.00    +0.000 A 
ATOM     13  C   UNL     1       9.727   4.853   7.442  0.00  0.00    +0.000 A 
ATOM     14  C   UNL     1       9.028   6.724   8.788  0.00  0.00    +0.000 A 
ATOM     15  C   UNL     1       9.343   4.506   9.915  0.00  0.00    +0.000 C 
ENDBRANCH   4   9
BRANCH   5  17
ATOM     16  N   UNL     1      12.207   6.252   3.736  0.00  0.00    +0.000 NA
ATOM     17  C   UNL     1      11.891   7.350   4.360  0.00  0.00    +0.000 C 
BRANCH  16  18
ATOM     18  O   UNL     1      11.179   5.828   2.886  0.00  0.00    +0.000 OA
BRANCH  18  19
ATOM     19  C   UNL     1      11.206   4.406   2.752  0.00  0.00    +0.000 C 
BRANCH  19  22
ATOM     20 CL   UNL     1       9.975   4.622  -2.314  0.00  0.00    +0.000 Cl
ATOM     21 CL   UNL     1      12.759   3.054  -2.931  0.00  0.00    +0.000 Cl
ATOM     22  C   UNL     1      11.563   4.098   1.318  0.00  0.00    +0.000 A 
ATOM     23  C   UNL     1      10.716   4.452   0.261  0.00  0.00    +0.000 A 
ATOM     24  C   UNL     1      12.770   3.438   1.035  0.00  0.00    +0.000 A 
ATOM     25  C   UNL     1      11.068   4.147  -1.060  0.00  0.00    +0.000 A 
ATOM     26  C   UNL     1      13.122   3.133  -0.280  0.00  0.00    +0.000 A 
ATOM     27  C   UNL     1      12.271   3.480  -1.330  0.00  0.00    +0.000 A 
ENDBRANCH  19  22
ENDBRANCH  18  19
ENDBRANCH  16  18
ENDBRANCH   5  17
TORSDOF 5
ENDMDL
MODEL 4
REMARK VINA RESULT:      -6.0      2.712      4.815
REMARK  Name = 157888353
REMARK  6 active torsions:
REMARK  status: ('A' for Active; 'I' for Inactive)
REMARK    1  A    between atoms: O_4  and  N_7
REMARK    2  A    between atoms: O_4  and  C_22
REMARK    3  A    between atoms: C_8  and  C_10
REMARK    4  A    between atoms: C_9  and  C_15
REMARK    5  A    between atoms: C_16  and  C_20
REMARK    6  A    between atoms: C_21  and  C_22
REMARK                            x       y       z     vdW  Elec       q    Type
REMARK                         _______ _______ _______ _____ _____    ______ ____
ROOT
ATOM      1  S   UNL     1      -5.535 -12.775   7.772  0.00  0.00    +0.000 S 
ATOM      2  N   UNL     1      -5.809 -10.904   9.514  0.00  0.00    +0.000 N 
ATOM      3  N   UNL     1      -4.183 -12.282  10.181  0.00  0.00    +0.000 NA
ATOM      4  C   UNL     1      -4.365 -11.263  11.105  0.00  0.00    +0.000 A 
ATOM      5  C   UNL     1      -5.380 -10.381  10.713  0.00  0.00    +0.000 A 
ATOM      6  C   UNL     1      -5.083 -12.032   9.276  0.00  0.00    +0.000 A 
ATOM      7  C   UNL     1      -6.707 -10.575   8.517  0.00  0.00    +0.000 A 
ATOM      8  C   UNL     1      -6.707 -11.475   7.522  0.00  0.00    +0.000 A 
ENDROOT
BRANCH   4   9
ATOM      9  C   UNL     1      -3.542 -11.172  12.305  0.00  0.00    +0.000 A 
ATOM     10  C   UNL     1      -2.487 -10.250  12.348  0.00  0.00    +0.000 A 
ATOM     11  C   UNL     1      -3.755 -11.995  13.418  0.00  0.00    +0.000 A 
ATOM     12  C   UNL     1      -1.942 -10.912  14.619  0.00  0.00    +0.000 A 
ATOM     13  C   UNL     1      -1.696 -10.119  13.494  0.00  0.00    +0.000 A 
ATOM     14  C   UNL     1      -2.973 -11.856  14.569  0.00  0.00    +0.000 A 
ATOM     15  C   UNL     1      -1.118 -10.775  15.864  0.00  0.00    +0.000 C 
ENDBRANCH   4   9
BRANCH   5  17
ATOM     16  N   UNL     1      -6.611  -9.029  12.353  0.00  0.00    +0.000 NA
ATOM     17  C   UNL     1      -5.831  -9.159  11.319  0.00  0.00    +0.000 C 
BRANCH  16  18
ATOM     18  O   UNL     1      -6.874 -10.264  12.959  0.00  0.00    +0.000 OA
BRANCH  18  19
ATOM     19  C   UNL     1      -7.578 -10.069  14.186  0.00  0.00    +0.000 C 
BRANCH  19  22
ATOM     20 CL   UNL     1      -5.985 -13.918  17.329  0.00  0.00    +0.000 Cl
ATOM     21 CL   UNL     1      -3.934 -11.791  18.691  0.00  0.00    +0.000 Cl
ATOM     22  C   UNL     1      -6.676 -10.542  15.301  0.00  0.00    +0.000 A 
ATOM     23  C   UNL     1      -6.721 -11.861  15.768  0.00  0.00    +0.000 A 
ATOM     24  C   UNL     1      -5.773  -9.639  15.886  0.00  0.00    +0.000 A 
ATOM     25  C   UNL     1      -5.878 -12.272  16.809  0.00  0.00    +0.000 A 
ATOM     26  C   UNL     1      -4.933 -10.047  16.922  0.00  0.00    +0.000 A 
ATOM     27  C   UNL     1      -4.987 -11.360  17.391  0.00  0.00    +0.000 A 
ENDBRANCH  19  22
ENDBRANCH  18  19
ENDBRANCH  16  18
ENDBRANCH   5  17
TORSDOF 5
ENDMDL
MODEL 5
REMARK VINA RESULT:      -6.0      3.532      6.911
REMARK  Name = 157888353
REMARK  6 active torsions:
REMARK  status: ('A' for Active; 'I' for Inactive)
REMARK    1  A    between atoms: O_4  and  N_7
REMARK    2  A    between atoms: O_4  and  C_22
REMARK    3  A    between atoms: C_8  and  C_10
REMARK    4  A    between atoms: C_9  and  C_15
REMARK    5  A    between atoms: C_16  and  C_20
REMARK    6  A    between atoms: C_21  and  C_22
REMARK                            x       y       z     vdW  Elec       q    Type
REMARK                         _______ _______ _______ _____ _____    ______ ____
ROOT
ATOM      1  S   UNL     1      -7.238 -11.739  16.295  0.00  0.00    +0.000 S 
ATOM      2  N   UNL     1      -4.730 -11.380  15.857  0.00  0.00    +0.000 N 
ATOM      3  N   UNL     1      -5.369 -13.285  14.883  0.00  0.00    +0.000 NA
ATOM      4  C   UNL     1      -4.015 -13.063  14.675  0.00  0.00    +0.000 A 
ATOM      5  C   UNL     1      -3.585 -11.873  15.275  0.00  0.00    +0.000 A 
ATOM      6  C   UNL     1      -5.731 -12.270  15.611  0.00  0.00    +0.000 A 
ATOM      7  C   UNL     1      -5.119 -10.251  16.552  0.00  0.00    +0.000 A 
ATOM      8  C   UNL     1      -6.420 -10.287  16.883  0.00  0.00    +0.000 A 
ENDROOT
BRANCH   4   9
ATOM      9  C   UNL     1      -3.208 -13.990  13.891  0.00  0.00    +0.000 A 
ATOM     10  C   UNL     1      -3.373 -14.042  12.500  0.00  0.00    +0.000 A 
ATOM     11  C   UNL     1      -2.278 -14.853  14.485  0.00  0.00    +0.000 A 
ATOM     12  C   UNL     1      -1.637 -15.729  12.311  0.00  0.00    +0.000 A 
ATOM     13  C   UNL     1      -2.594 -14.901  11.717  0.00  0.00    +0.000 A 
ATOM     14  C   UNL     1      -1.491 -15.703  13.702  0.00  0.00    +0.000 A 
ATOM     15  C   UNL     1      -0.779 -16.643  11.489  0.00  0.00    +0.000 C 
ENDBRANCH   4   9
BRANCH   5  17
ATOM     16  N   UNL     1      -1.761 -10.605  14.227  0.00  0.00    +0.000 NA
ATOM     17  C   UNL     1      -2.302 -11.226  15.235  0.00  0.00    +0.000 C 
BRANCH  16  18
ATOM     18  O   UNL     1      -2.654 -10.482  13.156  0.00  0.00    +0.000 OA
BRANCH  18  19
ATOM     19  C   UNL     1      -1.955 -10.601  11.917  0.00  0.00    +0.000 C 
BRANCH  19  22
ATOM     20 CL   UNL     1      -5.538 -12.622   8.706  0.00  0.00    +0.000 Cl
ATOM     21 CL   UNL     1      -5.920  -9.641   7.456  0.00  0.00    +0.000 Cl
ATOM     22  C   UNL     1      -2.964 -10.401  10.812  0.00  0.00    +0.000 A 
ATOM     23  C   UNL     1      -3.716 -11.468  10.306  0.00  0.00    +0.000 A 
ATOM     24  C   UNL     1      -3.153  -9.117  10.275  0.00  0.00    +0.000 A 
ATOM     25  C   UNL     1      -4.640 -11.257   9.275  0.00  0.00    +0.000 A 
ATOM     26  C   UNL     1      -4.073  -8.904   9.249  0.00  0.00    +0.000 A 
ATOM     27  C   UNL     1      -4.814  -9.973   8.741  0.00  0.00    +0.000 A 
ENDBRANCH  19  22
ENDBRANCH  18  19
ENDBRANCH  16  18
ENDBRANCH   5  17
TORSDOF 5
ENDMDL
MODEL 6
REMARK VINA RESULT:      -5.9      5.033      8.060
REMARK  Name = 157888353
REMARK  6 active torsions:
REMARK  status: ('A' for Active; 'I' for Inactive)
REMARK    1  A    between atoms: O_4  and  N_7
REMARK    2  A    between atoms: O_4  and  C_22
REMARK    3  A    between atoms: C_8  and  C_10
REMARK    4  A    between atoms: C_9  and  C_15
REMARK    5  A    between atoms: C_16  and  C_20
REMARK    6  A    between atoms: C_21  and  C_22
REMARK                            x       y       z     vdW  Elec       q    Type
REMARK                         _______ _______ _______ _____ _____    ______ ____
ROOT
ATOM      1  S   UNL     1     -10.814 -12.594  20.495  0.00  0.00    +0.000 S 
ATOM      2  N   UNL     1     -10.009 -10.667  18.995  0.00  0.00    +0.000 N 
ATOM      3  N   UNL     1      -8.320 -12.093  19.309  0.00  0.00    +0.000 NA
ATOM      4  C   UNL     1      -7.917 -11.032  18.511  0.00  0.00    +0.000 A 
ATOM      5  C   UNL     1      -8.958 -10.120  18.296  0.00  0.00    +0.000 A 
ATOM      6  C   UNL     1      -9.558 -11.807  19.587  0.00  0.00    +0.000 A 
ATOM      7  C   UNL     1     -11.348 -10.397  19.206  0.00  0.00    +0.000 A 
ATOM      8  C   UNL     1     -11.927 -11.312  20.000  0.00  0.00    +0.000 A 
ENDROOT
BRANCH   4   9
ATOM      9  C   UNL     1      -6.564 -10.959  17.975  0.00  0.00    +0.000 A 
ATOM     10  C   UNL     1      -5.674 -12.018  18.202  0.00  0.00    +0.000 A 
ATOM     11  C   UNL     1      -6.109  -9.849  17.251  0.00  0.00    +0.000 A 
ATOM     12  C   UNL     1      -3.943 -10.899  16.919  0.00  0.00    +0.000 A 
ATOM     13  C   UNL     1      -4.377 -11.991  17.678  0.00  0.00    +0.000 A 
ATOM     14  C   UNL     1      -4.817  -9.826  16.717  0.00  0.00    +0.000 A 
ATOM     15  C   UNL     1      -2.564 -10.858  16.333  0.00  0.00    +0.000 C 
ENDBRANCH   4   9
BRANCH   5  17
ATOM     16  N   UNL     1      -9.233  -8.883  16.190  0.00  0.00    +0.000 NA
ATOM     17  C   UNL     1      -9.003  -8.943  17.471  0.00  0.00    +0.000 C 
BRANCH  16  18
ATOM     18  O   UNL     1      -9.604 -10.130  15.673  0.00  0.00    +0.000 OA
BRANCH  18  19
ATOM     19  C   UNL     1      -9.229 -10.224  14.299  0.00  0.00    +0.000 C 
BRANCH  19  22
ATOM     20 CL   UNL     1      -4.241 -10.528  12.796  0.00  0.00    +0.000 Cl
ATOM     21 CL   UNL     1      -4.158 -13.509  14.100  0.00  0.00    +0.000 Cl
ATOM     22  C   UNL     1      -7.939 -11.007  14.239  0.00  0.00    +0.000 A 
ATOM     23  C   UNL     1      -6.796 -10.488  13.620  0.00  0.00    +0.000 A 
ATOM     24  C   UNL     1      -7.883 -12.287  14.814  0.00  0.00    +0.000 A 
ATOM     25  C   UNL     1      -5.614 -11.239  13.571  0.00  0.00    +0.000 A 
ATOM     26  C   UNL     1      -6.708 -13.036  14.766  0.00  0.00    +0.000 A 
ATOM     27  C   UNL     1      -5.573 -12.519  14.140  0.00  0.00    +0.000 A 
ENDBRANCH  19  22
ENDBRANCH  18  19
ENDBRANCH  16  18
ENDBRANCH   5  17
TORSDOF 5
ENDMDL
MODEL 7
REMARK VINA RESULT:      -5.8     21.438     24.111
REMARK  Name = 157888353
REMARK  6 active torsions:
REMARK  status: ('A' for Active; 'I' for Inactive)
REMARK    1  A    between atoms: O_4  and  N_7
REMARK    2  A    between atoms: O_4  and  C_22
REMARK    3  A    between atoms: C_8  and  C_10
REMARK    4  A    between atoms: C_9  and  C_15
REMARK    5  A    between atoms: C_16  and  C_20
REMARK    6  A    between atoms: C_21  and  C_22
REMARK                            x       y       z     vdW  Elec       q    Type
REMARK                         _______ _______ _______ _____ _____    ______ ____
ROOT
ATOM      1  S   UNL     1     -18.537   8.193  19.395  0.00  0.00    +0.000 S 
ATOM      2  N   UNL     1     -16.570   7.099  20.638  0.00  0.00    +0.000 N 
ATOM      3  N   UNL     1     -16.611   9.278  21.124  0.00  0.00    +0.000 NA
ATOM      4  C   UNL     1     -15.553   8.656  21.771  0.00  0.00    +0.000 A 
ATOM      5  C   UNL     1     -15.502   7.286  21.486  0.00  0.00    +0.000 A 
ATOM      6  C   UNL     1     -17.159   8.312  20.448  0.00  0.00    +0.000 A 
ATOM      7  C   UNL     1     -17.196   6.046  19.999  0.00  0.00    +0.000 A 
ATOM      8  C   UNL     1     -18.251   6.452  19.274  0.00  0.00    +0.000 A 
ENDROOT
BRANCH   4   9
ATOM      9  C   UNL     1     -14.659   9.401  22.650  0.00  0.00    +0.000 A 
ATOM     10  C   UNL     1     -15.004   9.573  23.998  0.00  0.00    +0.000 A 
ATOM     11  C   UNL     1     -13.468   9.973  22.188  0.00  0.00    +0.000 A 
ATOM     12  C   UNL     1     -12.946  10.790  24.416  0.00  0.00    +0.000 A 
ATOM     13  C   UNL     1     -14.155  10.258  24.874  0.00  0.00    +0.000 A 
ATOM     14  C   UNL     1     -12.613  10.648  23.065  0.00  0.00    +0.000 A 
ATOM     15  C   UNL     1     -12.013  11.513  25.341  0.00  0.00    +0.000 C 
ENDBRANCH   4   9
BRANCH   5  17
ATOM     16  N   UNL     1     -13.448   5.942  21.582  0.00  0.00    +0.000 NA
ATOM     17  C   UNL     1     -14.637   6.262  22.005  0.00  0.00    +0.000 C 
BRANCH  16  18
ATOM     18  O   UNL     1     -12.988   6.837  20.608  0.00  0.00    +0.000 OA
BRANCH  18  19
ATOM     19  C   UNL     1     -11.561   6.824  20.562  0.00  0.00    +0.000 C 
BRANCH  19  22
ATOM     20 CL   UNL     1     -10.593   8.111  15.599  0.00  0.00    +0.000 Cl
ATOM     21 CL   UNL     1      -9.789  11.082  16.656  0.00  0.00    +0.000 Cl
ATOM     22  C   UNL     1     -11.135   7.862  19.553  0.00  0.00    +0.000 A 
ATOM     23  C   UNL     1     -11.060   7.567  18.186  0.00  0.00    +0.000 A 
ATOM     24  C   UNL     1     -10.803   9.154  19.992  0.00  0.00    +0.000 A 
ATOM     25  C   UNL     1     -10.654   8.547  17.271  0.00  0.00    +0.000 A 
ATOM     26  C   UNL     1     -10.399  10.131  19.083  0.00  0.00    +0.000 A 
ATOM     27  C   UNL     1     -10.317   9.831  17.722  0.00  0.00    +0.000 A 
ENDBRANCH  19  22
ENDBRANCH  18  19
ENDBRANCH  16  18
ENDBRANCH   5  17
TORSDOF 5
ENDMDL
MODEL 8
REMARK VINA RESULT:      -5.7      3.563      6.901
REMARK  Name = 157888353
REMARK  6 active torsions:
REMARK  status: ('A' for Active; 'I' for Inactive)
REMARK    1  A    between atoms: O_4  and  N_7
REMARK    2  A    between atoms: O_4  and  C_22
REMARK    3  A    between atoms: C_8  and  C_10
REMARK    4  A    between atoms: C_9  and  C_15
REMARK    5  A    between atoms: C_16  and  C_20
REMARK    6  A    between atoms: C_21  and  C_22
REMARK                            x       y       z     vdW  Elec       q    Type
REMARK                         _______ _______ _______ _____ _____    ______ ____
ROOT
ATOM      1  S   UNL     1      -8.678 -10.682  15.063  0.00  0.00    +0.000 S 
ATOM      2  N   UNL     1      -6.634 -11.101  16.567  0.00  0.00    +0.000 N 
ATOM      3  N   UNL     1      -6.811 -12.777  15.103  0.00  0.00    +0.000 NA
ATOM      4  C   UNL     1      -5.722 -12.977  15.939  0.00  0.00    +0.000 A 
ATOM      5  C   UNL     1      -5.586 -11.939  16.870  0.00  0.00    +0.000 A 
ATOM      6  C   UNL     1      -7.327 -11.667  15.540  0.00  0.00    +0.000 A 
ATOM      7  C   UNL     1      -7.117  -9.875  16.983  0.00  0.00    +0.000 A 
ATOM      8  C   UNL     1      -8.214  -9.509  16.302  0.00  0.00    +0.000 A 
ENDROOT
BRANCH   4   9
ATOM      9  C   UNL     1      -4.854 -14.138  15.789  0.00  0.00    +0.000 A 
ATOM     10  C   UNL     1      -3.954 -14.191  14.716  0.00  0.00    +0.000 A 
ATOM     11  C   UNL     1      -4.901 -15.222  16.675  0.00  0.00    +0.000 A 
ATOM     12  C   UNL     1      -3.109 -16.338  15.472  0.00  0.00    +0.000 A 
ATOM     13  C   UNL     1      -3.088 -15.279  14.559  0.00  0.00    +0.000 A 
ATOM     14  C   UNL     1      -4.027 -16.304  16.526  0.00  0.00    +0.000 A 
ATOM     15  C   UNL     1      -2.177 -17.505  15.334  0.00  0.00    +0.000 C 
ENDBRANCH   4   9
BRANCH   5  17
ATOM     16  N   UNL     1      -3.452 -11.038  17.692  0.00  0.00    +0.000 NA
ATOM     17  C   UNL     1      -4.561 -11.702  17.850  0.00  0.00    +0.000 C 
BRANCH  16  18
ATOM     18  O   UNL     1      -3.405 -10.404  16.444  0.00  0.00    +0.000 OA
BRANCH  18  19
ATOM     19  C   UNL     1      -2.408 -11.012  15.622  0.00  0.00    +0.000 C 
BRANCH  19  22
ATOM     20 CL   UNL     1      -6.077 -10.163  12.009  0.00  0.00    +0.000 Cl
ATOM     21 CL   UNL     1      -3.682  -9.860   9.826  0.00  0.00    +0.000 Cl
ATOM     22  C   UNL     1      -2.768 -10.712  14.186  0.00  0.00    +0.000 A 
ATOM     23  C   UNL     1      -4.101 -10.585  13.778  0.00  0.00    +0.000 A 
ATOM     24  C   UNL     1      -1.744 -10.561  13.237  0.00  0.00    +0.000 A 
ATOM     25  C   UNL     1      -4.408 -10.314  12.438  0.00  0.00    +0.000 A 
ATOM     26  C   UNL     1      -2.048 -10.291  11.903  0.00  0.00    +0.000 A 
ATOM     27  C   UNL     1      -3.379 -10.173  11.497  0.00  0.00    +0.000 A 
ENDBRANCH  19  22
ENDBRANCH  18  19
ENDBRANCH  16  18
ENDBRANCH   5  17
TORSDOF 5
ENDMDL
MODEL 9
REMARK VINA RESULT:      -5.7     25.645     27.909
REMARK  Name = 157888353
REMARK  6 active torsions:
REMARK  status: ('A' for Active; 'I' for Inactive)
REMARK    1  A    between atoms: O_4  and  N_7
REMARK    2  A    between atoms: O_4  and  C_22
REMARK    3  A    between atoms: C_8  and  C_10
REMARK    4  A    between atoms: C_9  and  C_15
REMARK    5  A    between atoms: C_16  and  C_20
REMARK    6  A    between atoms: C_21  and  C_22
REMARK                            x       y       z     vdW  Elec       q    Type
REMARK                         _______ _______ _______ _____ _____    ______ ____
ROOT
ATOM      1  S   UNL     1      22.461  -2.376  29.646  0.00  0.00    +0.000 S 
ATOM      2  N   UNL     1      20.056  -3.218  29.299  0.00  0.00    +0.000 N 
ATOM      3  N   UNL     1      20.719  -2.140  27.459  0.00  0.00    +0.000 NA
ATOM      4  C   UNL     1      19.418  -2.600  27.311  0.00  0.00    +0.000 A 
ATOM      5  C   UNL     1      18.975  -3.282  28.451  0.00  0.00    +0.000 A 
ATOM      6  C   UNL     1      21.033  -2.511  28.665  0.00  0.00    +0.000 A 
ATOM      7  C   UNL     1      20.408  -3.698  30.546  0.00  0.00    +0.000 A 
ATOM      8  C   UNL     1      21.649  -3.325  30.897  0.00  0.00    +0.000 A 
ENDROOT
BRANCH   4   9
ATOM      9  C   UNL     1      18.674  -2.385  26.075  0.00  0.00    +0.000 A 
ATOM     10  C   UNL     1      17.331  -1.988  26.140  0.00  0.00    +0.000 A 
ATOM     11  C   UNL     1      19.252  -2.582  24.815  0.00  0.00    +0.000 A 
ATOM     12  C   UNL     1      17.194  -1.902  23.718  0.00  0.00    +0.000 A 
ATOM     13  C   UNL     1      16.598  -1.746  24.973  0.00  0.00    +0.000 A 
ATOM     14  C   UNL     1      18.523  -2.329  23.648  0.00  0.00    +0.000 A 
ATOM     15  C   UNL     1      16.431  -1.631  22.455  0.00  0.00    +0.000 C 
ENDBRANCH   4   9
BRANCH   5  17
ATOM     16  N   UNL     1      17.341  -5.088  28.125  0.00  0.00    +0.000 NA
ATOM     17  C   UNL     1      17.745  -3.987  28.690  0.00  0.00    +0.000 C 
BRANCH  16  18
ATOM     18  O   UNL     1      18.337  -5.649  27.317  0.00  0.00    +0.000 OA
BRANCH  18  19
ATOM     19  C   UNL     1      17.765  -6.604  26.423  0.00  0.00    +0.000 C 
BRANCH  19  22
ATOM     20 CL   UNL     1      21.875  -5.939  23.278  0.00  0.00    +0.000 Cl
ATOM     21 CL   UNL     1      19.775  -5.363  20.859  0.00  0.00    +0.000 Cl
ATOM     22  C   UNL     1      18.308  -6.310  25.045  0.00  0.00    +0.000 A 
ATOM     23  C   UNL     1      19.685  -6.260  24.797  0.00  0.00    +0.000 A 
ATOM     24  C   UNL     1      17.413  -6.077  23.988  0.00  0.00    +0.000 A 
ATOM     25  C   UNL     1      20.162  -5.977  23.510  0.00  0.00    +0.000 A 
ATOM     26  C   UNL     1      17.886  -5.795  22.707  0.00  0.00    +0.000 A 
ATOM     27  C   UNL     1      19.260  -5.738  22.465  0.00  0.00    +0.000 A 
ENDBRANCH  19  22
ENDBRANCH  18  19
ENDBRANCH  16  18
ENDBRANCH   5  17
TORSDOF 5
ENDMDL
MODEL 10
REMARK VINA RESULT:      -5.7     24.143     26.501
REMARK  Name = 157888353
REMARK  6 active torsions:
REMARK  status: ('A' for Active; 'I' for Inactive)
REMARK    1  A    between atoms: O_4  and  N_7
REMARK    2  A    between atoms: O_4  and  C_22
REMARK    3  A    between atoms: C_8  and  C_10
REMARK    4  A    between atoms: C_9  and  C_15
REMARK    5  A    between atoms: C_16  and  C_20
REMARK    6  A    between atoms: C_21  and  C_22
REMARK                            x       y       z     vdW  Elec       q    Type
REMARK                         _______ _______ _______ _____ _____    ______ ____
ROOT
ATOM      1  S   UNL     1      12.149  12.176   5.246  0.00  0.00    +0.000 S 
ATOM      2  N   UNL     1      10.030  10.750   4.944  0.00  0.00    +0.000 N 
ATOM      3  N   UNL     1      11.348   9.777   6.462  0.00  0.00    +0.000 NA
ATOM      4  C   UNL     1      10.196   9.027   6.266  0.00  0.00    +0.000 A 
ATOM      5  C   UNL     1       9.349   9.615   5.318  0.00  0.00    +0.000 A 
ATOM      6  C   UNL     1      11.205  10.769   5.633  0.00  0.00    +0.000 A 
ATOM      7  C   UNL     1       9.823  11.845   4.127  0.00  0.00    +0.000 A 
ATOM      8  C   UNL     1      10.862  12.695   4.151  0.00  0.00    +0.000 A 
ENDROOT
BRANCH   4   9
ATOM      9  C   UNL     1       9.955   7.800   7.014  0.00  0.00    +0.000 A 
ATOM     10  C   UNL     1      10.664   6.638   6.678  0.00  0.00    +0.000 A 
ATOM     11  C   UNL     1       9.017   7.733   8.052  0.00  0.00    +0.000 A 
ATOM     12  C   UNL     1       9.570   5.402   8.458  0.00  0.00    +0.000 A 
ATOM     13  C   UNL     1      10.476   5.451   7.395  0.00  0.00    +0.000 A 
ATOM     14  C   UNL     1       8.837   6.550   8.776  0.00  0.00    +0.000 A 
ATOM     15  C   UNL     1       9.366   4.145   9.251  0.00  0.00    +0.000 C 
ENDBRANCH   4   9
BRANCH   5  17
ATOM     16  N   UNL     1       7.720   8.234   4.103  0.00  0.00    +0.000 NA
ATOM     17  C   UNL     1       8.035   9.227   4.883  0.00  0.00    +0.000 C 
BRANCH  16  18
ATOM     18  O   UNL     1       8.830   7.428   3.821  0.00  0.00    +0.000 OA
BRANCH  18  19
ATOM     19  C   UNL     1       9.098   7.434   2.418  0.00  0.00    +0.000 C 
BRANCH  19  22
ATOM     20 CL   UNL     1      12.562   5.242  -0.810  0.00  0.00    +0.000 Cl
ATOM     21 CL   UNL     1      13.103   3.003   1.489  0.00  0.00    +0.000 Cl
ATOM     22  C   UNL     1      10.115   6.351   2.152  0.00  0.00    +0.000 A 
ATOM     23  C   UNL     1      10.808   6.280   0.936  0.00  0.00    +0.000 A 
ATOM     24  C   UNL     1      10.372   5.388   3.141  0.00  0.00    +0.000 A 
ATOM     25  C   UNL     1      11.741   5.260   0.712  0.00  0.00    +0.000 A 
ATOM     26  C   UNL     1      11.301   4.372   2.919  0.00  0.00    +0.000 A 
ATOM     27  C   UNL     1      11.983   4.300   1.704  0.00  0.00    +0.000 A 
ENDBRANCH  19  22
ENDBRANCH  18  19
ENDBRANCH  16  18
ENDBRANCH   5  17
TORSDOF 5
ENDMDL
