MODEL 1
REMARK VINA RESULT:      -5.8      0.000      0.000
REMARK  Name = 157888353
REMARK  6 active torsions:
REMARK  status: ('A' for Active; 'I' for Inactive)
REMARK    1  A    between atoms: O_4  and  N_7
REMARK    2  A    between atoms: O_4  and  C_22
REMARK    3  A    between atoms: C_8  and  C_10
REMARK    4  A    between atoms: C_9  and  C_15
REMARK    5  A    between atoms: C_16  and  C_20
REMARK    6  A    between atoms: C_21  and  C_22
REMARK                            x       y       z     vdW  Elec       q    Type
REMARK                         _______ _______ _______ _____ _____    ______ ____
ROOT
ATOM      1  S   UNL     1      -4.795   5.096 -54.679  0.00  0.00    +0.000 S 
ATOM      2  N   UNL     1      -4.235   2.615 -55.057  0.00  0.00    +0.000 N 
ATOM      3  N   UNL     1      -5.935   2.762 -53.617  0.00  0.00    +0.000 NA
ATOM      4  C   UNL     1      -5.598   1.434 -53.836  0.00  0.00    +0.000 A 
ATOM      5  C   UNL     1      -4.533   1.310 -54.738  0.00  0.00    +0.000 A 
ATOM      6  C   UNL     1      -5.076   3.414 -54.344  0.00  0.00    +0.000 A 
ATOM      7  C   UNL     1      -3.377   3.290 -55.904  0.00  0.00    +0.000 A 
ATOM      8  C   UNL     1      -3.526   4.621 -55.815  0.00  0.00    +0.000 A 
ENDROOT
BRANCH   4   9
ATOM      9  C   UNL     1      -6.329   0.350 -53.191  0.00  0.00    +0.000 A 
ATOM     10  C   UNL     1      -7.429  -0.224 -53.844  0.00  0.00    +0.000 A 
ATOM     11  C   UNL     1      -5.982  -0.130 -51.922  0.00  0.00    +0.000 A 
ATOM     12  C   UNL     1      -7.756  -1.787 -52.016  0.00  0.00    +0.000 A 
ATOM     13  C   UNL     1      -8.135  -1.284 -53.264  0.00  0.00    +0.000 A 
ATOM     14  C   UNL     1      -6.679  -1.197 -51.347  0.00  0.00    +0.000 A 
ATOM     15  C   UNL     1      -8.487  -2.935 -51.385  0.00  0.00    +0.000 C 
ENDBRANCH   4   9
BRANCH   5  17
ATOM     16  N   UNL     1      -4.284  -0.488 -56.394  0.00  0.00    +0.000 NA
ATOM     17  C   UNL     1      -3.931   0.135 -55.306  0.00  0.00    +0.000 C 
BRANCH  16  18
ATOM     18  O   UNL     1      -5.272   0.216 -57.094  0.00  0.00    +0.000 OA
BRANCH  18  19
ATOM     19  C   UNL     1      -5.511  -0.401 -58.360  0.00  0.00    +0.000 C 
BRANCH  19  22
ATOM     20 CL   UNL     1      -8.221   1.302 -62.481  0.00  0.00    +0.000 Cl
ATOM     21 CL   UNL     1      -6.567   4.095 -62.259  0.00  0.00    +0.000 Cl
ATOM     22  C   UNL     1      -5.813   0.702 -59.345  0.00  0.00    +0.000 A 
ATOM     23  C   UNL     1      -6.767   0.538 -60.357  0.00  0.00    +0.000 A 
ATOM     24  C   UNL     1      -5.119   1.920 -59.251  0.00  0.00    +0.000 A 
ATOM     25  C   UNL     1      -7.023   1.575 -61.263  0.00  0.00    +0.000 A 
ATOM     26  C   UNL     1      -5.373   2.953 -60.153  0.00  0.00    +0.000 A 
ATOM     27  C   UNL     1      -6.319   2.783 -61.165  0.00  0.00    +0.000 A 
ENDBRANCH  19  22
ENDBRANCH  18  19
ENDBRANCH  16  18
ENDBRANCH   5  17
TORSDOF 5
ENDMDL
MODEL 2
REMARK VINA RESULT:      -5.8     16.936     18.056
REMARK  Name = 157888353
REMARK  6 active torsions:
REMARK  status: ('A' for Active; 'I' for Inactive)
REMARK    1  A    between atoms: O_4  and  N_7
REMARK    2  A    between atoms: O_4  and  C_22
REMARK    3  A    between atoms: C_8  and  C_10
REMARK    4  A    between atoms: C_9  and  C_15
REMARK    5  A    between atoms: C_16  and  C_20
REMARK    6  A    between atoms: C_21  and  C_22
REMARK                            x       y       z     vdW  Elec       q    Type
REMARK                         _______ _______ _______ _____ _____    ______ ____
ROOT
ATOM      1  S   UNL     1     -24.317   9.066 -60.141  0.00  0.00    +0.000 S 
ATOM      2  N   UNL     1     -22.337   9.742 -58.647  0.00  0.00    +0.000 N 
ATOM      3  N   UNL     1     -23.895   8.762 -57.384  0.00  0.00    +0.000 NA
ATOM      4  C   UNL     1     -22.814   9.151 -56.606  0.00  0.00    +0.000 A 
ATOM      5  C   UNL     1     -21.818   9.769 -57.373  0.00  0.00    +0.000 A 
ATOM      6  C   UNL     1     -23.567   9.163 -58.576  0.00  0.00    +0.000 A 
ATOM      7  C   UNL     1     -21.936  10.091 -59.922  0.00  0.00    +0.000 A 
ATOM      8  C   UNL     1     -22.878   9.820 -60.839  0.00  0.00    +0.000 A 
ENDROOT
BRANCH   4   9
ATOM      9  C   UNL     1     -22.778   8.888 -55.172  0.00  0.00    +0.000 A 
ATOM     10  C   UNL     1     -23.373   9.800 -54.290  0.00  0.00    +0.000 A 
ATOM     11  C   UNL     1     -22.147   7.757 -54.638  0.00  0.00    +0.000 A 
ATOM     12  C   UNL     1     -22.787   8.411 -52.387  0.00  0.00    +0.000 A 
ATOM     13  C   UNL     1     -23.380   9.564 -52.911  0.00  0.00    +0.000 A 
ATOM     14  C   UNL     1     -22.164   7.514 -53.261  0.00  0.00    +0.000 A 
ATOM     15  C   UNL     1     -22.799   8.129 -50.914  0.00  0.00    +0.000 C 
ENDBRANCH   4   9
BRANCH   5  17
ATOM     16  N   UNL     1     -19.375   9.624 -57.151  0.00  0.00    +0.000 NA
ATOM     17  C   UNL     1     -20.513  10.237 -56.994  0.00  0.00    +0.000 C 
BRANCH  16  18
ATOM     18  O   UNL     1     -19.520   8.454 -57.907  0.00  0.00    +0.000 OA
BRANCH  18  19
ATOM     19  C   UNL     1     -19.062   7.327 -57.159  0.00  0.00    +0.000 C 
BRANCH  19  22
ATOM     20 CL   UNL     1     -23.212   5.370 -59.644  0.00  0.00    +0.000 Cl
ATOM     21 CL   UNL     1     -23.271   2.997 -57.418  0.00  0.00    +0.000 Cl
ATOM     22  C   UNL     1     -20.122   6.257 -57.266  0.00  0.00    +0.000 A 
ATOM     23  C   UNL     1     -21.084   6.280 -58.283  0.00  0.00    +0.000 A 
ATOM     24  C   UNL     1     -20.149   5.217 -56.323  0.00  0.00    +0.000 A 
ATOM     25  C   UNL     1     -22.062   5.280 -58.355  0.00  0.00    +0.000 A 
ATOM     26  C   UNL     1     -21.122   4.220 -56.393  0.00  0.00    +0.000 A 
ATOM     27  C   UNL     1     -22.084   4.251 -57.404  0.00  0.00    +0.000 A 
ENDBRANCH  19  22
ENDBRANCH  18  19
ENDBRANCH  16  18
ENDBRANCH   5  17
TORSDOF 5
ENDMDL
MODEL 3
REMARK VINA RESULT:      -5.7     16.769     17.845
REMARK  Name = 157888353
REMARK  6 active torsions:
REMARK  status: ('A' for Active; 'I' for Inactive)
REMARK    1  A    between atoms: O_4  and  N_7
REMARK    2  A    between atoms: O_4  and  C_22
REMARK    3  A    between atoms: C_8  and  C_10
REMARK    4  A    between atoms: C_9  and  C_15
REMARK    5  A    between atoms: C_16  and  C_20
REMARK    6  A    between atoms: C_21  and  C_22
REMARK                            x       y       z     vdW  Elec       q    Type
REMARK                         _______ _______ _______ _____ _____    ______ ____
ROOT
ATOM      1  S   UNL     1     -22.644   9.899 -59.094  0.00  0.00    +0.000 S 
ATOM      2  N   UNL     1     -21.039   8.730 -57.461  0.00  0.00    +0.000 N 
ATOM      3  N   UNL     1     -23.065   8.838 -56.531  0.00  0.00    +0.000 NA
ATOM      4  C   UNL     1     -22.168   8.220 -55.671  0.00  0.00    +0.000 A 
ATOM      5  C   UNL     1     -20.887   8.137 -56.229  0.00  0.00    +0.000 A 
ATOM      6  C   UNL     1     -22.333   9.141 -57.561  0.00  0.00    +0.000 A 
ATOM      7  C   UNL     1     -20.270   8.964 -58.585  0.00  0.00    +0.000 A 
ATOM      8  C   UNL     1     -20.961   9.597 -59.545  0.00  0.00    +0.000 A 
ENDROOT
BRANCH   4   9
ATOM      9  C   UNL     1     -22.590   7.718 -54.368  0.00  0.00    +0.000 A 
ATOM     10  C   UNL     1     -23.528   6.678 -54.301  0.00  0.00    +0.000 A 
ATOM     11  C   UNL     1     -22.104   8.256 -53.170  0.00  0.00    +0.000 A 
ATOM     12  C   UNL     1     -23.411   6.668 -51.877  0.00  0.00    +0.000 A 
ATOM     13  C   UNL     1     -23.933   6.156 -53.068  0.00  0.00    +0.000 A 
ATOM     14  C   UNL     1     -22.499   7.727 -51.938  0.00  0.00    +0.000 A 
ATOM     15  C   UNL     1     -23.817   6.111 -50.545  0.00  0.00    +0.000 C 
ENDBRANCH   4   9
BRANCH   5  17
ATOM     16  N   UNL     1     -19.296   6.286 -55.944  0.00  0.00    +0.000 NA
ATOM     17  C   UNL     1     -19.696   7.506 -55.727  0.00  0.00    +0.000 C 
BRANCH  16  18
ATOM     18  O   UNL     1     -20.099   5.641 -56.892  0.00  0.00    +0.000 OA
BRANCH  18  19
ATOM     19  C   UNL     1     -20.604   4.417 -56.356  0.00  0.00    +0.000 C 
BRANCH  19  22
ATOM     20 CL   UNL     1     -24.640   6.340 -59.047  0.00  0.00    +0.000 Cl
ATOM     21 CL   UNL     1     -26.319   3.688 -58.185  0.00  0.00    +0.000 Cl
ATOM     22  C   UNL     1     -22.025   4.267 -56.843  0.00  0.00    +0.000 A 
ATOM     23  C   UNL     1     -22.635   5.249 -57.634  0.00  0.00    +0.000 A 
ATOM     24  C   UNL     1     -22.756   3.120 -56.494  0.00  0.00    +0.000 A 
ATOM     25  C   UNL     1     -23.957   5.089 -58.067  0.00  0.00    +0.000 A 
ATOM     26  C   UNL     1     -24.073   2.959 -56.924  0.00  0.00    +0.000 A 
ATOM     27  C   UNL     1     -24.680   3.944 -57.706  0.00  0.00    +0.000 A 
ENDBRANCH  19  22
ENDBRANCH  18  19
ENDBRANCH  16  18
ENDBRANCH   5  17
TORSDOF 5
ENDMDL
MODEL 4
REMARK VINA RESULT:      -5.7     20.749     23.729
REMARK  Name = 157888353
REMARK  6 active torsions:
REMARK  status: ('A' for Active; 'I' for Inactive)
REMARK    1  A    between atoms: O_4  and  N_7
REMARK    2  A    between atoms: O_4  and  C_22
REMARK    3  A    between atoms: C_8  and  C_10
REMARK    4  A    between atoms: C_9  and  C_15
REMARK    5  A    between atoms: C_16  and  C_20
REMARK    6  A    between atoms: C_21  and  C_22
REMARK                            x       y       z     vdW  Elec       q    Type
REMARK                         _______ _______ _______ _____ _____    ______ ____
ROOT
ATOM      1  S   UNL     1     -11.404   1.260 -33.024  0.00  0.00    +0.000 S 
ATOM      2  N   UNL     1     -11.773   3.186 -34.688  0.00  0.00    +0.000 N 
ATOM      3  N   UNL     1      -9.581   2.812 -34.487  0.00  0.00    +0.000 NA
ATOM      4  C   UNL     1      -9.816   3.855 -35.372  0.00  0.00    +0.000 A 
ATOM      5  C   UNL     1     -11.185   4.112 -35.519  0.00  0.00    +0.000 A 
ATOM      6  C   UNL     1     -10.774   2.476 -34.095  0.00  0.00    +0.000 A 
ATOM      7  C   UNL     1     -13.049   2.779 -34.350  0.00  0.00    +0.000 A 
ATOM      8  C   UNL     1     -13.039   1.776 -33.458  0.00  0.00    +0.000 A 
ENDROOT
BRANCH   4   9
ATOM      9  C   UNL     1      -8.720   4.535 -36.051  0.00  0.00    +0.000 A 
ATOM     10  C   UNL     1      -8.104   3.921 -37.151  0.00  0.00    +0.000 A 
ATOM     11  C   UNL     1      -8.242   5.781 -35.628  0.00  0.00    +0.000 A 
ATOM     12  C   UNL     1      -6.624   5.824 -37.441  0.00  0.00    +0.000 A 
ATOM     13  C   UNL     1      -7.068   4.560 -37.841  0.00  0.00    +0.000 A 
ATOM     14  C   UNL     1      -7.214   6.425 -36.325  0.00  0.00    +0.000 A 
ATOM     15  C   UNL     1      -5.528   6.534 -38.177  0.00  0.00    +0.000 C 
ENDBRANCH   4   9
BRANCH   5  17
ATOM     16  N   UNL     1     -12.096   6.296 -36.180  0.00  0.00    +0.000 NA
ATOM     17  C   UNL     1     -11.868   5.031 -36.388  0.00  0.00    +0.000 C 
BRANCH  16  18
ATOM     18  O   UNL     1     -11.448   6.754 -35.027  0.00  0.00    +0.000 OA
BRANCH  18  19
ATOM     19  C   UNL     1     -10.949   8.076 -35.235  0.00  0.00    +0.000 C 
BRANCH  19  22
ATOM     20 CL   UNL     1     -12.693  10.298 -30.848  0.00  0.00    +0.000 Cl
ATOM     21 CL   UNL     1      -9.602  10.444 -29.839  0.00  0.00    +0.000 Cl
ATOM     22  C   UNL     1     -10.656   8.664 -33.876  0.00  0.00    +0.000 A 
ATOM     23  C   UNL     1     -11.678   9.162 -33.058  0.00  0.00    +0.000 A 
ATOM     24  C   UNL     1      -9.328   8.717 -33.420  0.00  0.00    +0.000 A 
ATOM     25  C   UNL     1     -11.377   9.709 -31.804  0.00  0.00    +0.000 A 
ATOM     26  C   UNL     1      -9.028   9.262 -32.172  0.00  0.00    +0.000 A 
ATOM     27  C   UNL     1     -10.048   9.765 -31.363  0.00  0.00    +0.000 A 
ENDBRANCH  19  22
ENDBRANCH  18  19
ENDBRANCH  16  18
ENDBRANCH   5  17
TORSDOF 5
ENDMDL
MODEL 5
REMARK VINA RESULT:      -5.7     17.730     18.654
REMARK  Name = 157888353
REMARK  6 active torsions:
REMARK  status: ('A' for Active; 'I' for Inactive)
REMARK    1  A    between atoms: O_4  and  N_7
REMARK    2  A    between atoms: O_4  and  C_22
REMARK    3  A    between atoms: C_8  and  C_10
REMARK    4  A    between atoms: C_9  and  C_15
REMARK    5  A    between atoms: C_16  and  C_20
REMARK    6  A    between atoms: C_21  and  C_22
REMARK                            x       y       z     vdW  Elec       q    Type
REMARK                         _______ _______ _______ _____ _____    ______ ____
ROOT
ATOM      1  S   UNL     1     -23.120  13.934 -52.286  0.00  0.00    +0.000 S 
ATOM      2  N   UNL     1     -22.866  12.871 -54.614  0.00  0.00    +0.000 N 
ATOM      3  N   UNL     1     -23.288  11.261 -53.126  0.00  0.00    +0.000 NA
ATOM      4  C   UNL     1     -23.135  10.721 -54.395  0.00  0.00    +0.000 A 
ATOM      5  C   UNL     1     -22.869  11.710 -55.351  0.00  0.00    +0.000 A 
ATOM      6  C   UNL     1     -23.091  12.532 -53.314  0.00  0.00    +0.000 A 
ATOM      7  C   UNL     1     -22.745  14.228 -54.844  0.00  0.00    +0.000 A 
ATOM      8  C   UNL     1     -22.835  14.941 -53.710  0.00  0.00    +0.000 A 
ENDROOT
BRANCH   4   9
ATOM      9  C   UNL     1     -23.274   9.290 -54.631  0.00  0.00    +0.000 A 
ATOM     10  C   UNL     1     -22.487   8.390 -53.899  0.00  0.00    +0.000 A 
ATOM     11  C   UNL     1     -24.160   8.776 -55.587  0.00  0.00    +0.000 A 
ATOM     12  C   UNL     1     -23.534   6.501 -55.007  0.00  0.00    +0.000 A 
ATOM     13  C   UNL     1     -22.616   7.009 -54.082  0.00  0.00    +0.000 A 
ATOM     14  C   UNL     1     -24.299   7.395 -55.762  0.00  0.00    +0.000 A 
ATOM     15  C   UNL     1     -23.702   5.024 -55.206  0.00  0.00    +0.000 C 
ENDBRANCH   4   9
BRANCH   5  17
ATOM     16  N   UNL     1     -21.655  11.307 -57.449  0.00  0.00    +0.000 NA
ATOM     17  C   UNL     1     -22.730  11.605 -56.778  0.00  0.00    +0.000 C 
BRANCH  16  18
ATOM     18  O   UNL     1     -20.608  10.924 -56.602  0.00  0.00    +0.000 OA
BRANCH  18  19
ATOM     19  C   UNL     1     -19.613  10.215 -57.341  0.00  0.00    +0.000 C 
BRANCH  19  22
ATOM     20 CL   UNL     1     -22.162   5.864 -58.683  0.00  0.00    +0.000 Cl
ATOM     21 CL   UNL     1     -20.527   4.326 -56.327  0.00  0.00    +0.000 Cl
ATOM     22  C   UNL     1     -19.861   8.741 -57.128  0.00  0.00    +0.000 A 
ATOM     23  C   UNL     1     -20.789   8.036 -57.904  0.00  0.00    +0.000 A 
ATOM     24  C   UNL     1     -19.150   8.060 -56.126  0.00  0.00    +0.000 A 
ATOM     25  C   UNL     1     -21.006   6.670 -57.680  0.00  0.00    +0.000 A 
ATOM     26  C   UNL     1     -19.365   6.701 -55.902  0.00  0.00    +0.000 A 
ATOM     27  C   UNL     1     -20.297   6.003 -56.672  0.00  0.00    +0.000 A 
ENDBRANCH  19  22
ENDBRANCH  18  19
ENDBRANCH  16  18
ENDBRANCH   5  17
TORSDOF 5
ENDMDL
MODEL 6
REMARK VINA RESULT:      -5.6     21.852     25.152
REMARK  Name = 157888353
REMARK  6 active torsions:
REMARK  status: ('A' for Active; 'I' for Inactive)
REMARK    1  A    between atoms: O_4  and  N_7
REMARK    2  A    between atoms: O_4  and  C_22
REMARK    3  A    between atoms: C_8  and  C_10
REMARK    4  A    between atoms: C_9  and  C_15
REMARK    5  A    between atoms: C_16  and  C_20
REMARK    6  A    between atoms: C_21  and  C_22
REMARK                            x       y       z     vdW  Elec       q    Type
REMARK                         _______ _______ _______ _____ _____    ______ ____
ROOT
ATOM      1  S   UNL     1     -17.093   8.463 -35.344  0.00  0.00    +0.000 S 
ATOM      2  N   UNL     1     -15.506   7.042 -33.904  0.00  0.00    +0.000 N 
ATOM      3  N   UNL     1     -14.528   7.453 -35.868  0.00  0.00    +0.000 NA
ATOM      4  C   UNL     1     -13.702   6.677 -35.067  0.00  0.00    +0.000 A 
ATOM      5  C   UNL     1     -14.290   6.403 -33.826  0.00  0.00    +0.000 A 
ATOM      6  C   UNL     1     -15.591   7.613 -35.137  0.00  0.00    +0.000 A 
ATOM      7  C   UNL     1     -16.590   7.280 -33.081  0.00  0.00    +0.000 A 
ATOM      8  C   UNL     1     -17.539   8.005 -33.696  0.00  0.00    +0.000 A 
ENDROOT
BRANCH   4   9
ATOM      9  C   UNL     1     -12.381   6.258 -35.522  0.00  0.00    +0.000 A 
ATOM     10  C   UNL     1     -11.263   7.044 -35.208  0.00  0.00    +0.000 A 
ATOM     11  C   UNL     1     -12.190   5.100 -36.285  0.00  0.00    +0.000 A 
ATOM     12  C   UNL     1      -9.790   5.475 -36.330  0.00  0.00    +0.000 A 
ATOM     13  C   UNL     1      -9.979   6.656 -35.605  0.00  0.00    +0.000 A 
ATOM     14  C   UNL     1     -10.905   4.705 -36.673  0.00  0.00    +0.000 A 
ATOM     15  C   UNL     1      -8.420   5.031 -36.750  0.00  0.00    +0.000 C 
ENDBRANCH   4   9
BRANCH   5  17
ATOM     16  N   UNL     1     -13.984   4.491 -32.314  0.00  0.00    +0.000 NA
ATOM     17  C   UNL     1     -13.757   5.720 -32.679  0.00  0.00    +0.000 C 
BRANCH  16  18
ATOM     18  O   UNL     1     -14.723   3.795 -33.278  0.00  0.00    +0.000 OA
BRANCH  18  19
ATOM     19  C   UNL     1     -15.147   2.535 -32.756  0.00  0.00    +0.000 C 
BRANCH  19  22
ATOM     20 CL   UNL     1     -19.658   5.150 -32.564  0.00  0.00    +0.000 Cl
ATOM     21 CL   UNL     1     -21.185   2.293 -32.881  0.00  0.00    +0.000 Cl
ATOM     22  C   UNL     1     -16.656   2.519 -32.795  0.00  0.00    +0.000 A 
ATOM     23  C   UNL     1     -17.403   3.697 -32.677  0.00  0.00    +0.000 A 
ATOM     24  C   UNL     1     -17.328   1.295 -32.949  0.00  0.00    +0.000 A 
ATOM     25  C   UNL     1     -18.803   3.653 -32.709  0.00  0.00    +0.000 A 
ATOM     26  C   UNL     1     -18.722   1.250 -32.981  0.00  0.00    +0.000 A 
ATOM     27  C   UNL     1     -19.464   2.426 -32.855  0.00  0.00    +0.000 A 
ENDBRANCH  19  22
ENDBRANCH  18  19
ENDBRANCH  16  18
ENDBRANCH   5  17
TORSDOF 5
ENDMDL
MODEL 7
REMARK VINA RESULT:      -5.5      4.584      6.527
REMARK  Name = 157888353
REMARK  6 active torsions:
REMARK  status: ('A' for Active; 'I' for Inactive)
REMARK    1  A    between atoms: O_4  and  N_7
REMARK    2  A    between atoms: O_4  and  C_22
REMARK    3  A    between atoms: C_8  and  C_10
REMARK    4  A    between atoms: C_9  and  C_15
REMARK    5  A    between atoms: C_16  and  C_20
REMARK    6  A    between atoms: C_21  and  C_22
REMARK                            x       y       z     vdW  Elec       q    Type
REMARK                         _______ _______ _______ _____ _____    ______ ____
ROOT
ATOM      1  S   UNL     1       1.227   6.422 -60.094  0.00  0.00    +0.000 S 
ATOM      2  N   UNL     1      -1.282   6.982 -60.019  0.00  0.00    +0.000 N 
ATOM      3  N   UNL     1      -0.757   5.771 -58.219  0.00  0.00    +0.000 NA
ATOM      4  C   UNL     1      -2.109   6.084 -58.216  0.00  0.00    +0.000 A 
ATOM      5  C   UNL     1      -2.468   6.845 -59.336  0.00  0.00    +0.000 A 
ATOM      6  C   UNL     1      -0.327   6.306 -59.323  0.00  0.00    +0.000 A 
ATOM      7  C   UNL     1      -0.822   7.633 -61.148  0.00  0.00    +0.000 A 
ATOM      8  C   UNL     1       0.489   7.425 -61.350  0.00  0.00    +0.000 A 
ENDROOT
BRANCH   4   9
ATOM      9  C   UNL     1      -2.983   5.659 -57.130  0.00  0.00    +0.000 A 
ATOM     10  C   UNL     1      -3.636   4.421 -57.215  0.00  0.00    +0.000 A 
ATOM     11  C   UNL     1      -3.212   6.457 -56.003  0.00  0.00    +0.000 A 
ATOM     12  C   UNL     1      -4.650   4.755 -55.035  0.00  0.00    +0.000 A 
ATOM     13  C   UNL     1      -4.459   3.971 -56.177  0.00  0.00    +0.000 A 
ATOM     14  C   UNL     1      -4.026   6.004 -54.959  0.00  0.00    +0.000 A 
ATOM     15  C   UNL     1      -5.513   4.284 -53.902  0.00  0.00    +0.000 C 
ENDBRANCH   4   9
BRANCH   5  17
ATOM     16  N   UNL     1      -4.710   6.908 -60.339  0.00  0.00    +0.000 NA
ATOM     17  C   UNL     1      -3.726   7.450 -59.680  0.00  0.00    +0.000 C 
BRANCH  16  18
ATOM     18  O   UNL     1      -4.487   5.546 -60.572  0.00  0.00    +0.000 OA
BRANCH  18  19
ATOM     19  C   UNL     1      -5.283   5.098 -61.670  0.00  0.00    +0.000 C 
BRANCH  19  22
ATOM     20 CL   UNL     1      -8.390   1.055 -62.779  0.00  0.00    +0.000 Cl
ATOM     21 CL   UNL     1      -7.199  -0.427 -60.138  0.00  0.00    +0.000 Cl
ATOM     22  C   UNL     1      -5.779   3.713 -61.328  0.00  0.00    +0.000 A 
ATOM     23  C   UNL     1      -6.748   3.071 -62.108  0.00  0.00    +0.000 A 
ATOM     24  C   UNL     1      -5.261   3.054 -60.202  0.00  0.00    +0.000 A 
ATOM     25  C   UNL     1      -7.197   1.789 -61.765  0.00  0.00    +0.000 A 
ATOM     26  C   UNL     1      -5.706   1.778 -59.859  0.00  0.00    +0.000 A 
ATOM     27  C   UNL     1      -6.678   1.144 -60.633  0.00  0.00    +0.000 A 
ENDBRANCH  19  22
ENDBRANCH  18  19
ENDBRANCH  16  18
ENDBRANCH   5  17
TORSDOF 5
ENDMDL
MODEL 8
REMARK VINA RESULT:      -5.5     20.094     21.754
REMARK  Name = 157888353
REMARK  6 active torsions:
REMARK  status: ('A' for Active; 'I' for Inactive)
REMARK    1  A    between atoms: O_4  and  N_7
REMARK    2  A    between atoms: O_4  and  C_22
REMARK    3  A    between atoms: C_8  and  C_10
REMARK    4  A    between atoms: C_9  and  C_15
REMARK    5  A    between atoms: C_16  and  C_20
REMARK    6  A    between atoms: C_21  and  C_22
REMARK                            x       y       z     vdW  Elec       q    Type
REMARK                         _______ _______ _______ _____ _____    ______ ____
ROOT
ATOM      1  S   UNL     1     -16.486  17.007 -51.143  0.00  0.00    +0.000 S 
ATOM      2  N   UNL     1     -16.344  15.638 -48.971  0.00  0.00    +0.000 N 
ATOM      3  N   UNL     1     -14.706  17.155 -48.979  0.00  0.00    +0.000 NA
ATOM      4  C   UNL     1     -14.653  16.389 -47.823  0.00  0.00    +0.000 A 
ATOM      5  C   UNL     1     -15.671  15.428 -47.790  0.00  0.00    +0.000 A 
ATOM      6  C   UNL     1     -15.709  16.646 -49.631  0.00  0.00    +0.000 A 
ATOM      7  C   UNL     1     -17.467  15.147 -49.609  0.00  0.00    +0.000 A 
ATOM      8  C   UNL     1     -17.679  15.750 -50.789  0.00  0.00    +0.000 A 
ENDROOT
BRANCH   4   9
ATOM      9  C   UNL     1     -13.645  16.633 -46.798  0.00  0.00    +0.000 A 
ATOM     10  C   UNL     1     -13.534  15.748 -45.716  0.00  0.00    +0.000 A 
ATOM     11  C   UNL     1     -12.790  17.741 -46.844  0.00  0.00    +0.000 A 
ATOM     12  C   UNL     1     -11.680  17.023 -44.806  0.00  0.00    +0.000 A 
ATOM     13  C   UNL     1     -12.560  15.939 -44.731  0.00  0.00    +0.000 A 
ATOM     14  C   UNL     1     -11.808  17.926 -45.866  0.00  0.00    +0.000 A 
ATOM     15  C   UNL     1     -10.616  17.236 -43.770  0.00  0.00    +0.000 C 
ENDBRANCH   4   9
BRANCH   5  17
ATOM     16  N   UNL     1     -16.838  14.704 -45.753  0.00  0.00    +0.000 NA
ATOM     17  C   UNL     1     -16.034  14.498 -46.755  0.00  0.00    +0.000 C 
BRANCH  16  18
ATOM     18  O   UNL     1     -17.481  15.944 -45.853  0.00  0.00    +0.000 OA
BRANCH  18  19
ATOM     19  C   UNL     1     -17.605  16.539 -44.562  0.00  0.00    +0.000 C 
BRANCH  19  22
ATOM     20 CL   UNL     1     -13.536  18.596 -42.024  0.00  0.00    +0.000 Cl
ATOM     21 CL   UNL     1     -13.479  20.947 -44.273  0.00  0.00    +0.000 Cl
ATOM     22  C   UNL     1     -16.551  17.615 -44.461  0.00  0.00    +0.000 A 
ATOM     23  C   UNL     1     -15.620  17.631 -43.415  0.00  0.00    +0.000 A 
ATOM     24  C   UNL     1     -16.503  18.626 -45.434  0.00  0.00    +0.000 A 
ATOM     25  C   UNL     1     -14.657  18.646 -43.340  0.00  0.00    +0.000 A 
ATOM     26  C   UNL     1     -15.545  19.637 -45.361  0.00  0.00    +0.000 A 
ATOM     27  C   UNL     1     -14.624  19.654 -44.313  0.00  0.00    +0.000 A 
ENDBRANCH  19  22
ENDBRANCH  18  19
ENDBRANCH  16  18
ENDBRANCH   5  17
TORSDOF 5
ENDMDL
MODEL 9
REMARK VINA RESULT:      -5.5      3.712      6.023
REMARK  Name = 157888353
REMARK  6 active torsions:
REMARK  status: ('A' for Active; 'I' for Inactive)
REMARK    1  A    between atoms: O_4  and  N_7
REMARK    2  A    between atoms: O_4  and  C_22
REMARK    3  A    between atoms: C_8  and  C_10
REMARK    4  A    between atoms: C_9  and  C_15
REMARK    5  A    between atoms: C_16  and  C_20
REMARK    6  A    between atoms: C_21  and  C_22
REMARK                            x       y       z     vdW  Elec       q    Type
REMARK                         _______ _______ _______ _____ _____    ______ ____
ROOT
ATOM      1  S   UNL     1      -6.840   0.841 -60.865  0.00  0.00    +0.000 S 
ATOM      2  N   UNL     1      -5.066   0.751 -59.005  0.00  0.00    +0.000 N 
ATOM      3  N   UNL     1      -6.618  -0.802 -58.601  0.00  0.00    +0.000 NA
ATOM      4  C   UNL     1      -5.647  -0.816 -57.609  0.00  0.00    +0.000 A 
ATOM      5  C   UNL     1      -4.659   0.150 -57.837  0.00  0.00    +0.000 A 
ATOM      6  C   UNL     1      -6.235   0.163 -59.383  0.00  0.00    +0.000 A 
ATOM      7  C   UNL     1      -4.598   1.717 -59.875  0.00  0.00    +0.000 A 
ATOM      8  C   UNL     1      -5.431   1.907 -60.911  0.00  0.00    +0.000 A 
ENDROOT
BRANCH   4   9
ATOM      9  C   UNL     1      -5.703  -1.768 -56.507  0.00  0.00    +0.000 A 
ATOM     10  C   UNL     1      -4.565  -1.973 -55.715  0.00  0.00    +0.000 A 
ATOM     11  C   UNL     1      -6.857  -2.508 -56.220  0.00  0.00    +0.000 A 
ATOM     12  C   UNL     1      -5.762  -3.563 -54.325  0.00  0.00    +0.000 A 
ATOM     13  C   UNL     1      -4.594  -2.860 -54.633  0.00  0.00    +0.000 A 
ATOM     14  C   UNL     1      -6.891  -3.385 -55.131  0.00  0.00    +0.000 A 
ATOM     15  C   UNL     1      -5.821  -4.504 -53.159  0.00  0.00    +0.000 C 
ENDBRANCH   4   9
BRANCH   5  17
ATOM     16  N   UNL     1      -3.273   1.249 -56.131  0.00  0.00    +0.000 NA
ATOM     17  C   UNL     1      -3.442   0.418 -57.119  0.00  0.00    +0.000 C 
BRANCH  16  18
ATOM     18  O   UNL     1      -4.490   1.790 -55.698  0.00  0.00    +0.000 OA
BRANCH  18  19
ATOM     19  C   UNL     1      -4.446   2.032 -54.291  0.00  0.00    +0.000 C 
BRANCH  19  22
ATOM     20 CL   UNL     1      -9.061  -0.399 -54.144  0.00  0.00    +0.000 Cl
ATOM     21 CL   UNL     1      -7.996  -1.996 -51.515  0.00  0.00    +0.000 Cl
ATOM     22  C   UNL     1      -5.359   1.026 -53.634  0.00  0.00    +0.000 A 
ATOM     23  C   UNL     1      -6.651   0.784 -54.118  0.00  0.00    +0.000 A 
ATOM     24  C   UNL     1      -4.907   0.316 -52.510  0.00  0.00    +0.000 A 
ATOM     25  C   UNL     1      -7.481  -0.150 -53.485  0.00  0.00    +0.000 A 
ATOM     26  C   UNL     1      -5.732  -0.614 -51.878  0.00  0.00    +0.000 A 
ATOM     27  C   UNL     1      -7.022  -0.846 -52.358  0.00  0.00    +0.000 A 
ENDBRANCH  19  22
ENDBRANCH  18  19
ENDBRANCH  16  18
ENDBRANCH   5  17
TORSDOF 5
ENDMDL
MODEL 10
REMARK VINA RESULT:      -5.5     20.017     22.455
REMARK  Name = 157888353
REMARK  6 active torsions:
REMARK  status: ('A' for Active; 'I' for Inactive)
REMARK    1  A    between atoms: O_4  and  N_7
REMARK    2  A    between atoms: O_4  and  C_22
REMARK    3  A    between atoms: C_8  and  C_10
REMARK    4  A    between atoms: C_9  and  C_15
REMARK    5  A    between atoms: C_16  and  C_20
REMARK    6  A    between atoms: C_21  and  C_22
REMARK                            x       y       z     vdW  Elec       q    Type
REMARK                         _______ _______ _______ _____ _____    ______ ____
ROOT
ATOM      1  S   UNL     1      -6.133   6.090 -36.722  0.00  0.00    +0.000 S 
ATOM      2  N   UNL     1      -8.460   5.000 -36.809  0.00  0.00    +0.000 N 
ATOM      3  N   UNL     1      -8.611   6.943 -35.719  0.00  0.00    +0.000 NA
ATOM      4  C   UNL     1      -9.850   6.320 -35.776  0.00  0.00    +0.000 A 
ATOM      5  C   UNL     1      -9.786   5.098 -36.456  0.00  0.00    +0.000 A 
ATOM      6  C   UNL     1      -7.825   6.102 -36.322  0.00  0.00    +0.000 A 
ATOM      7  C   UNL     1      -7.655   4.141 -37.532  0.00  0.00    +0.000 A 
ATOM      8  C   UNL     1      -6.379   4.558 -37.569  0.00  0.00    +0.000 A 
ENDROOT
BRANCH   4   9
ATOM      9  C   UNL     1     -11.037   6.940 -35.198  0.00  0.00    +0.000 A 
ATOM     10  C   UNL     1     -11.304   6.774 -33.832  0.00  0.00    +0.000 A 
ATOM     11  C   UNL     1     -11.938   7.684 -35.969  0.00  0.00    +0.000 A 
ATOM     12  C   UNL     1     -13.292   8.156 -34.008  0.00  0.00    +0.000 A 
ATOM     13  C   UNL     1     -12.419   7.378 -33.241  0.00  0.00    +0.000 A 
ATOM     14  C   UNL     1     -13.047   8.298 -35.377  0.00  0.00    +0.000 A 
ATOM     15  C   UNL     1     -14.483   8.828 -33.391  0.00  0.00    +0.000 C 
ENDBRANCH   4   9
BRANCH   5  17
ATOM     16  N   UNL     1     -11.302   3.195 -36.109  0.00  0.00    +0.000 NA
ATOM     17  C   UNL     1     -10.834   4.182 -36.817  0.00  0.00    +0.000 C 
BRANCH  16  18
ATOM     18  O   UNL     1     -10.766   3.190 -34.815  0.00  0.00    +0.000 OA
BRANCH  18  19
ATOM     19  C   UNL     1     -10.412   1.859 -34.436  0.00  0.00    +0.000 C 
BRANCH  19  22
ATOM     20 CL   UNL     1      -5.893   4.277 -33.453  0.00  0.00    +0.000 Cl
ATOM     21 CL   UNL     1      -4.384   1.487 -34.180  0.00  0.00    +0.000 Cl
ATOM     22  C   UNL     1      -8.906   1.804 -34.348  0.00  0.00    +0.000 A 
ATOM     23  C   UNL     1      -8.153   2.927 -33.984  0.00  0.00    +0.000 A 
ATOM     24  C   UNL     1      -8.242   0.602 -34.641  0.00  0.00    +0.000 A 
ATOM     25  C   UNL     1      -6.755   2.851 -33.917  0.00  0.00    +0.000 A 
ATOM     26  C   UNL     1      -6.851   0.524 -34.576  0.00  0.00    +0.000 A 
ATOM     27  C   UNL     1      -6.103   1.648 -34.220  0.00  0.00    +0.000 A 
ENDBRANCH  19  22
ENDBRANCH  18  19
ENDBRANCH  16  18
ENDBRANCH   5  17
TORSDOF 5
ENDMDL
