REMARK  Name = 157812418
REMARK  6 active torsions:
REMARK  status: ('A' for Active; 'I' for Inactive)
REMARK    1  A    between atoms: O_4  and  N_7
REMARK    2  A    between atoms: O_4  and  C_22
REMARK    3  A    between atoms: N_8  and  C_20
REMARK    4  A    between atoms: C_9  and  C_14
REMARK    5  A    between atoms: C_10  and  C_12
REMARK    6  A    between atoms: C_21  and  C_22
REMARK                            x       y       z     vdW  Elec       q    Type
REMARK                         _______ _______ _______ _____ _____    ______ ____
ROOT
ATOM      1  S   UNL     1      -8.698  -2.393  -4.295  0.00  0.00    +0.000 S 
ATOM      2  N   UNL     1      -6.615  -0.925  -3.971  0.00  0.00    +0.000 N 
ATOM      3  N   UNL     1      -8.271  -0.115  -2.710  0.00  0.00    +0.000 NA
ATOM      4  C   UNL     1      -6.074   0.180  -3.353  0.00  0.00    +0.000 A 
ATOM      5  C   UNL     1      -7.131   0.662  -2.569  0.00  0.00    +0.000 A 
ATOM      6  C   UNL     1      -7.914  -1.021  -3.574  0.00  0.00    +0.000 A 
ATOM      7  C   UNL     1      -6.190  -1.934  -4.810  0.00  0.00    +0.000 A 
ATOM      8  C   UNL     1      -7.177  -2.794  -5.106  0.00  0.00    +0.000 A 
ENDROOT
BRANCH   5   9
ATOM      9  C   UNL     1      -7.098   1.807  -1.666  0.00  0.00    +0.000 A 
ATOM     10  C   UNL     1      -7.882   1.783  -0.499  0.00  0.00    +0.000 A 
ATOM     11  C   UNL     1      -6.310   2.939  -1.926  0.00  0.00    +0.000 A 
ATOM     12  C   UNL     1      -7.834   2.838   0.419  0.00  0.00    +0.000 A 
ATOM     13  C   UNL     1      -6.247   3.991  -1.007  0.00  0.00    +0.000 A 
ATOM     14  C   UNL     1      -7.002   3.923   0.161  0.00  0.00    +0.000 A 
BRANCH  14  15
ATOM     15  N   UNL     1      -6.914   4.957   1.087  0.00  0.00    +0.000 NA
ATOM     16  C   UNL     1      -6.827   5.824   1.868  0.00  0.00    +0.000 C 
ENDBRANCH  14  15
ENDBRANCH   5   9
BRANCH   4  18
ATOM     17  N   UNL     1      -3.979   0.688  -4.526  0.00  0.00    +0.000 NA
ATOM     18  C   UNL     1      -4.710   0.622  -3.451  0.00  0.00    +0.000 C 
BRANCH  17  19
ATOM     19  O   UNL     1      -4.728   0.420  -5.679  0.00  0.00    +0.000 OA
BRANCH  19  20
ATOM     20  C   UNL     1      -3.859   0.210  -6.792  0.00  0.00    +0.000 C 
BRANCH  20  23
ATOM     21 CL   UNL     1      -5.419  -1.779 -11.355  0.00  0.00    +0.000 Cl
ATOM     22 CL   UNL     1      -7.123   0.952 -11.825  0.00  0.00    +0.000 Cl
ATOM     23  C   UNL     1      -4.688   0.343  -8.044  0.00  0.00    +0.000 A 
ATOM     24  C   UNL     1      -4.704  -0.662  -9.023  0.00  0.00    +0.000 A 
ATOM     25  C   UNL     1      -5.445   1.505  -8.253  0.00  0.00    +0.000 A 
ATOM     26  C   UNL     1      -5.455  -0.499 -10.194  0.00  0.00    +0.000 A 
ATOM     27  C   UNL     1      -6.195   1.668  -9.417  0.00  0.00    +0.000 A 
ATOM     28  C   UNL     1      -6.197   0.671 -10.395  0.00  0.00    +0.000 A 
ENDBRANCH  20  23
ENDBRANCH  19  20
ENDBRANCH  17  19
ENDBRANCH   4  18
TORSDOF 6
