REMARK  Name = 16451663
REMARK  3 active torsions:
REMARK  status: ('A' for Active; 'I' for Inactive)
REMARK    1  A    between atoms: C_6  and  C_7
REMARK    2  A    between atoms: C_7  and  C_12
REMARK    3  A    between atoms: C_10  and  C_13
REMARK                            x       y       z     vdW  Elec       q    Type
REMARK                         _______ _______ _______ _____ _____    ______ ____
ROOT
ATOM      1  S   UNL     1      -4.967   2.003  -2.668  0.00  0.00    +0.000 S 
ATOM      2  N   UNL     1      -5.792  -0.421  -2.700  0.00  0.00    +0.000 N 
ATOM      3  N   UNL     1      -6.325   0.528  -4.648  0.00  0.00    +0.000 NA
ATOM      4  C   UNL     1      -4.668   0.917  -1.278  0.00  0.00    +0.000 A 
ATOM      5  C   UNL     1      -5.776   0.696  -3.476  0.00  0.00    +0.000 A 
ATOM      6  C   UNL     1      -5.170  -0.317  -1.479  0.00  0.00    +0.000 A 
ATOM      7  C   UNL     1      -6.757  -0.791  -4.609  0.00  0.00    +0.000 A 
ATOM      8  C   UNL     1      -6.431  -1.396  -3.402  0.00  0.00    +0.000 A 
ENDROOT
BRANCH   7   9
ATOM      9  C   UNL     1      -7.414  -1.457  -5.721  0.00  0.00    +0.000 A 
ATOM     10  C   UNL     1      -7.136  -1.059  -7.034  0.00  0.00    +0.000 A 
ATOM     11  C   UNL     1      -8.312  -2.514  -5.510  0.00  0.00    +0.000 A 
ATOM     12  C   UNL     1      -7.722  -1.722  -8.116  0.00  0.00    +0.000 A 
ATOM     13  C   UNL     1      -8.904  -3.172  -6.591  0.00  0.00    +0.000 A 
ATOM     14  C   UNL     1      -8.602  -2.780  -7.894  0.00  0.00    +0.000 A 
ENDBRANCH   7   9
BRANCH   4  15
ATOM     15  C   UNL     1      -3.872   1.374  -0.093  0.00  0.00    +0.000 C 
BRANCH  15  18
ATOM     16 CL   UNL     1      -6.745   0.697   4.193  0.00  0.00    +0.000 Cl
ATOM     17 CL   UNL     1      -7.414   3.881   4.123  0.00  0.00    +0.000 Cl
ATOM     18  C   UNL     1      -4.728   1.993   0.989  0.00  0.00    +0.000 A 
ATOM     19  C   UNL     1      -5.282   1.193   2.002  0.00  0.00    +0.000 A 
ATOM     20  C   UNL     1      -5.012   3.364   0.977  0.00  0.00    +0.000 A 
ATOM     21  C   UNL     1      -6.107   1.754   2.984  0.00  0.00    +0.000 A 
ATOM     22  C   UNL     1      -5.837   3.925   1.956  0.00  0.00    +0.000 A 
ATOM     23  C   UNL     1      -6.389   3.123   2.958  0.00  0.00    +0.000 A 
ENDBRANCH  15  18
ENDBRANCH   4  15
TORSDOF 3
