MODEL 1
REMARK VINA RESULT:      -6.7      0.000      0.000
REMARK  Name = 16451663
REMARK  3 active torsions:
REMARK  status: ('A' for Active; 'I' for Inactive)
REMARK    1  A    between atoms: C_6  and  C_7
REMARK    2  A    between atoms: C_7  and  C_12
REMARK    3  A    between atoms: C_10  and  C_13
REMARK                            x       y       z     vdW  Elec       q    Type
REMARK                         _______ _______ _______ _____ _____    ______ ____
ROOT
ATOM      1  S   UNL     1     -17.515   4.943  25.326  0.00  0.00    +0.000 S 
ATOM      2  N   UNL     1     -15.292   4.236  24.269  0.00  0.00    +0.000 N 
ATOM      3  N   UNL     1     -15.838   6.249  23.476  0.00  0.00    +0.000 NA
ATOM      4  C   UNL     1     -16.744   3.392  25.771  0.00  0.00    +0.000 A 
ATOM      5  C   UNL     1     -16.189   5.259  24.251  0.00  0.00    +0.000 A 
ATOM      6  C   UNL     1     -15.582   3.195  25.118  0.00  0.00    +0.000 A 
ATOM      7  C   UNL     1     -14.639   5.813  22.928  0.00  0.00    +0.000 A 
ATOM      8  C   UNL     1     -14.285   4.560  23.413  0.00  0.00    +0.000 A 
ENDROOT
BRANCH   7   9
ATOM      9  C   UNL     1     -13.839   6.603  22.008  0.00  0.00    +0.000 A 
ATOM     10  C   UNL     1     -14.212   7.920  21.715  0.00  0.00    +0.000 A 
ATOM     11  C   UNL     1     -12.678   6.081  21.418  0.00  0.00    +0.000 A 
ATOM     12  C   UNL     1     -13.425   8.710  20.871  0.00  0.00    +0.000 A 
ATOM     13  C   UNL     1     -11.896   6.868  20.568  0.00  0.00    +0.000 A 
ATOM     14  C   UNL     1     -12.266   8.185  20.302  0.00  0.00    +0.000 A 
ENDBRANCH   7   9
BRANCH   4  15
ATOM     15  C   UNL     1     -17.340   2.501  26.820  0.00  0.00    +0.000 C 
BRANCH  15  18
ATOM     16 CL   UNL     1     -15.514  -0.405  30.731  0.00  0.00    +0.000 Cl
ATOM     17 CL   UNL     1     -14.079   2.267  31.910  0.00  0.00    +0.000 Cl
ATOM     18  C   UNL     1     -16.497   2.419  28.072  0.00  0.00    +0.000 A 
ATOM     19  C   UNL     1     -16.368   1.203  28.764  0.00  0.00    +0.000 A 
ATOM     20  C   UNL     1     -15.864   3.559  28.582  0.00  0.00    +0.000 A 
ATOM     21  C   UNL     1     -15.621   1.130  29.946  0.00  0.00    +0.000 A 
ATOM     22  C   UNL     1     -15.119   3.487  29.763  0.00  0.00    +0.000 A 
ATOM     23  C   UNL     1     -14.998   2.276  30.449  0.00  0.00    +0.000 A 
ENDBRANCH  15  18
ENDBRANCH   4  15
TORSDOF 3
ENDMDL
MODEL 2
REMARK VINA RESULT:      -6.6      9.049     14.083
REMARK  Name = 16451663
REMARK  3 active torsions:
REMARK  status: ('A' for Active; 'I' for Inactive)
REMARK    1  A    between atoms: C_6  and  C_7
REMARK    2  A    between atoms: C_7  and  C_12
REMARK    3  A    between atoms: C_10  and  C_13
REMARK                            x       y       z     vdW  Elec       q    Type
REMARK                         _______ _______ _______ _____ _____    ______ ____
ROOT
ATOM      1  S   UNL     1     -11.136  13.346  18.269  0.00  0.00    +0.000 S 
ATOM      2  N   UNL     1     -10.310  10.924  18.187  0.00  0.00    +0.000 N 
ATOM      3  N   UNL     1     -12.013  11.037  19.626  0.00  0.00    +0.000 NA
ATOM      4  C   UNL     1      -9.802  12.871  17.176  0.00  0.00    +0.000 A 
ATOM      5  C   UNL     1     -11.239  11.699  18.809  0.00  0.00    +0.000 A 
ATOM      6  C   UNL     1      -9.511  11.559  17.268  0.00  0.00    +0.000 A 
ATOM      7  C   UNL     1     -11.520   9.741  19.548  0.00  0.00    +0.000 A 
ATOM      8  C   UNL     1     -10.460   9.654  18.655  0.00  0.00    +0.000 A 
ENDROOT
BRANCH   7   9
ATOM      9  C   UNL     1     -12.090   8.618  20.272  0.00  0.00    +0.000 A 
ATOM     10  C   UNL     1     -13.350   8.741  20.869  0.00  0.00    +0.000 A 
ATOM     11  C   UNL     1     -11.412   7.393  20.369  0.00  0.00    +0.000 A 
ATOM     12  C   UNL     1     -13.934   7.654  21.527  0.00  0.00    +0.000 A 
ATOM     13  C   UNL     1     -11.992   6.309  21.033  0.00  0.00    +0.000 A 
ATOM     14  C   UNL     1     -13.256   6.439  21.605  0.00  0.00    +0.000 A 
ENDBRANCH   7   9
BRANCH   4  15
ATOM     15  C   UNL     1      -9.181  13.859  16.234  0.00  0.00    +0.000 C 
BRANCH  15  18
ATOM     16 CL   UNL     1      -6.108  16.439  19.548  0.00  0.00    +0.000 Cl
ATOM     17 CL   UNL     1      -3.566  15.553  17.719  0.00  0.00    +0.000 Cl
ATOM     18  C   UNL     1      -7.780  14.258  16.639  0.00  0.00    +0.000 A 
ATOM     19  C   UNL     1      -7.568  15.055  17.776  0.00  0.00    +0.000 A 
ATOM     20  C   UNL     1      -6.677  13.872  15.868  0.00  0.00    +0.000 A 
ATOM     21  C   UNL     1      -6.277  15.460  18.134  0.00  0.00    +0.000 A 
ATOM     22  C   UNL     1      -5.387  14.277  16.223  0.00  0.00    +0.000 A 
ATOM     23  C   UNL     1      -5.184  15.074  17.352  0.00  0.00    +0.000 A 
ENDBRANCH  15  18
ENDBRANCH   4  15
TORSDOF 3
ENDMDL
MODEL 3
REMARK VINA RESULT:      -6.5     27.468     29.002
REMARK  Name = 16451663
REMARK  3 active torsions:
REMARK  status: ('A' for Active; 'I' for Inactive)
REMARK    1  A    between atoms: C_6  and  C_7
REMARK    2  A    between atoms: C_7  and  C_12
REMARK    3  A    between atoms: C_10  and  C_13
REMARK                            x       y       z     vdW  Elec       q    Type
REMARK                         _______ _______ _______ _____ _____    ______ ____
ROOT
ATOM      1  S   UNL     1      12.116  11.195  21.003  0.00  0.00    +0.000 S 
ATOM      2  N   UNL     1      10.961  11.342  23.283  0.00  0.00    +0.000 N 
ATOM      3  N   UNL     1      11.867  13.330  22.826  0.00  0.00    +0.000 NA
ATOM      4  C   UNL     1      11.235   9.790  21.674  0.00  0.00    +0.000 A 
ATOM      5  C   UNL     1      11.690  12.101  22.421  0.00  0.00    +0.000 A 
ATOM      6  C   UNL     1      10.690  10.058  22.877  0.00  0.00    +0.000 A 
ATOM      7  C   UNL     1      11.231  13.352  24.060  0.00  0.00    +0.000 A 
ATOM      8  C   UNL     1      10.660  12.121  24.358  0.00  0.00    +0.000 A 
ENDROOT
BRANCH   7   9
ATOM      9  C   UNL     1      11.133  14.537  24.895  0.00  0.00    +0.000 A 
ATOM     10  C   UNL     1      10.563  15.707  24.379  0.00  0.00    +0.000 A 
ATOM     11  C   UNL     1      11.580  14.531  26.224  0.00  0.00    +0.000 A 
ATOM     12  C   UNL     1      10.417  16.840  25.185  0.00  0.00    +0.000 A 
ATOM     13  C   UNL     1      11.441  15.666  27.028  0.00  0.00    +0.000 A 
ATOM     14  C   UNL     1      10.852  16.817  26.509  0.00  0.00    +0.000 A 
ENDBRANCH   7   9
BRANCH   4  15
ATOM     15  C   UNL     1      11.092   8.519  20.893  0.00  0.00    +0.000 C 
BRANCH  15  18
ATOM     16 CL   UNL     1      14.309   7.608  16.905  0.00  0.00    +0.000 Cl
ATOM     17 CL   UNL     1      16.339   6.171  19.004  0.00  0.00    +0.000 Cl
ATOM     18  C   UNL     1      12.417   7.970  20.412  0.00  0.00    +0.000 A 
ATOM     19  C   UNL     1      12.759   8.030  19.051  0.00  0.00    +0.000 A 
ATOM     20  C   UNL     1      13.304   7.361  21.308  0.00  0.00    +0.000 A 
ATOM     21  C   UNL     1      13.967   7.489  18.595  0.00  0.00    +0.000 A 
ATOM     22  C   UNL     1      14.510   6.819  20.853  0.00  0.00    +0.000 A 
ATOM     23  C   UNL     1      14.842   6.878  19.497  0.00  0.00    +0.000 A 
ENDBRANCH  15  18
ENDBRANCH   4  15
TORSDOF 3
ENDMDL
MODEL 4
REMARK VINA RESULT:      -6.4     30.855     33.619
REMARK  Name = 16451663
REMARK  3 active torsions:
REMARK  status: ('A' for Active; 'I' for Inactive)
REMARK    1  A    between atoms: C_6  and  C_7
REMARK    2  A    between atoms: C_7  and  C_12
REMARK    3  A    between atoms: C_10  and  C_13
REMARK                            x       y       z     vdW  Elec       q    Type
REMARK                         _______ _______ _______ _____ _____    ______ ____
ROOT
ATOM      1  S   UNL     1      18.713   8.235  21.841  0.00  0.00    +0.000 S 
ATOM      2  N   UNL     1      17.022   6.883  20.474  0.00  0.00    +0.000 N 
ATOM      3  N   UNL     1      15.903   8.386  21.686  0.00  0.00    +0.000 NA
ATOM      4  C   UNL     1      19.261   6.963  20.709  0.00  0.00    +0.000 A 
ATOM      5  C   UNL     1      17.072   7.888  21.389  0.00  0.00    +0.000 A 
ATOM      6  C   UNL     1      18.232   6.365  20.078  0.00  0.00    +0.000 A 
ATOM      7  C   UNL     1      15.030   7.617  20.928  0.00  0.00    +0.000 A 
ATOM      8  C   UNL     1      15.712   6.677  20.166  0.00  0.00    +0.000 A 
ENDROOT
BRANCH   7   9
ATOM      9  C   UNL     1      13.592   7.822  20.901  0.00  0.00    +0.000 A 
ATOM     10  C   UNL     1      13.069   9.030  20.424  0.00  0.00    +0.000 A 
ATOM     11  C   UNL     1      12.705   6.821  21.325  0.00  0.00    +0.000 A 
ATOM     12  C   UNL     1      11.687   9.223  20.346  0.00  0.00    +0.000 A 
ATOM     13  C   UNL     1      11.323   7.017  21.255  0.00  0.00    +0.000 A 
ATOM     14  C   UNL     1      10.815   8.216  20.757  0.00  0.00    +0.000 A 
ENDBRANCH   7   9
BRANCH   4  15
ATOM     15  C   UNL     1      20.719   6.702  20.481  0.00  0.00    +0.000 C 
BRANCH  15  18
ATOM     16 CL   UNL     1      22.821   5.126  24.973  0.00  0.00    +0.000 Cl
ATOM     17 CL   UNL     1      22.981   2.124  23.726  0.00  0.00    +0.000 Cl
ATOM     18  C   UNL     1      21.252   5.561  21.318  0.00  0.00    +0.000 A 
ATOM     19  C   UNL     1      21.729   5.795  22.618  0.00  0.00    +0.000 A 
ATOM     20  C   UNL     1      21.314   4.263  20.797  0.00  0.00    +0.000 A 
ATOM     21  C   UNL     1      22.259   4.749  23.383  0.00  0.00    +0.000 A 
ATOM     22  C   UNL     1      21.845   3.218  21.559  0.00  0.00    +0.000 A 
ATOM     23  C   UNL     1      22.321   3.458  22.850  0.00  0.00    +0.000 A 
ENDBRANCH  15  18
ENDBRANCH   4  15
TORSDOF 3
ENDMDL
MODEL 5
REMARK VINA RESULT:      -6.4     28.069     30.899
REMARK  Name = 16451663
REMARK  3 active torsions:
REMARK  status: ('A' for Active; 'I' for Inactive)
REMARK    1  A    between atoms: C_6  and  C_7
REMARK    2  A    between atoms: C_7  and  C_12
REMARK    3  A    between atoms: C_10  and  C_13
REMARK                            x       y       z     vdW  Elec       q    Type
REMARK                         _______ _______ _______ _____ _____    ______ ____
ROOT
ATOM      1  S   UNL     1      14.129   9.972  19.968  0.00  0.00    +0.000 S 
ATOM      2  N   UNL     1      14.726   7.712  21.015  0.00  0.00    +0.000 N 
ATOM      3  N   UNL     1      16.600   8.646  20.243  0.00  0.00    +0.000 NA
ATOM      4  C   UNL     1      12.870   8.959  20.736  0.00  0.00    +0.000 A 
ATOM      5  C   UNL     1      15.307   8.762  20.373  0.00  0.00    +0.000 A 
ATOM      6  C   UNL     1      13.373   7.812  21.234  0.00  0.00    +0.000 A 
ATOM      7  C   UNL     1      16.867   7.411  20.817  0.00  0.00    +0.000 A 
ATOM      8  C   UNL     1      15.709   6.817  21.304  0.00  0.00    +0.000 A 
ENDROOT
BRANCH   7   9
ATOM      9  C   UNL     1      18.202   6.849  20.938  0.00  0.00    +0.000 A 
ATOM     10  C   UNL     1      19.094   7.371  21.883  0.00  0.00    +0.000 A 
ATOM     11  C   UNL     1      18.615   5.773  20.139  0.00  0.00    +0.000 A 
ATOM     12  C   UNL     1      20.364   6.810  22.046  0.00  0.00    +0.000 A 
ATOM     13  C   UNL     1      19.888   5.217  20.296  0.00  0.00    +0.000 A 
ATOM     14  C   UNL     1      20.758   5.732  21.255  0.00  0.00    +0.000 A 
ENDBRANCH   7   9
BRANCH   4  15
ATOM     15  C   UNL     1      11.453   9.434  20.848  0.00  0.00    +0.000 C 
BRANCH  15  18
ATOM     16 CL   UNL     1      11.205  14.456  22.190  0.00  0.00    +0.000 Cl
ATOM     17 CL   UNL     1      10.826  13.505  25.279  0.00  0.00    +0.000 Cl
ATOM     18  C   UNL     1      11.260  10.462  21.939  0.00  0.00    +0.000 A 
ATOM     19  C   UNL     1      11.293  11.834  21.638  0.00  0.00    +0.000 A 
ATOM     20  C   UNL     1      11.083  10.065  23.270  0.00  0.00    +0.000 A 
ATOM     21  C   UNL     1      11.153  12.791  22.650  0.00  0.00    +0.000 A 
ATOM     22  C   UNL     1      10.945  11.020  24.282  0.00  0.00    +0.000 A 
ATOM     23  C   UNL     1      10.984  12.383  23.976  0.00  0.00    +0.000 A 
ENDBRANCH  15  18
ENDBRANCH   4  15
TORSDOF 3
ENDMDL
MODEL 6
REMARK VINA RESULT:      -6.3     32.430     35.197
REMARK  Name = 16451663
REMARK  3 active torsions:
REMARK  status: ('A' for Active; 'I' for Inactive)
REMARK    1  A    between atoms: C_6  and  C_7
REMARK    2  A    between atoms: C_7  and  C_12
REMARK    3  A    between atoms: C_10  and  C_13
REMARK                            x       y       z     vdW  Elec       q    Type
REMARK                         _______ _______ _______ _____ _____    ______ ____
ROOT
ATOM      1  S   UNL     1      19.839   5.137  20.198  0.00  0.00    +0.000 S 
ATOM      2  N   UNL     1      18.114   6.772  21.152  0.00  0.00    +0.000 N 
ATOM      3  N   UNL     1      17.267   5.858  19.302  0.00  0.00    +0.000 NA
ATOM      4  C   UNL     1      20.162   6.022  21.719  0.00  0.00    +0.000 A 
ATOM      5  C   UNL     1      18.293   5.923  20.105  0.00  0.00    +0.000 A 
ATOM      6  C   UNL     1      19.141   6.830  22.065  0.00  0.00    +0.000 A 
ATOM      7  C   UNL     1      16.371   6.762  19.858  0.00  0.00    +0.000 A 
ATOM      8  C   UNL     1      16.885   7.338  21.013  0.00  0.00    +0.000 A 
ENDROOT
BRANCH   7   9
ATOM      9  C   UNL     1      15.045   7.017  19.321  0.00  0.00    +0.000 A 
ATOM     10  C   UNL     1      13.919   6.834  20.132  0.00  0.00    +0.000 A 
ATOM     11  C   UNL     1      14.867   7.469  18.005  0.00  0.00    +0.000 A 
ATOM     12  C   UNL     1      12.640   7.123  19.645  0.00  0.00    +0.000 A 
ATOM     13  C   UNL     1      13.588   7.750  17.516  0.00  0.00    +0.000 A 
ATOM     14  C   UNL     1      12.476   7.584  18.340  0.00  0.00    +0.000 A 
ENDBRANCH   7   9
BRANCH   4  15
ATOM     15  C   UNL     1      21.414   5.782  22.506  0.00  0.00    +0.000 C 
BRANCH  15  18
ATOM     16 CL   UNL     1      23.912   1.477  20.987  0.00  0.00    +0.000 Cl
ATOM     17 CL   UNL     1      25.950   3.377  19.305  0.00  0.00    +0.000 Cl
ATOM     18  C   UNL     1      22.520   5.164  21.681  0.00  0.00    +0.000 A 
ATOM     19  C   UNL     1      22.709   3.772  21.673  0.00  0.00    +0.000 A 
ATOM     20  C   UNL     1      23.395   5.970  20.942  0.00  0.00    +0.000 A 
ATOM     21  C   UNL     1      23.755   3.197  20.941  0.00  0.00    +0.000 A 
ATOM     22  C   UNL     1      24.441   5.397  20.213  0.00  0.00    +0.000 A 
ATOM     23  C   UNL     1      24.626   4.012  20.213  0.00  0.00    +0.000 A 
ENDBRANCH  15  18
ENDBRANCH   4  15
TORSDOF 3
ENDMDL
MODEL 7
REMARK VINA RESULT:      -6.2     27.597     30.017
REMARK  Name = 16451663
REMARK  3 active torsions:
REMARK  status: ('A' for Active; 'I' for Inactive)
REMARK    1  A    between atoms: C_6  and  C_7
REMARK    2  A    between atoms: C_7  and  C_12
REMARK    3  A    between atoms: C_10  and  C_13
REMARK                            x       y       z     vdW  Elec       q    Type
REMARK                         _______ _______ _______ _____ _____    ______ ____
ROOT
ATOM      1  S   UNL     1      12.887  11.452  21.249  0.00  0.00    +0.000 S 
ATOM      2  N   UNL     1      13.205   8.974  21.809  0.00  0.00    +0.000 N 
ATOM      3  N   UNL     1      14.888   9.618  20.493  0.00  0.00    +0.000 NA
ATOM      4  C   UNL     1      11.742  10.605  22.332  0.00  0.00    +0.000 A 
ATOM      5  C   UNL     1      13.785   9.974  21.092  0.00  0.00    +0.000 A 
ATOM      6  C   UNL     1      12.074   9.312  22.512  0.00  0.00    +0.000 A 
ATOM      7  C   UNL     1      15.008   8.275  20.822  0.00  0.00    +0.000 A 
ATOM      8  C   UNL     1      13.967   7.859  21.643  0.00  0.00    +0.000 A 
ENDROOT
BRANCH   7   9
ATOM      9  C   UNL     1      16.119   7.438  20.402  0.00  0.00    +0.000 A 
ATOM     10  C   UNL     1      17.306   7.431  21.144  0.00  0.00    +0.000 A 
ATOM     11  C   UNL     1      16.022   6.611  19.272  0.00  0.00    +0.000 A 
ATOM     12  C   UNL     1      18.365   6.595  20.780  0.00  0.00    +0.000 A 
ATOM     13  C   UNL     1      17.084   5.781  18.904  0.00  0.00    +0.000 A 
ATOM     14  C   UNL     1      18.252   5.768  19.664  0.00  0.00    +0.000 A 
ENDBRANCH   7   9
BRANCH   4  15
ATOM     15  C   UNL     1      10.611  11.337  22.991  0.00  0.00    +0.000 C 
BRANCH  15  18
ATOM     16 CL   UNL     1      14.211  12.605  26.528  0.00  0.00    +0.000 Cl
ATOM     17 CL   UNL     1      12.344  15.133  27.371  0.00  0.00    +0.000 Cl
ATOM     18  C   UNL     1      11.075  12.298  24.061  0.00  0.00    +0.000 A 
ATOM     19  C   UNL     1      12.289  12.081  24.735  0.00  0.00    +0.000 A 
ATOM     20  C   UNL     1      10.287  13.397  24.423  0.00  0.00    +0.000 A 
ATOM     21  C   UNL     1      12.705  12.946  25.753  0.00  0.00    +0.000 A 
ATOM     22  C   UNL     1      10.701  14.261  25.441  0.00  0.00    +0.000 A 
ATOM     23  C   UNL     1      11.906  14.036  26.111  0.00  0.00    +0.000 A 
ENDBRANCH  15  18
ENDBRANCH   4  15
TORSDOF 3
ENDMDL
MODEL 8
REMARK VINA RESULT:      -6.2     24.427     27.700
REMARK  Name = 16451663
REMARK  3 active torsions:
REMARK  status: ('A' for Active; 'I' for Inactive)
REMARK    1  A    between atoms: C_6  and  C_7
REMARK    2  A    between atoms: C_7  and  C_12
REMARK    3  A    between atoms: C_10  and  C_13
REMARK                            x       y       z     vdW  Elec       q    Type
REMARK                         _______ _______ _______ _____ _____    ______ ____
ROOT
ATOM      1  S   UNL     1      11.254  14.584  20.376  0.00  0.00    +0.000 S 
ATOM      2  N   UNL     1      10.206  14.313  22.697  0.00  0.00    +0.000 N 
ATOM      3  N   UNL     1       8.925  15.698  21.505  0.00  0.00    +0.000 NA
ATOM      4  C   UNL     1      11.992  13.498  21.592  0.00  0.00    +0.000 A 
ATOM      5  C   UNL     1      10.008  14.970  21.522  0.00  0.00    +0.000 A 
ATOM      6  C   UNL     1      11.299  13.482  22.747  0.00  0.00    +0.000 A 
ATOM      7  C   UNL     1       8.404  15.520  22.779  0.00  0.00    +0.000 A 
ATOM      8  C   UNL     1       9.190  14.659  23.534  0.00  0.00    +0.000 A 
ENDROOT
BRANCH   7   9
ATOM      9  C   UNL     1       7.160  16.121  23.232  0.00  0.00    +0.000 A 
ATOM     10  C   UNL     1       7.188  17.324  23.946  0.00  0.00    +0.000 A 
ATOM     11  C   UNL     1       5.920  15.529  22.950  0.00  0.00    +0.000 A 
ATOM     12  C   UNL     1       5.998  17.940  24.346  0.00  0.00    +0.000 A 
ATOM     13  C   UNL     1       4.731  16.140  23.357  0.00  0.00    +0.000 A 
ATOM     14  C   UNL     1       4.771  17.350  24.048  0.00  0.00    +0.000 A 
ENDBRANCH   7   9
BRANCH   4  15
ATOM     15  C   UNL     1      13.198  12.671  21.263  0.00  0.00    +0.000 C 
BRANCH  15  18
ATOM     16 CL   UNL     1      10.749   8.114  20.702  0.00  0.00    +0.000 Cl
ATOM     17 CL   UNL     1      12.074   7.883  17.739  0.00  0.00    +0.000 Cl
ATOM     18  C   UNL     1      12.878  11.487  20.379  0.00  0.00    +0.000 A 
ATOM     19  C   UNL     1      12.049  10.454  20.847  0.00  0.00    +0.000 A 
ATOM     20  C   UNL     1      13.432  11.383  19.097  0.00  0.00    +0.000 A 
ATOM     21  C   UNL     1      11.780   9.337  20.048  0.00  0.00    +0.000 A 
ATOM     22  C   UNL     1      13.166  10.267  18.299  0.00  0.00    +0.000 A 
ATOM     23  C   UNL     1      12.344   9.241  18.772  0.00  0.00    +0.000 A 
ENDBRANCH  15  18
ENDBRANCH   4  15
TORSDOF 3
ENDMDL
MODEL 9
REMARK VINA RESULT:      -6.0     19.195     21.307
REMARK  Name = 16451663
REMARK  3 active torsions:
REMARK  status: ('A' for Active; 'I' for Inactive)
REMARK    1  A    between atoms: C_6  and  C_7
REMARK    2  A    between atoms: C_7  and  C_12
REMARK    3  A    between atoms: C_10  and  C_13
REMARK                            x       y       z     vdW  Elec       q    Type
REMARK                         _______ _______ _______ _____ _____    ______ ____
ROOT
ATOM      1  S   UNL     1       2.351  15.796  20.835  0.00  0.00    +0.000 S 
ATOM      2  N   UNL     1      -0.181  15.528  21.108  0.00  0.00    +0.000 N 
ATOM      3  N   UNL     1       0.242  16.076  18.987  0.00  0.00    +0.000 NA
ATOM      4  C   UNL     1       1.647  15.309  22.406  0.00  0.00    +0.000 A 
ATOM      5  C   UNL     1       0.748  15.847  20.168  0.00  0.00    +0.000 A 
ATOM      6  C   UNL     1       0.304  15.215  22.355  0.00  0.00    +0.000 A 
ATOM      7  C   UNL     1      -1.123  15.924  19.192  0.00  0.00    +0.000 A 
ATOM      8  C   UNL     1      -1.402  15.581  20.509  0.00  0.00    +0.000 A 
ENDROOT
BRANCH   7   9
ATOM      9  C   UNL     1      -2.116  16.054  18.140  0.00  0.00    +0.000 A 
ATOM     10  C   UNL     1      -3.442  15.680  18.383  0.00  0.00    +0.000 A 
ATOM     11  C   UNL     1      -1.779  16.570  16.879  0.00  0.00    +0.000 A 
ATOM     12  C   UNL     1      -4.419  15.844  17.397  0.00  0.00    +0.000 A 
ATOM     13  C   UNL     1      -2.753  16.728  15.891  0.00  0.00    +0.000 A 
ATOM     14  C   UNL     1      -4.075  16.372  16.154  0.00  0.00    +0.000 A 
ENDBRANCH   7   9
BRANCH   4  15
ATOM     15  C   UNL     1       2.521  14.980  23.579  0.00  0.00    +0.000 C 
BRANCH  15  18
ATOM     16 CL   UNL     1       7.344  16.930  23.454  0.00  0.00    +0.000 Cl
ATOM     17 CL   UNL     1       6.264  19.442  25.218  0.00  0.00    +0.000 Cl
ATOM     18  C   UNL     1       3.459  16.106  23.949  0.00  0.00    +0.000 A 
ATOM     19  C   UNL     1       4.814  16.054  23.579  0.00  0.00    +0.000 A 
ATOM     20  C   UNL     1       3.003  17.199  24.696  0.00  0.00    +0.000 A 
ATOM     21  C   UNL     1       5.696  17.074  23.952  0.00  0.00    +0.000 A 
ATOM     22  C   UNL     1       3.884  18.218  25.071  0.00  0.00    +0.000 A 
ATOM     23  C   UNL     1       5.230  18.157  24.704  0.00  0.00    +0.000 A 
ENDBRANCH  15  18
ENDBRANCH   4  15
TORSDOF 3
ENDMDL
MODEL 10
REMARK VINA RESULT:      -5.9     18.425     19.516
REMARK  Name = 16451663
REMARK  3 active torsions:
REMARK  status: ('A' for Active; 'I' for Inactive)
REMARK    1  A    between atoms: C_6  and  C_7
REMARK    2  A    between atoms: C_7  and  C_12
REMARK    3  A    between atoms: C_10  and  C_13
REMARK                            x       y       z     vdW  Elec       q    Type
REMARK                         _______ _______ _______ _____ _____    ______ ____
ROOT
ATOM      1  S   UNL     1      -3.016  11.126  36.414  0.00  0.00    +0.000 S 
ATOM      2  N   UNL     1      -0.618  10.932  35.538  0.00  0.00    +0.000 N 
ATOM      3  N   UNL     1      -1.454  12.889  34.867  0.00  0.00    +0.000 NA
ATOM      4  C   UNL     1      -2.014   9.696  36.803  0.00  0.00    +0.000 A 
ATOM      5  C   UNL     1      -1.682  11.779  35.514  0.00  0.00    +0.000 A 
ATOM      6  C   UNL     1      -0.783   9.774  36.260  0.00  0.00    +0.000 A 
ATOM      7  C   UNL     1      -0.153  12.728  34.412  0.00  0.00    +0.000 A 
ATOM      8  C   UNL     1       0.382  11.514  34.822  0.00  0.00    +0.000 A 
ENDROOT
BRANCH   7   9
ATOM      9  C   UNL     1       0.566  13.738  33.652  0.00  0.00    +0.000 A 
ATOM     10  C   UNL     1       0.860  13.514  32.301  0.00  0.00    +0.000 A 
ATOM     11  C   UNL     1       0.955  14.952  34.237  0.00  0.00    +0.000 A 
ATOM     12  C   UNL     1       1.507  14.495  31.544  0.00  0.00    +0.000 A 
ATOM     13  C   UNL     1       1.608  15.929  33.483  0.00  0.00    +0.000 A 
ATOM     14  C   UNL     1       1.876  15.703  32.134  0.00  0.00    +0.000 A 
ENDBRANCH   7   9
BRANCH   4  15
ATOM     15  C   UNL     1      -2.525   8.612  37.703  0.00  0.00    +0.000 C 
BRANCH  15  18
ATOM     16 CL   UNL     1       0.464   4.752  39.506  0.00  0.00    +0.000 Cl
ATOM     17 CL   UNL     1       1.475   6.770  41.852  0.00  0.00    +0.000 Cl
ATOM     18  C   UNL     1      -1.496   8.149  38.710  0.00  0.00    +0.000 A 
ATOM     19  C   UNL     1      -1.007   6.832  38.673  0.00  0.00    +0.000 A 
ATOM     20  C   UNL     1      -1.044   9.012  39.716  0.00  0.00    +0.000 A 
ATOM     21  C   UNL     1      -0.085   6.386  39.627  0.00  0.00    +0.000 A 
ATOM     22  C   UNL     1      -0.124   8.567  40.669  0.00  0.00    +0.000 A 
ATOM     23  C   UNL     1       0.355   7.255  40.630  0.00  0.00    +0.000 A 
ENDBRANCH  15  18
ENDBRANCH   4  15
TORSDOF 3
ENDMDL
