MODEL 1
REMARK VINA RESULT:      -6.4      0.000      0.000
REMARK  Name = 16451663
REMARK  3 active torsions:
REMARK  status: ('A' for Active; 'I' for Inactive)
REMARK    1  A    between atoms: C_6  and  C_7
REMARK    2  A    between atoms: C_7  and  C_12
REMARK    3  A    between atoms: C_10  and  C_13
REMARK                            x       y       z     vdW  Elec       q    Type
REMARK                         _______ _______ _______ _____ _____    ______ ____
ROOT
ATOM      1  S   UNL     1     -13.069   7.360 -33.547  0.00  0.00    +0.000 S 
ATOM      2  N   UNL     1     -15.013   7.844 -35.141  0.00  0.00    +0.000 N 
ATOM      3  N   UNL     1     -15.858   7.178 -33.187  0.00  0.00    +0.000 NA
ATOM      4  C   UNL     1     -12.764   7.967 -35.202  0.00  0.00    +0.000 A 
ATOM      5  C   UNL     1     -14.774   7.412 -33.874  0.00  0.00    +0.000 A 
ATOM      6  C   UNL     1     -13.906   8.167 -35.889  0.00  0.00    +0.000 A 
ATOM      7  C   UNL     1     -16.873   7.448 -34.094  0.00  0.00    +0.000 A 
ATOM      8  C   UNL     1     -16.363   7.866 -35.317  0.00  0.00    +0.000 A 
ENDROOT
BRANCH   7   9
ATOM      9  C   UNL     1     -18.287   7.357 -33.772  0.00  0.00    +0.000 A 
ATOM     10  C   UNL     1     -18.733   6.395 -32.858  0.00  0.00    +0.000 A 
ATOM     11  C   UNL     1     -19.223   8.232 -34.344  0.00  0.00    +0.000 A 
ATOM     12  C   UNL     1     -20.082   6.326 -32.501  0.00  0.00    +0.000 A 
ATOM     13  C   UNL     1     -20.573   8.158 -33.993  0.00  0.00    +0.000 A 
ATOM     14  C   UNL     1     -21.000   7.210 -33.065  0.00  0.00    +0.000 A 
ENDBRANCH   7   9
BRANCH   4  15
ATOM     15  C   UNL     1     -11.375   8.271 -35.674  0.00  0.00    +0.000 C 
BRANCH  15  18
ATOM     16 CL   UNL     1      -6.761   5.878 -35.940  0.00  0.00    +0.000 Cl
ATOM     17 CL   UNL     1      -8.272   3.337 -37.300  0.00  0.00    +0.000 Cl
ATOM     18  C   UNL     1     -10.592   7.030 -36.041  0.00  0.00    +0.000 A 
ATOM     19  C   UNL     1      -9.202   6.983 -35.845  0.00  0.00    +0.000 A 
ATOM     20  C   UNL     1     -11.233   5.925 -36.614  0.00  0.00    +0.000 A 
ATOM     21  C   UNL     1      -8.466   5.852 -36.218  0.00  0.00    +0.000 A 
ATOM     22  C   UNL     1     -10.499   4.796 -36.989  0.00  0.00    +0.000 A 
ATOM     23  C   UNL     1      -9.116   4.757 -36.796  0.00  0.00    +0.000 A 
ENDBRANCH  15  18
ENDBRANCH   4  15
TORSDOF 3
ENDMDL
MODEL 2
REMARK VINA RESULT:      -6.3      0.808      1.833
REMARK  Name = 16451663
REMARK  3 active torsions:
REMARK  status: ('A' for Active; 'I' for Inactive)
REMARK    1  A    between atoms: C_6  and  C_7
REMARK    2  A    between atoms: C_7  and  C_12
REMARK    3  A    between atoms: C_10  and  C_13
REMARK                            x       y       z     vdW  Elec       q    Type
REMARK                         _______ _______ _______ _____ _____    ______ ____
ROOT
ATOM      1  S   UNL     1     -13.047   7.670 -33.049  0.00  0.00    +0.000 S 
ATOM      2  N   UNL     1     -14.945   7.980 -34.741  0.00  0.00    +0.000 N 
ATOM      3  N   UNL     1     -15.829   7.284 -32.813  0.00  0.00    +0.000 NA
ATOM      4  C   UNL     1     -12.711   8.270 -34.701  0.00  0.00    +0.000 A 
ATOM      5  C   UNL     1     -14.734   7.589 -33.455  0.00  0.00    +0.000 A 
ATOM      6  C   UNL     1     -13.831   8.373 -35.443  0.00  0.00    +0.000 A 
ATOM      7  C   UNL     1     -16.817   7.462 -33.772  0.00  0.00    +0.000 A 
ATOM      8  C   UNL     1     -16.282   7.897 -34.978  0.00  0.00    +0.000 A 
ENDROOT
BRANCH   7   9
ATOM      9  C   UNL     1     -18.234   7.270 -33.513  0.00  0.00    +0.000 A 
ATOM     10  C   UNL     1     -19.174   8.114 -34.118  0.00  0.00    +0.000 A 
ATOM     11  C   UNL     1     -18.690   6.236 -32.681  0.00  0.00    +0.000 A 
ATOM     12  C   UNL     1     -20.542   7.911 -33.918  0.00  0.00    +0.000 A 
ATOM     13  C   UNL     1     -20.057   6.038 -32.475  0.00  0.00    +0.000 A 
ATOM     14  C   UNL     1     -20.983   6.872 -33.101  0.00  0.00    +0.000 A 
ENDBRANCH   7   9
BRANCH   4  15
ATOM     15  C   UNL     1     -11.327   8.670 -35.115  0.00  0.00    +0.000 C 
BRANCH  15  18
ATOM     16 CL   UNL     1     -11.067   4.123 -37.632  0.00  0.00    +0.000 Cl
ATOM     17 CL   UNL     1      -7.941   3.929 -36.747  0.00  0.00    +0.000 Cl
ATOM     18  C   UNL     1     -10.484   7.498 -35.562  0.00  0.00    +0.000 A 
ATOM     19  C   UNL     1     -11.053   6.460 -36.318  0.00  0.00    +0.000 A 
ATOM     20  C   UNL     1      -9.134   7.410 -35.199  0.00  0.00    +0.000 A 
ATOM     21  C   UNL     1     -10.287   5.353 -36.702  0.00  0.00    +0.000 A 
ATOM     22  C   UNL     1      -8.369   6.304 -35.580  0.00  0.00    +0.000 A 
ATOM     23  C   UNL     1      -8.942   5.273 -36.328  0.00  0.00    +0.000 A 
ENDBRANCH  15  18
ENDBRANCH   4  15
TORSDOF 3
ENDMDL
MODEL 3
REMARK VINA RESULT:      -6.2     20.753     23.587
REMARK  Name = 16451663
REMARK  3 active torsions:
REMARK  status: ('A' for Active; 'I' for Inactive)
REMARK    1  A    between atoms: C_6  and  C_7
REMARK    2  A    between atoms: C_7  and  C_12
REMARK    3  A    between atoms: C_10  and  C_13
REMARK                            x       y       z     vdW  Elec       q    Type
REMARK                         _______ _______ _______ _____ _____    ______ ____
ROOT
ATOM      1  S   UNL     1      -2.777   5.169 -57.204  0.00  0.00    +0.000 S 
ATOM      2  N   UNL     1      -4.011   5.488 -54.984  0.00  0.00    +0.000 N 
ATOM      3  N   UNL     1      -3.888   3.301 -55.410  0.00  0.00    +0.000 NA
ATOM      4  C   UNL     1      -3.019   6.804 -56.520  0.00  0.00    +0.000 A 
ATOM      5  C   UNL     1      -3.606   4.504 -55.831  0.00  0.00    +0.000 A 
ATOM      6  C   UNL     1      -3.683   6.771 -55.348  0.00  0.00    +0.000 A 
ATOM      7  C   UNL     1      -4.556   3.532 -54.216  0.00  0.00    +0.000 A 
ATOM      8  C   UNL     1      -4.640   4.890 -53.936  0.00  0.00    +0.000 A 
ENDROOT
BRANCH   7   9
ATOM      9  C   UNL     1      -5.049   2.473 -53.350  0.00  0.00    +0.000 A 
ATOM     10  C   UNL     1      -5.886   1.480 -53.872  0.00  0.00    +0.000 A 
ATOM     11  C   UNL     1      -4.685   2.409 -51.997  0.00  0.00    +0.000 A 
ATOM     12  C   UNL     1      -6.329   0.428 -53.065  0.00  0.00    +0.000 A 
ATOM     13  C   UNL     1      -5.133   1.362 -51.188  0.00  0.00    +0.000 A 
ATOM     14  C   UNL     1      -5.948   0.368 -51.725  0.00  0.00    +0.000 A 
ENDBRANCH   7   9
BRANCH   4  15
ATOM     15  C   UNL     1      -2.450   8.018 -57.189  0.00  0.00    +0.000 C 
BRANCH  15  18
ATOM     16 CL   UNL     1       1.487   8.069 -53.787  0.00  0.00    +0.000 Cl
ATOM     17 CL   UNL     1       3.468   8.849 -56.249  0.00  0.00    +0.000 Cl
ATOM     18  C   UNL     1      -0.968   8.185 -56.946  0.00  0.00    +0.000 A 
ATOM     19  C   UNL     1      -0.441   8.056 -55.650  0.00  0.00    +0.000 A 
ATOM     20  C   UNL     1      -0.103   8.508 -57.999  0.00  0.00    +0.000 A 
ATOM     21  C   UNL     1       0.925   8.248 -55.411  0.00  0.00    +0.000 A 
ATOM     22  C   UNL     1       1.261   8.702 -57.762  0.00  0.00    +0.000 A 
ATOM     23  C   UNL     1       1.777   8.577 -56.470  0.00  0.00    +0.000 A 
ENDBRANCH  15  18
ENDBRANCH   4  15
TORSDOF 3
ENDMDL
MODEL 4
REMARK VINA RESULT:      -6.0     20.754     22.929
REMARK  Name = 16451663
REMARK  3 active torsions:
REMARK  status: ('A' for Active; 'I' for Inactive)
REMARK    1  A    between atoms: C_6  and  C_7
REMARK    2  A    between atoms: C_7  and  C_12
REMARK    3  A    between atoms: C_10  and  C_13
REMARK                            x       y       z     vdW  Elec       q    Type
REMARK                         _______ _______ _______ _____ _____    ______ ____
ROOT
ATOM      1  S   UNL     1      -4.498   5.352 -54.399  0.00  0.00    +0.000 S 
ATOM      2  N   UNL     1      -4.521   2.939 -55.257  0.00  0.00    +0.000 N 
ATOM      3  N   UNL     1      -5.770   3.041 -53.410  0.00  0.00    +0.000 NA
ATOM      4  C   UNL     1      -3.634   4.907 -55.902  0.00  0.00    +0.000 A 
ATOM      5  C   UNL     1      -5.009   3.700 -54.240  0.00  0.00    +0.000 A 
ATOM      6  C   UNL     1      -3.764   3.599 -56.195  0.00  0.00    +0.000 A 
ATOM      7  C   UNL     1      -5.743   1.748 -53.915  0.00  0.00    +0.000 A 
ATOM      8  C   UNL     1      -4.970   1.669 -55.066  0.00  0.00    +0.000 A 
ENDROOT
BRANCH   7   9
ATOM      9  C   UNL     1      -6.483   0.640 -53.334  0.00  0.00    +0.000 A 
ATOM     10  C   UNL     1      -7.574   0.094 -54.021  0.00  0.00    +0.000 A 
ATOM     11  C   UNL     1      -6.114   0.085 -52.100  0.00  0.00    +0.000 A 
ATOM     12  C   UNL     1      -8.265  -1.003 -53.499  0.00  0.00    +0.000 A 
ATOM     13  C   UNL     1      -6.809  -1.007 -51.574  0.00  0.00    +0.000 A 
ATOM     14  C   UNL     1      -7.880  -1.555 -52.278  0.00  0.00    +0.000 A 
ENDBRANCH   7   9
BRANCH   4  15
ATOM     15  C   UNL     1      -2.935   5.942 -56.731  0.00  0.00    +0.000 C 
BRANCH  15  18
ATOM     16 CL   UNL     1       0.585   9.084 -54.534  0.00  0.00    +0.000 Cl
ATOM     17 CL   UNL     1       2.849   6.843 -55.199  0.00  0.00    +0.000 Cl
ATOM     18  C   UNL     1      -1.500   6.165 -56.308  0.00  0.00    +0.000 A 
ATOM     19  C   UNL     1      -1.124   7.359 -55.672  0.00  0.00    +0.000 A 
ATOM     20  C   UNL     1      -0.520   5.202 -56.577  0.00  0.00    +0.000 A 
ATOM     21  C   UNL     1       0.210   7.588 -55.314  0.00  0.00    +0.000 A 
ATOM     22  C   UNL     1       0.813   5.430 -56.221  0.00  0.00    +0.000 A 
ATOM     23  C   UNL     1       1.182   6.622 -55.593  0.00  0.00    +0.000 A 
ENDBRANCH  15  18
ENDBRANCH   4  15
TORSDOF 3
ENDMDL
MODEL 5
REMARK VINA RESULT:      -6.0      4.283      9.407
REMARK  Name = 16451663
REMARK  3 active torsions:
REMARK  status: ('A' for Active; 'I' for Inactive)
REMARK    1  A    between atoms: C_6  and  C_7
REMARK    2  A    between atoms: C_7  and  C_12
REMARK    3  A    between atoms: C_10  and  C_13
REMARK                            x       y       z     vdW  Elec       q    Type
REMARK                         _______ _______ _______ _____ _____    ______ ____
ROOT
ATOM      1  S   UNL     1     -11.594   6.349 -32.812  0.00  0.00    +0.000 S 
ATOM      2  N   UNL     1     -11.060   5.397 -35.128  0.00  0.00    +0.000 N 
ATOM      3  N   UNL     1      -9.176   6.209 -34.251  0.00  0.00    +0.000 NA
ATOM      4  C   UNL     1     -12.868   5.566 -33.795  0.00  0.00    +0.000 A 
ATOM      5  C   UNL     1     -10.457   6.027 -34.084  0.00  0.00    +0.000 A 
ATOM      6  C   UNL     1     -12.398   5.124 -34.978  0.00  0.00    +0.000 A 
ATOM      7  C   UNL     1      -8.943   5.684 -35.515  0.00  0.00    +0.000 A 
ATOM      8  C   UNL     1     -10.108   5.173 -36.074  0.00  0.00    +0.000 A 
ENDROOT
BRANCH   7   9
ATOM      9  C   UNL     1      -7.631   5.631 -36.137  0.00  0.00    +0.000 A 
ATOM     10  C   UNL     1      -6.850   4.475 -36.018  0.00  0.00    +0.000 A 
ATOM     11  C   UNL     1      -7.131   6.712 -36.879  0.00  0.00    +0.000 A 
ATOM     12  C   UNL     1      -5.607   4.390 -36.652  0.00  0.00    +0.000 A 
ATOM     13  C   UNL     1      -5.885   6.630 -37.506  0.00  0.00    +0.000 A 
ATOM     14  C   UNL     1      -5.127   5.466 -37.398  0.00  0.00    +0.000 A 
ENDBRANCH   7   9
BRANCH   4  15
ATOM     15  C   UNL     1     -14.258   5.386 -33.264  0.00  0.00    +0.000 C 
BRANCH  15  18
ATOM     16 CL   UNL     1     -19.020   7.473 -33.045  0.00  0.00    +0.000 Cl
ATOM     17 CL   UNL     1     -18.103   9.555 -35.372  0.00  0.00    +0.000 Cl
ATOM     18  C   UNL     1     -15.218   6.447 -33.754  0.00  0.00    +0.000 A 
ATOM     19  C   UNL     1     -16.526   6.510 -33.247  0.00  0.00    +0.000 A 
ATOM     20  C   UNL     1     -14.830   7.357 -34.745  0.00  0.00    +0.000 A 
ATOM     21  C   UNL     1     -17.432   7.465 -33.725  0.00  0.00    +0.000 A 
ATOM     22  C   UNL     1     -15.734   8.310 -35.224  0.00  0.00    +0.000 A 
ATOM     23  C   UNL     1     -17.035   8.364 -34.719  0.00  0.00    +0.000 A 
ENDBRANCH  15  18
ENDBRANCH   4  15
TORSDOF 3
ENDMDL
MODEL 6
REMARK VINA RESULT:      -5.8      6.739     11.449
REMARK  Name = 16451663
REMARK  3 active torsions:
REMARK  status: ('A' for Active; 'I' for Inactive)
REMARK    1  A    between atoms: C_6  and  C_7
REMARK    2  A    between atoms: C_7  and  C_12
REMARK    3  A    between atoms: C_10  and  C_13
REMARK                            x       y       z     vdW  Elec       q    Type
REMARK                         _______ _______ _______ _____ _____    ______ ____
ROOT
ATOM      1  S   UNL     1      -8.311   1.879 -35.123  0.00  0.00    +0.000 S 
ATOM      2  N   UNL     1      -5.762   1.809 -34.892  0.00  0.00    +0.000 N 
ATOM      3  N   UNL     1      -6.646   0.499 -33.317  0.00  0.00    +0.000 NA
ATOM      4  C   UNL     1      -7.265   2.781 -36.260  0.00  0.00    +0.000 A 
ATOM      5  C   UNL     1      -6.886   1.310 -34.310  0.00  0.00    +0.000 A 
ATOM      6  C   UNL     1      -5.956   2.620 -35.984  0.00  0.00    +0.000 A 
ATOM      7  C   UNL     1      -5.260   0.503 -33.232  0.00  0.00    +0.000 A 
ATOM      8  C   UNL     1      -4.695   1.313 -34.208  0.00  0.00    +0.000 A 
ENDROOT
BRANCH   7   9
ATOM      9  C   UNL     1      -4.509  -0.292 -32.275  0.00  0.00    +0.000 A 
ATOM     10  C   UNL     1      -3.144  -0.046 -32.084  0.00  0.00    +0.000 A 
ATOM     11  C   UNL     1      -5.129  -1.295 -31.515  0.00  0.00    +0.000 A 
ATOM     12  C   UNL     1      -2.419  -0.768 -31.132  0.00  0.00    +0.000 A 
ATOM     13  C   UNL     1      -4.402  -2.023 -30.569  0.00  0.00    +0.000 A 
ATOM     14  C   UNL     1      -3.049  -1.753 -30.373  0.00  0.00    +0.000 A 
ENDBRANCH   7   9
BRANCH   4  15
ATOM     15  C   UNL     1      -7.846   3.542 -37.413  0.00  0.00    +0.000 C 
BRANCH  15  18
ATOM     16 CL   UNL     1      -9.164   7.863 -34.830  0.00  0.00    +0.000 Cl
ATOM     17 CL   UNL     1     -12.261   7.280 -35.641  0.00  0.00    +0.000 Cl
ATOM     18  C   UNL     1      -8.934   4.505 -36.995  0.00  0.00    +0.000 A 
ATOM     19  C   UNL     1      -8.625   5.630 -36.212  0.00  0.00    +0.000 A 
ATOM     20  C   UNL     1     -10.269   4.272 -37.349  0.00  0.00    +0.000 A 
ATOM     21  C   UNL     1      -9.633   6.504 -35.789  0.00  0.00    +0.000 A 
ATOM     22  C   UNL     1     -11.276   5.144 -36.926  0.00  0.00    +0.000 A 
ATOM     23  C   UNL     1     -10.963   6.258 -36.143  0.00  0.00    +0.000 A 
ENDBRANCH  15  18
ENDBRANCH   4  15
TORSDOF 3
ENDMDL
MODEL 7
REMARK VINA RESULT:      -5.8     21.051     24.217
REMARK  Name = 16451663
REMARK  3 active torsions:
REMARK  status: ('A' for Active; 'I' for Inactive)
REMARK    1  A    between atoms: C_6  and  C_7
REMARK    2  A    between atoms: C_7  and  C_12
REMARK    3  A    between atoms: C_10  and  C_13
REMARK                            x       y       z     vdW  Elec       q    Type
REMARK                         _______ _______ _______ _____ _____    ______ ____
ROOT
ATOM      1  S   UNL     1      -3.889   3.633 -55.892  0.00  0.00    +0.000 S 
ATOM      2  N   UNL     1      -3.466   6.121 -55.457  0.00  0.00    +0.000 N 
ATOM      3  N   UNL     1      -2.176   5.477 -57.160  0.00  0.00    +0.000 NA
ATOM      4  C   UNL     1      -4.793   4.505 -54.618  0.00  0.00    +0.000 A 
ATOM      5  C   UNL     1      -3.056   5.110 -56.269  0.00  0.00    +0.000 A 
ATOM      6  C   UNL     1      -4.439   5.803 -54.540  0.00  0.00    +0.000 A 
ATOM      7  C   UNL     1      -1.981   6.822 -56.877  0.00  0.00    +0.000 A 
ATOM      8  C   UNL     1      -2.778   7.238 -55.818  0.00  0.00    +0.000 A 
ENDROOT
BRANCH   7   9
ATOM      9  C   UNL     1      -1.094   7.685 -57.638  0.00  0.00    +0.000 A 
ATOM     10  C   UNL     1       0.132   8.081 -57.090  0.00  0.00    +0.000 A 
ATOM     11  C   UNL     1      -1.429   8.118 -58.929  0.00  0.00    +0.000 A 
ATOM     12  C   UNL     1       1.018   8.870 -57.828  0.00  0.00    +0.000 A 
ATOM     13  C   UNL     1      -0.547   8.914 -59.665  0.00  0.00    +0.000 A 
ATOM     14  C   UNL     1       0.680   9.283 -59.116  0.00  0.00    +0.000 A 
ENDBRANCH   7   9
BRANCH   4  15
ATOM     15  C   UNL     1      -5.865   3.823 -53.822  0.00  0.00    +0.000 C 
BRANCH  15  18
ATOM     16 CL   UNL     1      -2.427   1.835 -50.459  0.00  0.00    +0.000 Cl
ATOM     17 CL   UNL     1      -3.790  -1.079 -50.946  0.00  0.00    +0.000 Cl
ATOM     18  C   UNL     1      -5.360   2.614 -53.067  0.00  0.00    +0.000 A 
ATOM     19  C   UNL     1      -4.268   2.728 -52.191  0.00  0.00    +0.000 A 
ATOM     20  C   UNL     1      -5.947   1.358 -53.259  0.00  0.00    +0.000 A 
ATOM     21  C   UNL     1      -3.771   1.605 -51.519  0.00  0.00    +0.000 A 
ATOM     22  C   UNL     1      -5.451   0.235 -52.590  0.00  0.00    +0.000 A 
ATOM     23  C   UNL     1      -4.362   0.354 -51.723  0.00  0.00    +0.000 A 
ENDBRANCH  15  18
ENDBRANCH   4  15
TORSDOF 3
ENDMDL
MODEL 8
REMARK VINA RESULT:      -5.8     16.373     19.159
REMARK  Name = 16451663
REMARK  3 active torsions:
REMARK  status: ('A' for Active; 'I' for Inactive)
REMARK    1  A    between atoms: C_6  and  C_7
REMARK    2  A    between atoms: C_7  and  C_12
REMARK    3  A    between atoms: C_10  and  C_13
REMARK                            x       y       z     vdW  Elec       q    Type
REMARK                         _______ _______ _______ _____ _____    ______ ____
ROOT
ATOM      1  S   UNL     1      -6.027  -4.232 -50.318  0.00  0.00    +0.000 S 
ATOM      2  N   UNL     1      -8.210  -3.660 -49.109  0.00  0.00    +0.000 N 
ATOM      3  N   UNL     1      -6.763  -4.454 -47.608  0.00  0.00    +0.000 NA
ATOM      4  C   UNL     1      -7.406  -3.520 -51.209  0.00  0.00    +0.000 A 
ATOM      5  C   UNL     1      -6.973  -4.169 -48.864  0.00  0.00    +0.000 A 
ATOM      6  C   UNL     1      -8.462  -3.283 -50.407  0.00  0.00    +0.000 A 
ATOM      7  C   UNL     1      -7.972  -4.133 -47.004  0.00  0.00    +0.000 A 
ATOM      8  C   UNL     1      -8.883  -3.635 -47.926  0.00  0.00    +0.000 A 
ENDROOT
BRANCH   7   9
ATOM      9  C   UNL     1      -8.217  -4.253 -45.577  0.00  0.00    +0.000 A 
ATOM     10  C   UNL     1      -9.073  -5.252 -45.098  0.00  0.00    +0.000 A 
ATOM     11  C   UNL     1      -7.592  -3.399 -44.655  0.00  0.00    +0.000 A 
ATOM     12  C   UNL     1      -9.280  -5.412 -43.725  0.00  0.00    +0.000 A 
ATOM     13  C   UNL     1      -7.805  -3.553 -43.283  0.00  0.00    +0.000 A 
ATOM     14  C   UNL     1      -8.644  -4.566 -42.819  0.00  0.00    +0.000 A 
ENDBRANCH   7   9
BRANCH   4  15
ATOM     15  C   UNL     1      -7.297  -3.178 -52.664  0.00  0.00    +0.000 C 
BRANCH  15  18
ATOM     16 CL   UNL     1      -4.693   1.011 -51.005  0.00  0.00    +0.000 Cl
ATOM     17 CL   UNL     1      -5.832   2.618 -53.595  0.00  0.00    +0.000 Cl
ATOM     18  C   UNL     1      -6.892  -1.741 -52.903  0.00  0.00    +0.000 A 
ATOM     19  C   UNL     1      -6.063  -1.073 -51.986  0.00  0.00    +0.000 A 
ATOM     20  C   UNL     1      -7.365  -1.043 -54.021  0.00  0.00    +0.000 A 
ATOM     21  C   UNL     1      -5.717   0.269 -52.182  0.00  0.00    +0.000 A 
ATOM     22  C   UNL     1      -7.021   0.298 -54.217  0.00  0.00    +0.000 A 
ATOM     23  C   UNL     1      -6.201   0.957 -53.298  0.00  0.00    +0.000 A 
ENDBRANCH  15  18
ENDBRANCH   4  15
TORSDOF 3
ENDMDL
MODEL 9
REMARK VINA RESULT:      -5.8      6.448      9.966
REMARK  Name = 16451663
REMARK  3 active torsions:
REMARK  status: ('A' for Active; 'I' for Inactive)
REMARK    1  A    between atoms: C_6  and  C_7
REMARK    2  A    between atoms: C_7  and  C_12
REMARK    3  A    between atoms: C_10  and  C_13
REMARK                            x       y       z     vdW  Elec       q    Type
REMARK                         _______ _______ _______ _____ _____    ______ ____
ROOT
ATOM      1  S   UNL     1     -10.148   8.491 -30.780  0.00  0.00    +0.000 S 
ATOM      2  N   UNL     1      -8.185  10.127 -30.939  0.00  0.00    +0.000 N 
ATOM      3  N   UNL     1      -7.732   8.640 -29.338  0.00  0.00    +0.000 NA
ATOM      4  C   UNL     1     -10.145   9.799 -32.000  0.00  0.00    +0.000 A 
ATOM      5  C   UNL     1      -8.596   9.042 -30.229  0.00  0.00    +0.000 A 
ATOM      6  C   UNL     1      -9.030  10.553 -31.935  0.00  0.00    +0.000 A 
ATOM      7  C   UNL     1      -6.698   9.559 -29.462  0.00  0.00    +0.000 A 
ATOM      8  C   UNL     1      -6.965  10.491 -30.457  0.00  0.00    +0.000 A 
ENDROOT
BRANCH   7   9
ATOM      9  C   UNL     1      -5.473   9.504 -28.683  0.00  0.00    +0.000 A 
ATOM     10  C   UNL     1      -4.318  10.137 -29.156  0.00  0.00    +0.000 A 
ATOM     11  C   UNL     1      -5.425   8.844 -27.446  0.00  0.00    +0.000 A 
ATOM     12  C   UNL     1      -3.145  10.135 -28.395  0.00  0.00    +0.000 A 
ATOM     13  C   UNL     1      -4.251   8.835 -26.689  0.00  0.00    +0.000 A 
ATOM     14  C   UNL     1      -3.114   9.488 -27.161  0.00  0.00    +0.000 A 
ENDBRANCH   7   9
BRANCH   4  15
ATOM     15  C   UNL     1     -11.254   9.931 -33.000  0.00  0.00    +0.000 C 
BRANCH  15  18
ATOM     16 CL   UNL     1      -8.559   6.721 -36.086  0.00  0.00    +0.000 Cl
ATOM     17 CL   UNL     1     -11.395   5.533 -37.153  0.00  0.00    +0.000 Cl
ATOM     18  C   UNL     1     -11.272   8.806 -34.010  0.00  0.00    +0.000 A 
ATOM     19  C   UNL     1     -10.071   8.300 -34.533  0.00  0.00    +0.000 A 
ATOM     20  C   UNL     1     -12.486   8.277 -34.467  0.00  0.00    +0.000 A 
ATOM     21  C   UNL     1     -10.083   7.285 -35.498  0.00  0.00    +0.000 A 
ATOM     22  C   UNL     1     -12.499   7.265 -35.431  0.00  0.00    +0.000 A 
ATOM     23  C   UNL     1     -11.301   6.770 -35.951  0.00  0.00    +0.000 A 
ENDBRANCH  15  18
ENDBRANCH   4  15
TORSDOF 3
ENDMDL
MODEL 10
REMARK VINA RESULT:      -5.7      8.733     11.896
REMARK  Name = 16451663
REMARK  3 active torsions:
REMARK  status: ('A' for Active; 'I' for Inactive)
REMARK    1  A    between atoms: C_6  and  C_7
REMARK    2  A    between atoms: C_7  and  C_12
REMARK    3  A    between atoms: C_10  and  C_13
REMARK                            x       y       z     vdW  Elec       q    Type
REMARK                         _______ _______ _______ _____ _____    ______ ____
ROOT
ATOM      1  S   UNL     1      -5.714   1.676 -31.369  0.00  0.00    +0.000 S 
ATOM      2  N   UNL     1      -5.898   1.631 -33.922  0.00  0.00    +0.000 N 
ATOM      3  N   UNL     1      -6.285   3.716 -33.227  0.00  0.00    +0.000 NA
ATOM      4  C   UNL     1      -5.414   0.166 -32.281  0.00  0.00    +0.000 A 
ATOM      5  C   UNL     1      -6.016   2.489 -32.873  0.00  0.00    +0.000 A 
ATOM      6  C   UNL     1      -5.553   0.338 -33.610  0.00  0.00    +0.000 A 
ATOM      7  C   UNL     1      -6.380   3.633 -34.610  0.00  0.00    +0.000 A 
ATOM      8  C   UNL     1      -6.140   2.341 -35.058  0.00  0.00    +0.000 A 
ENDROOT
BRANCH   7   9
ATOM      9  C   UNL     1      -6.640   4.775 -35.469  0.00  0.00    +0.000 A 
ATOM     10  C   UNL     1      -7.766   5.575 -35.243  0.00  0.00    +0.000 A 
ATOM     11  C   UNL     1      -5.770   5.112 -36.517  0.00  0.00    +0.000 A 
ATOM     12  C   UNL     1      -8.004   6.706 -36.030  0.00  0.00    +0.000 A 
ATOM     13  C   UNL     1      -6.012   6.238 -37.309  0.00  0.00    +0.000 A 
ATOM     14  C   UNL     1      -7.125   7.038 -37.059  0.00  0.00    +0.000 A 
ENDBRANCH   7   9
BRANCH   4  15
ATOM     15  C   UNL     1      -4.983  -1.089 -31.584  0.00  0.00    +0.000 C 
BRANCH  15  18
ATOM     16 CL   UNL     1      -0.466  -0.875 -29.008  0.00  0.00    +0.000 Cl
ATOM     17 CL   UNL     1       1.027  -1.759 -31.761  0.00  0.00    +0.000 Cl
ATOM     18  C   UNL     1      -3.484  -1.289 -31.603  0.00  0.00    +0.000 A 
ATOM     19  C   UNL     1      -2.720  -1.047 -30.450  0.00  0.00    +0.000 A 
ATOM     20  C   UNL     1      -2.832  -1.682 -32.778  0.00  0.00    +0.000 A 
ATOM     21  C   UNL     1      -1.328  -1.193 -30.472  0.00  0.00    +0.000 A 
ATOM     22  C   UNL     1      -1.442  -1.827 -32.802  0.00  0.00    +0.000 A 
ATOM     23  C   UNL     1      -0.687  -1.579 -31.652  0.00  0.00    +0.000 A 
ENDBRANCH  15  18
ENDBRANCH   4  15
TORSDOF 3
ENDMDL
