MODEL 1
REMARK VINA RESULT:      -7.0      0.000      0.000
REMARK  Name = 16451671
REMARK  3 active torsions:
REMARK  status: ('A' for Active; 'I' for Inactive)
REMARK    1  A    between atoms: C_7  and  C_8
REMARK    2  A    between atoms: C_8  and  C_13
REMARK    3  A    between atoms: C_11  and  C_14
REMARK                            x       y       z     vdW  Elec       q    Type
REMARK                         _______ _______ _______ _____ _____    ______ ____
ROOT
ATOM      1  S   UNL     1     -17.219   5.577  24.706  0.00  0.00    +0.000 S 
ATOM      2  N   UNL     1     -15.008   4.727  23.737  0.00  0.00    +0.000 N 
ATOM      3  N   UNL     1     -15.568   6.599  22.661  0.00  0.00    +0.000 NA
ATOM      4  C   UNL     1     -16.452   4.092  25.344  0.00  0.00    +0.000 A 
ATOM      5  C   UNL     1     -15.903   5.740  23.585  0.00  0.00    +0.000 A 
ATOM      6  C   UNL     1     -15.294   3.808  24.716  0.00  0.00    +0.000 A 
ATOM      7  C   UNL     1     -14.387   6.076  22.153  0.00  0.00    +0.000 A 
ATOM      8  C   UNL     1     -14.018   4.918  22.826  0.00  0.00    +0.000 A 
ENDROOT
BRANCH   7  10
ATOM      9 CL   UNL     1     -11.299   8.568  17.684  0.00  0.00    +0.000 Cl
ATOM     10  C   UNL     1     -13.642   6.681  21.063  0.00  0.00    +0.000 A 
ATOM     11  C   UNL     1     -12.243   6.617  21.047  0.00  0.00    +0.000 A 
ATOM     12  C   UNL     1     -14.303   7.344  20.017  0.00  0.00    +0.000 A 
ATOM     13  C   UNL     1     -11.517   7.193  19.999  0.00  0.00    +0.000 A 
ATOM     14  C   UNL     1     -13.578   7.928  18.974  0.00  0.00    +0.000 A 
ATOM     15  C   UNL     1     -12.189   7.848  18.969  0.00  0.00    +0.000 A 
ENDBRANCH   7  10
BRANCH   4  16
ATOM     16  C   UNL     1     -17.047   3.340  26.496  0.00  0.00    +0.000 C 
BRANCH  16  19
ATOM     17 CL   UNL     1     -13.745   2.276  30.377  0.00  0.00    +0.000 Cl
ATOM     18 CL   UNL     1     -14.860   4.920  31.914  0.00  0.00    +0.000 Cl
ATOM     19  C   UNL     1     -16.464   3.743  27.833  0.00  0.00    +0.000 A 
ATOM     20  C   UNL     1     -15.475   2.956  28.444  0.00  0.00    +0.000 A 
ATOM     21  C   UNL     1     -16.925   4.886  28.497  0.00  0.00    +0.000 A 
ATOM     22  C   UNL     1     -14.959   3.302  29.698  0.00  0.00    +0.000 A 
ATOM     23  C   UNL     1     -16.412   5.233  29.750  0.00  0.00    +0.000 A 
ATOM     24  C   UNL     1     -15.433   4.441  30.356  0.00  0.00    +0.000 A 
ENDBRANCH  16  19
ENDBRANCH   4  16
TORSDOF 3
ENDMDL
MODEL 2
REMARK VINA RESULT:      -6.8     16.130     17.551
REMARK  Name = 16451671
REMARK  3 active torsions:
REMARK  status: ('A' for Active; 'I' for Inactive)
REMARK    1  A    between atoms: C_7  and  C_8
REMARK    2  A    between atoms: C_8  and  C_13
REMARK    3  A    between atoms: C_11  and  C_14
REMARK                            x       y       z     vdW  Elec       q    Type
REMARK                         _______ _______ _______ _____ _____    ______ ____
ROOT
ATOM      1  S   UNL     1     -10.424  -9.759  15.657  0.00  0.00    +0.000 S 
ATOM      2  N   UNL     1     -10.784  -7.284  16.203  0.00  0.00    +0.000 N 
ATOM      3  N   UNL     1     -11.898  -7.756  14.328  0.00  0.00    +0.000 NA
ATOM      4  C   UNL     1      -9.686  -9.027  17.114  0.00  0.00    +0.000 A 
ATOM      5  C   UNL     1     -11.124  -8.216  15.272  0.00  0.00    +0.000 A 
ATOM      6  C   UNL     1      -9.994  -7.720  17.236  0.00  0.00    +0.000 A 
ATOM      7  C   UNL     1     -12.035  -6.414  14.656  0.00  0.00    +0.000 A 
ATOM      8  C   UNL     1     -11.359  -6.110  15.831  0.00  0.00    +0.000 A 
ENDROOT
BRANCH   7  10
ATOM      9 CL   UNL     1     -15.195  -2.530  11.393  0.00  0.00    +0.000 Cl
ATOM     10  C   UNL     1     -12.798  -5.465  13.863  0.00  0.00    +0.000 A 
ATOM     11  C   UNL     1     -14.198  -5.498  13.884  0.00  0.00    +0.000 A 
ATOM     12  C   UNL     1     -12.153  -4.512  13.061  0.00  0.00    +0.000 A 
ATOM     13  C   UNL     1     -14.941  -4.585  13.126  0.00  0.00    +0.000 A 
ATOM     14  C   UNL     1     -12.894  -3.605  12.297  0.00  0.00    +0.000 A 
ATOM     15  C   UNL     1     -14.285  -3.645  12.334  0.00  0.00    +0.000 A 
ENDBRANCH   7  10
BRANCH   4  16
ATOM     16  C   UNL     1      -8.890  -9.848  18.081  0.00  0.00    +0.000 C 
BRANCH  16  19
ATOM     17 CL   UNL     1      -4.182 -11.789  19.159  0.00  0.00    +0.000 Cl
ATOM     18 CL   UNL     1      -3.120 -10.491  16.370  0.00  0.00    +0.000 Cl
ATOM     19  C   UNL     1      -7.454 -10.049  17.649  0.00  0.00    +0.000 A 
ATOM     20  C   UNL     1      -6.556 -10.753  18.468  0.00  0.00    +0.000 A 
ATOM     21  C   UNL     1      -6.990  -9.508  16.444  0.00  0.00    +0.000 A 
ATOM     22  C   UNL     1      -5.217 -10.909  18.091  0.00  0.00    +0.000 A 
ATOM     23  C   UNL     1      -5.652  -9.662  16.067  0.00  0.00    +0.000 A 
ATOM     24  C   UNL     1      -4.763 -10.357  16.890  0.00  0.00    +0.000 A 
ENDBRANCH  16  19
ENDBRANCH   4  16
TORSDOF 3
ENDMDL
MODEL 3
REMARK VINA RESULT:      -6.6      6.993     13.076
REMARK  Name = 16451671
REMARK  3 active torsions:
REMARK  status: ('A' for Active; 'I' for Inactive)
REMARK    1  A    between atoms: C_7  and  C_8
REMARK    2  A    between atoms: C_8  and  C_13
REMARK    3  A    between atoms: C_11  and  C_14
REMARK                            x       y       z     vdW  Elec       q    Type
REMARK                         _______ _______ _______ _____ _____    ______ ____
ROOT
ATOM      1  S   UNL     1     -10.838  13.378  18.089  0.00  0.00    +0.000 S 
ATOM      2  N   UNL     1     -10.259  10.903  17.797  0.00  0.00    +0.000 N 
ATOM      3  N   UNL     1     -11.849  11.069  19.353  0.00  0.00    +0.000 NA
ATOM      4  C   UNL     1      -9.603  12.863  16.902  0.00  0.00    +0.000 A 
ATOM      5  C   UNL     1     -11.075  11.713  18.523  0.00  0.00    +0.000 A 
ATOM      6  C   UNL     1      -9.442  11.525  16.886  0.00  0.00    +0.000 A 
ATOM      7  C   UNL     1     -11.474   9.745  19.174  0.00  0.00    +0.000 A 
ATOM      8  C   UNL     1     -10.495   9.625  18.196  0.00  0.00    +0.000 A 
ENDROOT
BRANCH   7  10
ATOM      9 CL   UNL     1     -13.818   5.172  22.226  0.00  0.00    +0.000 Cl
ATOM     10  C   UNL     1     -12.048   8.637  19.919  0.00  0.00    +0.000 A 
ATOM     11  C   UNL     1     -11.253   7.538  20.269  0.00  0.00    +0.000 A 
ATOM     12  C   UNL     1     -13.402   8.642  20.290  0.00  0.00    +0.000 A 
ATOM     13  C   UNL     1     -11.798   6.469  20.989  0.00  0.00    +0.000 A 
ATOM     14  C   UNL     1     -13.948   7.570  21.002  0.00  0.00    +0.000 A 
ATOM     15  C   UNL     1     -13.143   6.490  21.350  0.00  0.00    +0.000 A 
ENDBRANCH   7  10
BRANCH   4  16
ATOM     16  C   UNL     1      -8.919  13.852  16.009  0.00  0.00    +0.000 C 
BRANCH  16  19
ATOM     17 CL   UNL     1      -6.079  16.179  19.698  0.00  0.00    +0.000 Cl
ATOM     18 CL   UNL     1      -3.436  15.586  17.894  0.00  0.00    +0.000 Cl
ATOM     19  C   UNL     1      -7.551  14.259  16.511  0.00  0.00    +0.000 A 
ATOM     20  C   UNL     1      -7.414  14.938  17.732  0.00  0.00    +0.000 A 
ATOM     21  C   UNL     1      -6.405  13.996  15.750  0.00  0.00    +0.000 A 
ATOM     22  C   UNL     1      -6.155  15.350  18.184  0.00  0.00    +0.000 A 
ATOM     23  C   UNL     1      -5.147  14.408  16.199  0.00  0.00    +0.000 A 
ATOM     24  C   UNL     1      -5.019  15.089  17.412  0.00  0.00    +0.000 A 
ENDBRANCH  16  19
ENDBRANCH   4  16
TORSDOF 3
ENDMDL
MODEL 4
REMARK VINA RESULT:      -6.5      1.151      1.806
REMARK  Name = 16451671
REMARK  3 active torsions:
REMARK  status: ('A' for Active; 'I' for Inactive)
REMARK    1  A    between atoms: C_7  and  C_8
REMARK    2  A    between atoms: C_8  and  C_13
REMARK    3  A    between atoms: C_11  and  C_14
REMARK                            x       y       z     vdW  Elec       q    Type
REMARK                         _______ _______ _______ _____ _____    ______ ____
ROOT
ATOM      1  S   UNL     1     -17.453   5.267  24.882  0.00  0.00    +0.000 S 
ATOM      2  N   UNL     1     -15.247   4.469  23.858  0.00  0.00    +0.000 N 
ATOM      3  N   UNL     1     -15.592   6.579  23.217  0.00  0.00    +0.000 NA
ATOM      4  C   UNL     1     -16.843   3.615  25.197  0.00  0.00    +0.000 A 
ATOM      5  C   UNL     1     -16.053   5.565  23.898  0.00  0.00    +0.000 A 
ATOM      6  C   UNL     1     -15.667   3.381  24.581  0.00  0.00    +0.000 A 
ATOM      7  C   UNL     1     -14.419   6.083  22.665  0.00  0.00    +0.000 A 
ATOM      8  C   UNL     1     -14.183   4.776  23.069  0.00  0.00    +0.000 A 
ENDROOT
BRANCH   7  10
ATOM      9 CL   UNL     1     -10.849   9.234  19.052  0.00  0.00    +0.000 Cl
ATOM     10  C   UNL     1     -13.557   6.853  21.784  0.00  0.00    +0.000 A 
ATOM     11  C   UNL     1     -12.349   6.307  21.331  0.00  0.00    +0.000 A 
ATOM     12  C   UNL     1     -13.909   8.150  21.381  0.00  0.00    +0.000 A 
ATOM     13  C   UNL     1     -11.514   7.039  20.480  0.00  0.00    +0.000 A 
ATOM     14  C   UNL     1     -13.072   8.886  20.537  0.00  0.00    +0.000 A 
ATOM     15  C   UNL     1     -11.879   8.326  20.090  0.00  0.00    +0.000 A 
ENDBRANCH   7  10
BRANCH   4  16
ATOM     16  C   UNL     1     -17.571   2.676  26.111  0.00  0.00    +0.000 C 
BRANCH  16  19
ATOM     17 CL   UNL     1     -15.447   4.703  30.409  0.00  0.00    +0.000 Cl
ATOM     18 CL   UNL     1     -14.550   1.693  31.263  0.00  0.00    +0.000 Cl
ATOM     19  C   UNL     1     -16.849   2.442  27.419  0.00  0.00    +0.000 A 
ATOM     20  C   UNL     1     -16.516   3.522  28.252  0.00  0.00    +0.000 A 
ATOM     21  C   UNL     1     -16.472   1.149  27.805  0.00  0.00    +0.000 A 
ATOM     22  C   UNL     1     -15.815   3.316  29.446  0.00  0.00    +0.000 A 
ATOM     23  C   UNL     1     -15.770   0.941  28.996  0.00  0.00    +0.000 A 
ATOM     24  C   UNL     1     -15.436   2.022  29.816  0.00  0.00    +0.000 A 
ENDBRANCH  16  19
ENDBRANCH   4  16
TORSDOF 3
ENDMDL
MODEL 5
REMARK VINA RESULT:      -6.5     26.565     28.771
REMARK  Name = 16451671
REMARK  3 active torsions:
REMARK  status: ('A' for Active; 'I' for Inactive)
REMARK    1  A    between atoms: C_7  and  C_8
REMARK    2  A    between atoms: C_8  and  C_13
REMARK    3  A    between atoms: C_11  and  C_14
REMARK                            x       y       z     vdW  Elec       q    Type
REMARK                         _______ _______ _______ _____ _____    ______ ____
ROOT
ATOM      1  S   UNL     1      11.089   8.798  22.691  0.00  0.00    +0.000 S 
ATOM      2  N   UNL     1      11.549  11.055  21.575  0.00  0.00    +0.000 N 
ATOM      3  N   UNL     1      10.608  11.436  23.562  0.00  0.00    +0.000 NA
ATOM      4  C   UNL     1      11.860   8.881  21.078  0.00  0.00    +0.000 A 
ATOM      5  C   UNL     1      11.021  10.533  22.716  0.00  0.00    +0.000 A 
ATOM      6  C   UNL     1      12.027  10.151  20.660  0.00  0.00    +0.000 A 
ATOM      7  C   UNL     1      10.853  12.630  22.898  0.00  0.00    +0.000 A 
ATOM      8  C   UNL     1      11.454  12.408  21.665  0.00  0.00    +0.000 A 
ENDROOT
BRANCH   7  10
ATOM      9 CL   UNL     1       9.484  18.011  25.108  0.00  0.00    +0.000 Cl
ATOM     10  C   UNL     1      10.523  13.936  23.441  0.00  0.00    +0.000 A 
ATOM     11  C   UNL     1       9.416  14.642  22.952  0.00  0.00    +0.000 A 
ATOM     12  C   UNL     1      11.306  14.517  24.451  0.00  0.00    +0.000 A 
ATOM     13  C   UNL     1       9.089  15.899  23.472  0.00  0.00    +0.000 A 
ATOM     14  C   UNL     1      10.985  15.776  24.966  0.00  0.00    +0.000 A 
ATOM     15  C   UNL     1       9.877  16.461  24.475  0.00  0.00    +0.000 A 
ENDBRANCH   7  10
BRANCH   4  16
ATOM     16  C   UNL     1      12.309   7.642  20.364  0.00  0.00    +0.000 C 
BRANCH  16  19
ATOM     17 CL   UNL     1      16.701   5.823  18.243  0.00  0.00    +0.000 Cl
ATOM     18 CL   UNL     1      18.206   6.470  21.055  0.00  0.00    +0.000 Cl
ATOM     19  C   UNL     1      13.791   7.378  20.509  0.00  0.00    +0.000 A 
ATOM     20  C   UNL     1      14.520   6.807  19.453  0.00  0.00    +0.000 A 
ATOM     21  C   UNL     1      14.454   7.666  21.709  0.00  0.00    +0.000 A 
ATOM     22  C   UNL     1      15.883   6.525  19.594  0.00  0.00    +0.000 A 
ATOM     23  C   UNL     1      15.815   7.384  21.853  0.00  0.00    +0.000 A 
ATOM     24  C   UNL     1      16.532   6.809  20.800  0.00  0.00    +0.000 A 
ENDBRANCH  16  19
ENDBRANCH   4  16
TORSDOF 3
ENDMDL
MODEL 6
REMARK VINA RESULT:      -6.4     31.546     34.504
REMARK  Name = 16451671
REMARK  3 active torsions:
REMARK  status: ('A' for Active; 'I' for Inactive)
REMARK    1  A    between atoms: C_7  and  C_8
REMARK    2  A    between atoms: C_8  and  C_13
REMARK    3  A    between atoms: C_11  and  C_14
REMARK                            x       y       z     vdW  Elec       q    Type
REMARK                         _______ _______ _______ _____ _____    ______ ____
ROOT
ATOM      1  S   UNL     1      20.520   7.291  21.719  0.00  0.00    +0.000 S 
ATOM      2  N   UNL     1      18.752   5.967  20.427  0.00  0.00    +0.000 N 
ATOM      3  N   UNL     1      17.741   7.679  21.439  0.00  0.00    +0.000 NA
ATOM      4  C   UNL     1      20.975   5.847  20.766  0.00  0.00    +0.000 A 
ATOM      5  C   UNL     1      18.869   7.057  21.233  0.00  0.00    +0.000 A 
ATOM      6  C   UNL     1      19.913   5.290  20.151  0.00  0.00    +0.000 A 
ATOM      7  C   UNL     1      16.820   6.907  20.744  0.00  0.00    +0.000 A 
ATOM      8  C   UNL     1      17.438   5.846  20.096  0.00  0.00    +0.000 A 
ENDROOT
BRANCH   7  10
ATOM      9 CL   UNL     1      10.961   8.076  20.615  0.00  0.00    +0.000 Cl
ATOM     10  C   UNL     1      15.396   7.192  20.706  0.00  0.00    +0.000 A 
ATOM     11  C   UNL     1      14.769   7.787  21.808  0.00  0.00    +0.000 A 
ATOM     12  C   UNL     1      14.626   6.870  19.578  0.00  0.00    +0.000 A 
ATOM     13  C   UNL     1      13.398   8.069  21.778  0.00  0.00    +0.000 A 
ATOM     14  C   UNL     1      13.255   7.143  19.551  0.00  0.00    +0.000 A 
ATOM     15  C   UNL     1      12.648   7.743  20.651  0.00  0.00    +0.000 A 
ENDBRANCH   7  10
BRANCH   4  16
ATOM     16  C   UNL     1      22.403   5.408  20.649  0.00  0.00    +0.000 C 
BRANCH  16  19
ATOM     17 CL   UNL     1      24.634   0.753  21.321  0.00  0.00    +0.000 Cl
ATOM     18 CL   UNL     1      23.653   0.844  24.423  0.00  0.00    +0.000 Cl
ATOM     19  C   UNL     1      22.755   4.277  21.589  0.00  0.00    +0.000 A 
ATOM     20  C   UNL     1      23.463   3.157  21.123  0.00  0.00    +0.000 A 
ATOM     21  C   UNL     1      22.351   4.312  22.930  0.00  0.00    +0.000 A 
ATOM     22  C   UNL     1      23.758   2.090  21.979  0.00  0.00    +0.000 A 
ATOM     23  C   UNL     1      22.644   3.246  23.786  0.00  0.00    +0.000 A 
ATOM     24  C   UNL     1      23.343   2.132  23.313  0.00  0.00    +0.000 A 
ENDBRANCH  16  19
ENDBRANCH   4  16
TORSDOF 3
ENDMDL
MODEL 7
REMARK VINA RESULT:      -6.1     23.191     26.362
REMARK  Name = 16451671
REMARK  3 active torsions:
REMARK  status: ('A' for Active; 'I' for Inactive)
REMARK    1  A    between atoms: C_7  and  C_8
REMARK    2  A    between atoms: C_8  and  C_13
REMARK    3  A    between atoms: C_11  and  C_14
REMARK                            x       y       z     vdW  Elec       q    Type
REMARK                         _______ _______ _______ _____ _____    ______ ____
ROOT
ATOM      1  S   UNL     1       9.985  15.630  21.251  0.00  0.00    +0.000 S 
ATOM      2  N   UNL     1      10.325  13.721  22.921  0.00  0.00    +0.000 N 
ATOM      3  N   UNL     1      11.248  13.123  20.979  0.00  0.00    +0.000 NA
ATOM      4  C   UNL     1       9.384  15.766  22.931  0.00  0.00    +0.000 A 
ATOM      5  C   UNL     1      10.593  14.047  21.628  0.00  0.00    +0.000 A 
ATOM      6  C   UNL     1       9.662  14.668  23.660  0.00  0.00    +0.000 A 
ATOM      7  C   UNL     1      11.377  12.108  21.918  0.00  0.00    +0.000 A 
ATOM      8  C   UNL     1      10.821  12.473  23.137  0.00  0.00    +0.000 A 
ENDROOT
BRANCH   7  10
ATOM      9 CL   UNL     1      14.023   6.864  20.814  0.00  0.00    +0.000 Cl
ATOM     10  C   UNL     1      12.023  10.836  21.643  0.00  0.00    +0.000 A 
ATOM     11  C   UNL     1      11.522   9.657  22.211  0.00  0.00    +0.000 A 
ATOM     12  C   UNL     1      13.157  10.764  20.819  0.00  0.00    +0.000 A 
ATOM     13  C   UNL     1      12.135   8.427  21.949  0.00  0.00    +0.000 A 
ATOM     14  C   UNL     1      13.775   9.536  20.564  0.00  0.00    +0.000 A 
ATOM     15  C   UNL     1      13.260   8.373  21.129  0.00  0.00    +0.000 A 
ENDBRANCH   7  10
BRANCH   4  16
ATOM     16  C   UNL     1       8.720  17.017  23.422  0.00  0.00    +0.000 C 
BRANCH  16  19
ATOM     17 CL   UNL     1       4.286  18.826  25.463  0.00  0.00    +0.000 Cl
ATOM     18 CL   UNL     1       2.743  16.324  24.067  0.00  0.00    +0.000 Cl
ATOM     19  C   UNL     1       7.221  16.878  23.562  0.00  0.00    +0.000 A 
ATOM     20  C   UNL     1       6.489  17.795  24.333  0.00  0.00    +0.000 A 
ATOM     21  C   UNL     1       6.543  15.814  22.953  0.00  0.00    +0.000 A 
ATOM     22  C   UNL     1       5.107  17.650  24.497  0.00  0.00    +0.000 A 
ATOM     23  C   UNL     1       5.162  15.666  23.117  0.00  0.00    +0.000 A 
ATOM     24  C   UNL     1       4.442  16.579  23.891  0.00  0.00    +0.000 A 
ENDBRANCH  16  19
ENDBRANCH   4  16
TORSDOF 3
ENDMDL
MODEL 8
REMARK VINA RESULT:      -6.0     26.851     28.376
REMARK  Name = 16451671
REMARK  3 active torsions:
REMARK  status: ('A' for Active; 'I' for Inactive)
REMARK    1  A    between atoms: C_7  and  C_8
REMARK    2  A    between atoms: C_8  and  C_13
REMARK    3  A    between atoms: C_11  and  C_14
REMARK                            x       y       z     vdW  Elec       q    Type
REMARK                         _______ _______ _______ _____ _____    ______ ____
ROOT
ATOM      1  S   UNL     1      11.682  11.259  21.604  0.00  0.00    +0.000 S 
ATOM      2  N   UNL     1      10.907  11.591  24.020  0.00  0.00    +0.000 N 
ATOM      3  N   UNL     1      11.345  13.596  23.145  0.00  0.00    +0.000 NA
ATOM      4  C   UNL     1      11.226   9.858  22.619  0.00  0.00    +0.000 A 
ATOM      5  C   UNL     1      11.325  12.308  22.941  0.00  0.00    +0.000 A 
ATOM      6  C   UNL     1      10.838  10.231  23.855  0.00  0.00    +0.000 A 
ATOM      7  C   UNL     1      10.947  13.715  24.469  0.00  0.00    +0.000 A 
ATOM      8  C   UNL     1      10.656  12.475  25.022  0.00  0.00    +0.000 A 
ENDROOT
BRANCH   7  10
ATOM      9 CL   UNL     1      10.540  18.951  27.323  0.00  0.00    +0.000 Cl
ATOM     10  C   UNL     1      10.847  14.985  25.169  0.00  0.00    +0.000 A 
ATOM     11  C   UNL     1      10.392  16.125  24.494  0.00  0.00    +0.000 A 
ATOM     12  C   UNL     1      11.210  15.095  26.520  0.00  0.00    +0.000 A 
ATOM     13  C   UNL     1      10.289  17.351  25.161  0.00  0.00    +0.000 A 
ATOM     14  C   UNL     1      11.116  16.321  27.185  0.00  0.00    +0.000 A 
ATOM     15  C   UNL     1      10.654  17.443  26.503  0.00  0.00    +0.000 A 
ENDBRANCH   7  10
BRANCH   4  16
ATOM     16  C   UNL     1      11.227   8.463  22.069  0.00  0.00    +0.000 C 
BRANCH  16  19
ATOM     17 CL   UNL     1      15.691   7.791  19.478  0.00  0.00    +0.000 Cl
ATOM     18 CL   UNL     1      14.022   8.173  16.709  0.00  0.00    +0.000 Cl
ATOM     19  C   UNL     1      11.933   8.351  20.737  0.00  0.00    +0.000 A 
ATOM     20  C   UNL     1      13.319   8.131  20.681  0.00  0.00    +0.000 A 
ATOM     21  C   UNL     1      11.224   8.499  19.538  0.00  0.00    +0.000 A 
ATOM     22  C   UNL     1      13.984   8.064  19.452  0.00  0.00    +0.000 A 
ATOM     23  C   UNL     1      11.886   8.434  18.309  0.00  0.00    +0.000 A 
ATOM     24  C   UNL     1      13.267   8.222  18.262  0.00  0.00    +0.000 A 
ENDBRANCH  16  19
ENDBRANCH   4  16
TORSDOF 3
ENDMDL
MODEL 9
REMARK VINA RESULT:      -6.0     17.911     20.783
REMARK  Name = 16451671
REMARK  3 active torsions:
REMARK  status: ('A' for Active; 'I' for Inactive)
REMARK    1  A    between atoms: C_7  and  C_8
REMARK    2  A    between atoms: C_8  and  C_13
REMARK    3  A    between atoms: C_11  and  C_14
REMARK                            x       y       z     vdW  Elec       q    Type
REMARK                         _______ _______ _______ _____ _____    ______ ____
ROOT
ATOM      1  S   UNL     1       1.987  17.792  22.030  0.00  0.00    +0.000 S 
ATOM      2  N   UNL     1       0.283  15.928  21.616  0.00  0.00    +0.000 N 
ATOM      3  N   UNL     1       0.190  17.352  19.901  0.00  0.00    +0.000 NA
ATOM      4  C   UNL     1       1.795  16.453  23.201  0.00  0.00    +0.000 A 
ATOM      5  C   UNL     1       0.751  17.071  21.045  0.00  0.00    +0.000 A 
ATOM      6  C   UNL     1       0.859  15.567  22.809  0.00  0.00    +0.000 A 
ATOM      7  C   UNL     1      -0.737  16.332  19.743  0.00  0.00    +0.000 A 
ATOM      8  C   UNL     1      -0.679  15.428  20.796  0.00  0.00    +0.000 A 
ENDROOT
BRANCH   7  10
ATOM      9 CL   UNL     1      -4.473  15.914  15.096  0.00  0.00    +0.000 Cl
ATOM     10  C   UNL     1      -1.641  16.234  18.610  0.00  0.00    +0.000 A 
ATOM     11  C   UNL     1      -3.018  16.087  18.820  0.00  0.00    +0.000 A 
ATOM     12  C   UNL     1      -1.155  16.274  17.294  0.00  0.00    +0.000 A 
ATOM     13  C   UNL     1      -3.896  15.996  17.734  0.00  0.00    +0.000 A 
ATOM     14  C   UNL     1      -2.031  16.175  16.208  0.00  0.00    +0.000 A 
ATOM     15  C   UNL     1      -3.398  16.037  16.433  0.00  0.00    +0.000 A 
ENDBRANCH   7  10
BRANCH   4  16
ATOM     16  C   UNL     1       2.661  16.353  24.420  0.00  0.00    +0.000 C 
BRANCH  16  19
ATOM     17 CL   UNL     1       7.148  14.947  22.188  0.00  0.00    +0.000 Cl
ATOM     18 CL   UNL     1       8.506  17.609  23.477  0.00  0.00    +0.000 Cl
ATOM     19  C   UNL     1       4.113  16.673  24.145  0.00  0.00    +0.000 A 
ATOM     20  C   UNL     1       4.900  15.802  23.374  0.00  0.00    +0.000 A 
ATOM     21  C   UNL     1       4.705  17.823  24.681  0.00  0.00    +0.000 A 
ATOM     22  C   UNL     1       6.255  16.073  23.148  0.00  0.00    +0.000 A 
ATOM     23  C   UNL     1       6.058  18.095  24.458  0.00  0.00    +0.000 A 
ATOM     24  C   UNL     1       6.836  17.220  23.696  0.00  0.00    +0.000 A 
ENDBRANCH  16  19
ENDBRANCH   4  16
TORSDOF 3
ENDMDL
MODEL 10
REMARK VINA RESULT:      -5.9     17.712     20.359
REMARK  Name = 16451671
REMARK  3 active torsions:
REMARK  status: ('A' for Active; 'I' for Inactive)
REMARK    1  A    between atoms: C_7  and  C_8
REMARK    2  A    between atoms: C_8  and  C_13
REMARK    3  A    between atoms: C_11  and  C_14
REMARK                            x       y       z     vdW  Elec       q    Type
REMARK                         _______ _______ _______ _____ _____    ______ ____
ROOT
ATOM      1  S   UNL     1       2.180  16.735  21.355  0.00  0.00    +0.000 S 
ATOM      2  N   UNL     1       0.107  15.261  21.073  0.00  0.00    +0.000 N 
ATOM      3  N   UNL     1       0.136  16.751  19.411  0.00  0.00    +0.000 NA
ATOM      4  C   UNL     1       1.837  15.409  22.506  0.00  0.00    +0.000 A 
ATOM      5  C   UNL     1       0.737  16.314  20.485  0.00  0.00    +0.000 A 
ATOM      6  C   UNL     1       0.710  14.741  22.190  0.00  0.00    +0.000 A 
ATOM      7  C   UNL     1      -0.987  15.940  19.324  0.00  0.00    +0.000 A 
ATOM      8  C   UNL     1      -1.010  14.997  20.343  0.00  0.00    +0.000 A 
ENDROOT
BRANCH   7  10
ATOM      9 CL   UNL     1      -5.155  16.464  15.073  0.00  0.00    +0.000 Cl
ATOM     10  C   UNL     1      -1.996  16.072  18.287  0.00  0.00    +0.000 A 
ATOM     11  C   UNL     1      -3.352  15.910  18.601  0.00  0.00    +0.000 A 
ATOM     12  C   UNL     1      -1.635  16.352  16.960  0.00  0.00    +0.000 A 
ATOM     13  C   UNL     1      -4.330  16.039  17.610  0.00  0.00    +0.000 A 
ATOM     14  C   UNL     1      -2.612  16.472  15.967  0.00  0.00    +0.000 A 
ATOM     15  C   UNL     1      -3.955  16.316  16.297  0.00  0.00    +0.000 A 
ENDBRANCH   7  10
BRANCH   4  16
ATOM     16  C   UNL     1       2.778  15.087  23.627  0.00  0.00    +0.000 C 
BRANCH  16  19
ATOM     17 CL   UNL     1       7.511  17.251  23.516  0.00  0.00    +0.000 Cl
ATOM     18 CL   UNL     1       6.324  19.694  25.309  0.00  0.00    +0.000 Cl
ATOM     19  C   UNL     1       3.667  16.250  24.008  0.00  0.00    +0.000 A 
ATOM     20  C   UNL     1       5.021  16.263  23.636  0.00  0.00    +0.000 A 
ATOM     21  C   UNL     1       3.164  17.314  24.767  0.00  0.00    +0.000 A 
ATOM     22  C   UNL     1       5.858  17.317  24.018  0.00  0.00    +0.000 A 
ATOM     23  C   UNL     1       3.999  18.367  25.151  0.00  0.00    +0.000 A 
ATOM     24  C   UNL     1       5.347  18.370  24.783  0.00  0.00    +0.000 A 
ENDBRANCH  16  19
ENDBRANCH   4  16
TORSDOF 3
ENDMDL
