MODEL 1
REMARK VINA RESULT:      -6.6      0.000      0.000
REMARK  Name = 16451671
REMARK  3 active torsions:
REMARK  status: ('A' for Active; 'I' for Inactive)
REMARK    1  A    between atoms: C_7  and  C_8
REMARK    2  A    between atoms: C_8  and  C_13
REMARK    3  A    between atoms: C_11  and  C_14
REMARK                            x       y       z     vdW  Elec       q    Type
REMARK                         _______ _______ _______ _____ _____    ______ ____
ROOT
ATOM      1  S   UNL     1     -12.135   7.558 -33.124  0.00  0.00    +0.000 S 
ATOM      2  N   UNL     1     -13.817   8.087 -34.979  0.00  0.00    +0.000 N 
ATOM      3  N   UNL     1     -14.955   7.578 -33.128  0.00  0.00    +0.000 NA
ATOM      4  C   UNL     1     -11.577   8.027 -34.758  0.00  0.00    +0.000 A 
ATOM      5  C   UNL     1     -13.776   7.714 -33.671  0.00  0.00    +0.000 A 
ATOM      6  C   UNL     1     -12.605   8.273 -35.594  0.00  0.00    +0.000 A 
ATOM      7  C   UNL     1     -15.821   7.847 -34.179  0.00  0.00    +0.000 A 
ATOM      8  C   UNL     1     -15.126   8.181 -35.334  0.00  0.00    +0.000 A 
ENDROOT
BRANCH   7  10
ATOM      9 CL   UNL     1     -21.772   7.578 -33.697  0.00  0.00    +0.000 Cl
ATOM     10  C   UNL     1     -17.268   7.788 -34.064  0.00  0.00    +0.000 A 
ATOM     11  C   UNL     1     -17.864   6.958 -33.106  0.00  0.00    +0.000 A 
ATOM     12  C   UNL     1     -18.091   8.548 -34.910  0.00  0.00    +0.000 A 
ATOM     13  C   UNL     1     -19.257   6.898 -32.986  0.00  0.00    +0.000 A 
ATOM     14  C   UNL     1     -19.483   8.482 -34.797  0.00  0.00    +0.000 A 
ATOM     15  C   UNL     1     -20.059   7.658 -33.834  0.00  0.00    +0.000 A 
ENDBRANCH   7  10
BRANCH   4  16
ATOM     16  C   UNL     1     -10.119   8.180 -35.070  0.00  0.00    +0.000 C 
BRANCH  16  19
ATOM     17 CL   UNL     1      -5.861   5.737 -36.801  0.00  0.00    +0.000 Cl
ATOM     18 CL   UNL     1      -7.776   3.277 -37.735  0.00  0.00    +0.000 Cl
ATOM     19  C   UNL     1      -9.514   6.946 -35.701  0.00  0.00    +0.000 A 
ATOM     20  C   UNL     1      -8.132   6.870 -35.935  0.00  0.00    +0.000 A 
ATOM     21  C   UNL     1     -10.326   5.874 -36.094  0.00  0.00    +0.000 A 
ATOM     22  C   UNL     1      -7.571   5.746 -36.553  0.00  0.00    +0.000 A 
ATOM     23  C   UNL     1      -9.769   4.752 -36.713  0.00  0.00    +0.000 A 
ATOM     24  C   UNL     1      -8.393   4.686 -36.948  0.00  0.00    +0.000 A 
ENDBRANCH  16  19
ENDBRANCH   4  16
TORSDOF 3
ENDMDL
MODEL 2
REMARK VINA RESULT:      -6.5     20.311     23.229
REMARK  Name = 16451671
REMARK  3 active torsions:
REMARK  status: ('A' for Active; 'I' for Inactive)
REMARK    1  A    between atoms: C_7  and  C_8
REMARK    2  A    between atoms: C_8  and  C_13
REMARK    3  A    between atoms: C_11  and  C_14
REMARK                            x       y       z     vdW  Elec       q    Type
REMARK                         _______ _______ _______ _____ _____    ______ ____
ROOT
ATOM      1  S   UNL     1      -2.751   5.140 -57.237  0.00  0.00    +0.000 S 
ATOM      2  N   UNL     1      -3.994   5.372 -55.012  0.00  0.00    +0.000 N 
ATOM      3  N   UNL     1      -3.879   3.203 -55.526  0.00  0.00    +0.000 NA
ATOM      4  C   UNL     1      -3.017   6.749 -56.502  0.00  0.00    +0.000 A 
ATOM      5  C   UNL     1      -3.580   4.420 -55.892  0.00  0.00    +0.000 A 
ATOM      6  C   UNL     1      -3.681   6.669 -55.332  0.00  0.00    +0.000 A 
ATOM      7  C   UNL     1      -4.572   3.391 -54.338  0.00  0.00    +0.000 A 
ATOM      8  C   UNL     1      -4.637   4.735 -53.997  0.00  0.00    +0.000 A 
ENDROOT
BRANCH   7  10
ATOM      9 CL   UNL     1      -6.899  -1.075 -51.118  0.00  0.00    +0.000 Cl
ATOM     10  C   UNL     1      -5.143   2.305 -53.559  0.00  0.00    +0.000 A 
ATOM     11  C   UNL     1      -4.893   2.219 -52.184  0.00  0.00    +0.000 A 
ATOM     12  C   UNL     1      -5.941   1.323 -54.167  0.00  0.00    +0.000 A 
ATOM     13  C   UNL     1      -5.442   1.179 -51.426  0.00  0.00    +0.000 A 
ATOM     14  C   UNL     1      -6.483   0.278 -53.412  0.00  0.00    +0.000 A 
ATOM     15  C   UNL     1      -6.232   0.212 -52.044  0.00  0.00    +0.000 A 
ENDBRANCH   7  10
BRANCH   4  16
ATOM     16  C   UNL     1      -2.473   7.995 -57.133  0.00  0.00    +0.000 C 
BRANCH  16  19
ATOM     17 CL   UNL     1       1.527   7.970 -53.803  0.00  0.00    +0.000 Cl
ATOM     18 CL   UNL     1       3.452   8.873 -56.267  0.00  0.00    +0.000 Cl
ATOM     19  C   UNL     1      -0.988   8.174 -56.909  0.00  0.00    +0.000 A 
ATOM     20  C   UNL     1      -0.435   8.002 -55.630  0.00  0.00    +0.000 A 
ATOM     21  C   UNL     1      -0.147   8.548 -57.965  0.00  0.00    +0.000 A 
ATOM     22  C   UNL     1       0.932   8.204 -55.409  0.00  0.00    +0.000 A 
ATOM     23  C   UNL     1       1.218   8.752 -57.745  0.00  0.00    +0.000 A 
ATOM     24  C   UNL     1       1.760   8.585 -56.468  0.00  0.00    +0.000 A 
ENDBRANCH  16  19
ENDBRANCH   4  16
TORSDOF 3
ENDMDL
MODEL 3
REMARK VINA RESULT:      -6.3     20.346     22.609
REMARK  Name = 16451671
REMARK  3 active torsions:
REMARK  status: ('A' for Active; 'I' for Inactive)
REMARK    1  A    between atoms: C_7  and  C_8
REMARK    2  A    between atoms: C_8  and  C_13
REMARK    3  A    between atoms: C_11  and  C_14
REMARK                            x       y       z     vdW  Elec       q    Type
REMARK                         _______ _______ _______ _____ _____    ______ ____
ROOT
ATOM      1  S   UNL     1      -4.480   5.508 -54.473  0.00  0.00    +0.000 S 
ATOM      2  N   UNL     1      -4.418   3.092 -55.315  0.00  0.00    +0.000 N 
ATOM      3  N   UNL     1      -5.739   3.172 -53.518  0.00  0.00    +0.000 NA
ATOM      4  C   UNL     1      -3.524   5.068 -55.921  0.00  0.00    +0.000 A 
ATOM      5  C   UNL     1      -4.969   3.848 -54.327  0.00  0.00    +0.000 A 
ATOM      6  C   UNL     1      -3.620   3.756 -56.213  0.00  0.00    +0.000 A 
ATOM      7  C   UNL     1      -5.645   1.874 -54.001  0.00  0.00    +0.000 A 
ATOM      8  C   UNL     1      -4.838   1.812 -55.130  0.00  0.00    +0.000 A 
ENDROOT
BRANCH   7  10
ATOM      9 CL   UNL     1      -8.390  -2.803 -51.491  0.00  0.00    +0.000 Cl
ATOM     10  C   UNL     1      -6.318   0.739 -53.394  0.00  0.00    +0.000 A 
ATOM     11  C   UNL     1      -5.909   0.268 -52.140  0.00  0.00    +0.000 A 
ATOM     12  C   UNL     1      -7.375   0.091 -54.051  0.00  0.00    +0.000 A 
ATOM     13  C   UNL     1      -6.555  -0.823 -51.546  0.00  0.00    +0.000 A 
ATOM     14  C   UNL     1      -8.015  -1.004 -53.463  0.00  0.00    +0.000 A 
ATOM     15  C   UNL     1      -7.603  -1.455 -52.212  0.00  0.00    +0.000 A 
ENDBRANCH   7  10
BRANCH   4  16
ATOM     16  C   UNL     1      -2.785   6.105 -56.711  0.00  0.00    +0.000 C 
BRANCH  16  19
ATOM     17 CL   UNL     1       0.721   9.217 -54.449  0.00  0.00    +0.000 Cl
ATOM     18 CL   UNL     1       2.959   6.915 -54.985  0.00  0.00    +0.000 Cl
ATOM     19  C   UNL     1      -1.361   6.306 -56.241  0.00  0.00    +0.000 A 
ATOM     20  C   UNL     1      -0.982   7.505 -55.615  0.00  0.00    +0.000 A 
ATOM     21  C   UNL     1      -0.393   5.317 -56.452  0.00  0.00    +0.000 A 
ATOM     22  C   UNL     1       0.343   7.712 -55.212  0.00  0.00    +0.000 A 
ATOM     23  C   UNL     1       0.930   5.524 -56.052  0.00  0.00    +0.000 A 
ATOM     24  C   UNL     1       1.302   6.721 -55.435  0.00  0.00    +0.000 A 
ENDBRANCH  16  19
ENDBRANCH   4  16
TORSDOF 3
ENDMDL
MODEL 4
REMARK VINA RESULT:      -6.3      2.007      9.651
REMARK  Name = 16451671
REMARK  3 active torsions:
REMARK  status: ('A' for Active; 'I' for Inactive)
REMARK    1  A    between atoms: C_7  and  C_8
REMARK    2  A    between atoms: C_8  and  C_13
REMARK    3  A    between atoms: C_11  and  C_14
REMARK                            x       y       z     vdW  Elec       q    Type
REMARK                         _______ _______ _______ _____ _____    ______ ____
ROOT
ATOM      1  S   UNL     1     -12.492   6.993 -32.341  0.00  0.00    +0.000 S 
ATOM      2  N   UNL     1     -11.815   5.610 -34.385  0.00  0.00    +0.000 N 
ATOM      3  N   UNL     1     -10.021   6.729 -33.674  0.00  0.00    +0.000 NA
ATOM      4  C   UNL     1     -13.682   5.948 -33.173  0.00  0.00    +0.000 A 
ATOM      5  C   UNL     1     -11.289   6.486 -33.487  0.00  0.00    +0.000 A 
ATOM      6  C   UNL     1     -13.140   5.294 -34.219  0.00  0.00    +0.000 A 
ATOM      7  C   UNL     1      -9.717   5.982 -34.803  0.00  0.00    +0.000 A 
ATOM      8  C   UNL     1     -10.821   5.267 -35.248  0.00  0.00    +0.000 A 
ENDROOT
BRANCH   7  10
ATOM      9 CL   UNL     1      -4.323   5.891 -37.376  0.00  0.00    +0.000 Cl
ATOM     10  C   UNL     1      -8.403   5.957 -35.422  0.00  0.00    +0.000 A 
ATOM     11  C   UNL     1      -8.075   6.893 -36.411  0.00  0.00    +0.000 A 
ATOM     12  C   UNL     1      -7.449   4.996 -35.053  0.00  0.00    +0.000 A 
ATOM     13  C   UNL     1      -6.810   6.879 -37.011  0.00  0.00    +0.000 A 
ATOM     14  C   UNL     1      -6.188   4.976 -35.658  0.00  0.00    +0.000 A 
ATOM     15  C   UNL     1      -5.874   5.918 -36.633  0.00  0.00    +0.000 A 
ENDBRANCH   7  10
BRANCH   4  16
ATOM     16  C   UNL     1     -15.086   5.808 -32.666  0.00  0.00    +0.000 C 
BRANCH  16  19
ATOM     17 CL   UNL     1     -20.000   7.435 -33.211  0.00  0.00    +0.000 Cl
ATOM     18 CL   UNL     1     -19.027   9.190 -35.773  0.00  0.00    +0.000 Cl
ATOM     19  C   UNL     1     -16.075   6.677 -33.410  0.00  0.00    +0.000 A 
ATOM     20  C   UNL     1     -17.428   6.697 -33.034  0.00  0.00    +0.000 A 
ATOM     21  C   UNL     1     -15.666   7.449 -34.504  0.00  0.00    +0.000 A 
ATOM     22  C   UNL     1     -18.356   7.470 -33.742  0.00  0.00    +0.000 A 
ATOM     23  C   UNL     1     -16.591   8.220 -35.214  0.00  0.00    +0.000 A 
ATOM     24  C   UNL     1     -17.937   8.230 -34.838  0.00  0.00    +0.000 A 
ENDBRANCH  16  19
ENDBRANCH   4  16
TORSDOF 3
ENDMDL
MODEL 5
REMARK VINA RESULT:      -6.3      1.175      2.021
REMARK  Name = 16451671
REMARK  3 active torsions:
REMARK  status: ('A' for Active; 'I' for Inactive)
REMARK    1  A    between atoms: C_7  and  C_8
REMARK    2  A    between atoms: C_8  and  C_13
REMARK    3  A    between atoms: C_11  and  C_14
REMARK                            x       y       z     vdW  Elec       q    Type
REMARK                         _______ _______ _______ _____ _____    ______ ____
ROOT
ATOM      1  S   UNL     1     -12.945   6.306 -32.907  0.00  0.00    +0.000 S 
ATOM      2  N   UNL     1     -14.377   8.076 -34.078  0.00  0.00    +0.000 N 
ATOM      3  N   UNL     1     -15.743   6.624 -33.075  0.00  0.00    +0.000 NA
ATOM      4  C   UNL     1     -12.182   7.651 -33.807  0.00  0.00    +0.000 A 
ATOM      5  C   UNL     1     -14.504   6.950 -33.324  0.00  0.00    +0.000 A 
ATOM      6  C   UNL     1     -13.095   8.483 -34.347  0.00  0.00    +0.000 A 
ATOM      7  C   UNL     1     -16.469   7.593 -33.753  0.00  0.00    +0.000 A 
ATOM      8  C   UNL     1     -15.631   8.514 -34.369  0.00  0.00    +0.000 A 
ENDROOT
BRANCH   7  10
ATOM      9 CL   UNL     1     -22.440   7.765 -33.936  0.00  0.00    +0.000 Cl
ATOM     10  C   UNL     1     -17.921   7.628 -33.795  0.00  0.00    +0.000 A 
ATOM     11  C   UNL     1     -18.577   8.485 -34.689  0.00  0.00    +0.000 A 
ATOM     12  C   UNL     1     -18.688   6.820 -32.943  0.00  0.00    +0.000 A 
ATOM     13  C   UNL     1     -19.975   8.522 -34.739  0.00  0.00    +0.000 A 
ATOM     14  C   UNL     1     -20.084   6.863 -32.986  0.00  0.00    +0.000 A 
ATOM     15  C   UNL     1     -20.722   7.713 -33.885  0.00  0.00    +0.000 A 
ENDBRANCH   7  10
BRANCH   4  16
ATOM     16  C   UNL     1     -10.693   7.813 -33.853  0.00  0.00    +0.000 C 
BRANCH  16  19
ATOM     17 CL   UNL     1     -11.190   4.362 -37.718  0.00  0.00    +0.000 Cl
ATOM     18 CL   UNL     1      -7.968   3.916 -37.597  0.00  0.00    +0.000 Cl
ATOM     19  C   UNL     1     -10.022   6.863 -34.820  0.00  0.00    +0.000 A 
ATOM     20  C   UNL     1     -10.785   6.130 -35.743  0.00  0.00    +0.000 A 
ATOM     21  C   UNL     1      -8.635   6.674 -34.788  0.00  0.00    +0.000 A 
ATOM     22  C   UNL     1     -10.174   5.221 -36.615  0.00  0.00    +0.000 A 
ATOM     23  C   UNL     1      -8.022   5.766 -35.657  0.00  0.00    +0.000 A 
ATOM     24  C   UNL     1      -8.789   5.035 -36.568  0.00  0.00    +0.000 A 
ENDBRANCH  16  19
ENDBRANCH   4  16
TORSDOF 3
ENDMDL
MODEL 6
REMARK VINA RESULT:      -6.1      2.809      9.963
REMARK  Name = 16451671
REMARK  3 active torsions:
REMARK  status: ('A' for Active; 'I' for Inactive)
REMARK    1  A    between atoms: C_7  and  C_8
REMARK    2  A    between atoms: C_8  and  C_13
REMARK    3  A    between atoms: C_11  and  C_14
REMARK                            x       y       z     vdW  Elec       q    Type
REMARK                         _______ _______ _______ _____ _____    ______ ____
ROOT
ATOM      1  S   UNL     1     -11.979   4.390 -35.704  0.00  0.00    +0.000 S 
ATOM      2  N   UNL     1      -9.988   5.677 -34.741  0.00  0.00    +0.000 N 
ATOM      3  N   UNL     1      -9.388   4.844 -36.722  0.00  0.00    +0.000 NA
ATOM      4  C   UNL     1     -12.102   5.213 -34.121  0.00  0.00    +0.000 A 
ATOM      5  C   UNL     1     -10.338   4.946 -35.833  0.00  0.00    +0.000 A 
ATOM      6  C   UNL     1     -10.958   5.842 -33.785  0.00  0.00    +0.000 A 
ATOM      7  C   UNL     1      -8.332   5.530 -36.138  0.00  0.00    +0.000 A 
ATOM      8  C   UNL     1      -8.696   6.068 -34.911  0.00  0.00    +0.000 A 
ENDROOT
BRANCH   7  10
ATOM      9 CL   UNL     1      -2.930   6.067 -38.639  0.00  0.00    +0.000 Cl
ATOM     10  C   UNL     1      -7.022   5.664 -36.751  0.00  0.00    +0.000 A 
ATOM     11  C   UNL     1      -6.035   4.697 -36.519  0.00  0.00    +0.000 A 
ATOM     12  C   UNL     1      -6.718   6.760 -37.573  0.00  0.00    +0.000 A 
ATOM     13  C   UNL     1      -4.771   4.817 -37.108  0.00  0.00    +0.000 A 
ATOM     14  C   UNL     1      -5.453   6.885 -38.156  0.00  0.00    +0.000 A 
ATOM     15  C   UNL     1      -4.486   5.911 -37.922  0.00  0.00    +0.000 A 
ENDBRANCH   7  10
BRANCH   4  16
ATOM     16  C   UNL     1     -13.384   5.223 -33.345  0.00  0.00    +0.000 C 
BRANCH  16  19
ATOM     17 CL   UNL     1     -18.198   7.189 -33.106  0.00  0.00    +0.000 Cl
ATOM     18 CL   UNL     1     -17.427   9.112 -35.616  0.00  0.00    +0.000 Cl
ATOM     19  C   UNL     1     -14.393   6.216 -33.877  0.00  0.00    +0.000 A 
ATOM     20  C   UNL     1     -15.684   6.283 -33.329  0.00  0.00    +0.000 A 
ATOM     21  C   UNL     1     -14.068   7.059 -34.947  0.00  0.00    +0.000 A 
ATOM     22  C   UNL     1     -16.634   7.173 -33.842  0.00  0.00    +0.000 A 
ATOM     23  C   UNL     1     -15.016   7.948 -35.462  0.00  0.00    +0.000 A 
ATOM     24  C   UNL     1     -16.301   8.004 -34.916  0.00  0.00    +0.000 A 
ENDBRANCH  16  19
ENDBRANCH   4  16
TORSDOF 3
ENDMDL
MODEL 7
REMARK VINA RESULT:      -6.1      2.554      9.354
REMARK  Name = 16451671
REMARK  3 active torsions:
REMARK  status: ('A' for Active; 'I' for Inactive)
REMARK    1  A    between atoms: C_7  and  C_8
REMARK    2  A    between atoms: C_8  and  C_13
REMARK    3  A    between atoms: C_11  and  C_14
REMARK                            x       y       z     vdW  Elec       q    Type
REMARK                         _______ _______ _______ _____ _____    ______ ____
ROOT
ATOM      1  S   UNL     1     -13.814   5.574 -33.206  0.00  0.00    +0.000 S 
ATOM      2  N   UNL     1     -12.893   6.621 -35.353  0.00  0.00    +0.000 N 
ATOM      3  N   UNL     1     -11.274   5.401 -34.420  0.00  0.00    +0.000 NA
ATOM      4  C   UNL     1     -14.847   6.613 -34.233  0.00  0.00    +0.000 A 
ATOM      5  C   UNL     1     -12.508   5.816 -34.326  0.00  0.00    +0.000 A 
ATOM      6  C   UNL     1     -14.191   7.064 -35.321  0.00  0.00    +0.000 A 
ATOM      7  C   UNL     1     -10.819   6.018 -35.577  0.00  0.00    +0.000 A 
ATOM      8  C   UNL     1     -11.822   6.768 -36.178  0.00  0.00    +0.000 A 
ENDROOT
BRANCH   7  10
ATOM      9 CL   UNL     1      -5.249   5.417 -37.658  0.00  0.00    +0.000 Cl
ATOM     10  C   UNL     1      -9.465   5.879 -36.085  0.00  0.00    +0.000 A 
ATOM     11  C   UNL     1      -9.044   4.664 -36.641  0.00  0.00    +0.000 A 
ATOM     12  C   UNL     1      -8.556   6.946 -36.018  0.00  0.00    +0.000 A 
ATOM     13  C   UNL     1      -7.743   4.522 -37.136  0.00  0.00    +0.000 A 
ATOM     14  C   UNL     1      -7.253   6.803 -36.504  0.00  0.00    +0.000 A 
ATOM     15  C   UNL     1      -6.853   5.592 -37.062  0.00  0.00    +0.000 A 
ENDBRANCH   7  10
BRANCH   4  16
ATOM     16  C   UNL     1     -16.288   6.851 -33.900  0.00  0.00    +0.000 C 
BRANCH  16  19
ATOM     17 CL   UNL     1     -16.162  11.720 -32.064  0.00  0.00    +0.000 Cl
ATOM     18 CL   UNL     1     -18.108  12.590 -34.524  0.00  0.00    +0.000 Cl
ATOM     19  C   UNL     1     -16.704   8.296 -34.064  0.00  0.00    +0.000 A 
ATOM     20  C   UNL     1     -16.298   9.264 -33.132  0.00  0.00    +0.000 A 
ATOM     21  C   UNL     1     -17.529   8.686 -35.127  0.00  0.00    +0.000 A 
ATOM     22  C   UNL     1     -16.711  10.596 -33.256  0.00  0.00    +0.000 A 
ATOM     23  C   UNL     1     -17.944  10.015 -35.252  0.00  0.00    +0.000 A 
ATOM     24  C   UNL     1     -17.541  10.971 -34.317  0.00  0.00    +0.000 A 
ENDBRANCH  16  19
ENDBRANCH   4  16
TORSDOF 3
ENDMDL
MODEL 8
REMARK VINA RESULT:      -5.9     20.873     24.402
REMARK  Name = 16451671
REMARK  3 active torsions:
REMARK  status: ('A' for Active; 'I' for Inactive)
REMARK    1  A    between atoms: C_7  and  C_8
REMARK    2  A    between atoms: C_8  and  C_13
REMARK    3  A    between atoms: C_11  and  C_14
REMARK                            x       y       z     vdW  Elec       q    Type
REMARK                         _______ _______ _______ _____ _____    ______ ____
ROOT
ATOM      1  S   UNL     1      -4.312   3.830 -56.204  0.00  0.00    +0.000 S 
ATOM      2  N   UNL     1      -3.593   6.213 -55.609  0.00  0.00    +0.000 N 
ATOM      3  N   UNL     1      -2.607   5.644 -57.529  0.00  0.00    +0.000 NA
ATOM      4  C   UNL     1      -4.925   4.628 -54.725  0.00  0.00    +0.000 A 
ATOM      5  C   UNL     1      -3.402   5.264 -56.566  0.00  0.00    +0.000 A 
ATOM      6  C   UNL     1      -4.443   5.878 -54.585  0.00  0.00    +0.000 A 
ATOM      7  C   UNL     1      -2.228   6.922 -57.142  0.00  0.00    +0.000 A 
ATOM      8  C   UNL     1      -2.847   7.296 -55.956  0.00  0.00    +0.000 A 
ENDROOT
BRANCH   7  10
ATOM      9 CL   UNL     1       1.557  10.323 -60.277  0.00  0.00    +0.000 Cl
ATOM     10  C   UNL     1      -1.305   7.751 -57.898  0.00  0.00    +0.000 A 
ATOM     11  C   UNL     1      -1.652   8.200 -59.179  0.00  0.00    +0.000 A 
ATOM     12  C   UNL     1      -0.055   8.108 -57.369  0.00  0.00    +0.000 A 
ATOM     13  C   UNL     1      -0.770   9.002 -59.913  0.00  0.00    +0.000 A 
ATOM     14  C   UNL     1       0.829   8.902 -58.105  0.00  0.00    +0.000 A 
ATOM     15  C   UNL     1       0.467   9.347 -59.373  0.00  0.00    +0.000 A 
ENDBRANCH   7  10
BRANCH   4  16
ATOM     16  C   UNL     1      -5.917   3.951 -53.827  0.00  0.00    +0.000 C 
BRANCH  16  19
ATOM     17 CL   UNL     1      -2.477   1.858 -50.528  0.00  0.00    +0.000 Cl
ATOM     18 CL   UNL     1      -3.655  -1.071 -51.320  0.00  0.00    +0.000 Cl
ATOM     19  C   UNL     1      -5.366   2.708 -53.165  0.00  0.00    +0.000 A 
ATOM     20  C   UNL     1      -4.312   2.801 -52.242  0.00  0.00    +0.000 A 
ATOM     21  C   UNL     1      -5.875   1.444 -53.486  0.00  0.00    +0.000 A 
ATOM     22  C   UNL     1      -3.773   1.651 -51.654  0.00  0.00    +0.000 A 
ATOM     23  C   UNL     1      -5.337   0.293 -52.900  0.00  0.00    +0.000 A 
ATOM     24  C   UNL     1      -4.283   0.393 -51.988  0.00  0.00    +0.000 A 
ENDBRANCH  16  19
ENDBRANCH   4  16
TORSDOF 3
ENDMDL
MODEL 9
REMARK VINA RESULT:      -5.9     20.594     23.487
REMARK  Name = 16451671
REMARK  3 active torsions:
REMARK  status: ('A' for Active; 'I' for Inactive)
REMARK    1  A    between atoms: C_7  and  C_8
REMARK    2  A    between atoms: C_8  and  C_13
REMARK    3  A    between atoms: C_11  and  C_14
REMARK                            x       y       z     vdW  Elec       q    Type
REMARK                         _______ _______ _______ _____ _____    ______ ____
ROOT
ATOM      1  S   UNL     1      -3.080   4.261 -56.260  0.00  0.00    +0.000 S 
ATOM      2  N   UNL     1      -4.861   4.259 -54.423  0.00  0.00    +0.000 N 
ATOM      3  N   UNL     1      -4.456   2.143 -55.005  0.00  0.00    +0.000 NA
ATOM      4  C   UNL     1      -3.645   5.795 -55.534  0.00  0.00    +0.000 A 
ATOM      5  C   UNL     1      -4.167   3.399 -55.216  0.00  0.00    +0.000 A 
ATOM      6  C   UNL     1      -4.577   5.592 -54.581  0.00  0.00    +0.000 A 
ATOM      7  C   UNL     1      -5.440   2.204 -54.028  0.00  0.00    +0.000 A 
ATOM      8  C   UNL     1      -5.691   3.515 -53.644  0.00  0.00    +0.000 A 
ENDROOT
BRANCH   7  10
ATOM      9 CL   UNL     1      -8.157  -2.617 -51.771  0.00  0.00    +0.000 Cl
ATOM     10  C   UNL     1      -6.106   1.033 -53.483  0.00  0.00    +0.000 A 
ATOM     11  C   UNL     1      -5.785   0.577 -52.199  0.00  0.00    +0.000 A 
ATOM     12  C   UNL     1      -7.068   0.337 -54.231  0.00  0.00    +0.000 A 
ATOM     13  C   UNL     1      -6.424  -0.548 -51.665  0.00  0.00    +0.000 A 
ATOM     14  C   UNL     1      -7.701  -0.792 -53.701  0.00  0.00    +0.000 A 
ATOM     15  C   UNL     1      -7.378  -1.228 -52.420  0.00  0.00    +0.000 A 
ENDBRANCH   7  10
BRANCH   4  16
ATOM     16  C   UNL     1      -3.055   7.112 -55.935  0.00  0.00    +0.000 C 
BRANCH  16  19
ATOM     17 CL   UNL     1      -4.732   6.322 -60.799  0.00  0.00    +0.000 Cl
ATOM     18 CL   UNL     1      -1.849   7.399 -61.859  0.00  0.00    +0.000 Cl
ATOM     19  C   UNL     1      -2.782   7.213 -57.420  0.00  0.00    +0.000 A 
ATOM     20  C   UNL     1      -3.747   6.798 -58.351  0.00  0.00    +0.000 A 
ATOM     21  C   UNL     1      -1.551   7.690 -57.888  0.00  0.00    +0.000 A 
ATOM     22  C   UNL     1      -3.486   6.853 -59.725  0.00  0.00    +0.000 A 
ATOM     23  C   UNL     1      -1.288   7.744 -59.260  0.00  0.00    +0.000 A 
ATOM     24  C   UNL     1      -2.251   7.323 -60.180  0.00  0.00    +0.000 A 
ENDBRANCH  16  19
ENDBRANCH   4  16
TORSDOF 3
ENDMDL
MODEL 10
REMARK VINA RESULT:      -5.9     19.313     21.072
REMARK  Name = 16451671
REMARK  3 active torsions:
REMARK  status: ('A' for Active; 'I' for Inactive)
REMARK    1  A    between atoms: C_7  and  C_8
REMARK    2  A    between atoms: C_8  and  C_13
REMARK    3  A    between atoms: C_11  and  C_14
REMARK                            x       y       z     vdW  Elec       q    Type
REMARK                         _______ _______ _______ _____ _____    ______ ____
ROOT
ATOM      1  S   UNL     1      -7.610  -0.465 -54.308  0.00  0.00    +0.000 S 
ATOM      2  N   UNL     1      -6.350  -1.865 -52.575  0.00  0.00    +0.000 N 
ATOM      3  N   UNL     1      -8.539  -2.136 -52.236  0.00  0.00    +0.000 NA
ATOM      4  C   UNL     1      -5.821  -0.503 -54.289  0.00  0.00    +0.000 A 
ATOM      5  C   UNL     1      -7.619  -1.550 -52.952  0.00  0.00    +0.000 A 
ATOM      6  C   UNL     1      -5.341  -1.299 -53.313  0.00  0.00    +0.000 A 
ATOM      7  C   UNL     1      -7.804  -2.853 -51.301  0.00  0.00    +0.000 A 
ATOM      8  C   UNL     1      -6.439  -2.706 -51.510  0.00  0.00    +0.000 A 
ENDROOT
BRANCH   7  10
ATOM      9 CL   UNL     1     -10.249  -6.170 -46.972  0.00  0.00    +0.000 Cl
ATOM     10  C   UNL     1      -8.404  -3.656 -50.249  0.00  0.00    +0.000 A 
ATOM     11  C   UNL     1      -7.596  -4.257 -49.276  0.00  0.00    +0.000 A 
ATOM     12  C   UNL     1      -9.793  -3.851 -50.193  0.00  0.00    +0.000 A 
ATOM     13  C   UNL     1      -8.166  -5.029 -48.258  0.00  0.00    +0.000 A 
ATOM     14  C   UNL     1     -10.363  -4.628 -49.181  0.00  0.00    +0.000 A 
ATOM     15  C   UNL     1      -9.547  -5.213 -48.217  0.00  0.00    +0.000 A 
ENDBRANCH   7  10
BRANCH   4  16
ATOM     16  C   UNL     1      -5.014   0.231 -55.316  0.00  0.00    +0.000 C 
BRANCH  16  19
ATOM     17 CL   UNL     1      -3.895   4.988 -57.110  0.00  0.00    +0.000 Cl
ATOM     18 CL   UNL     1      -4.490   6.142 -54.126  0.00  0.00    +0.000 Cl
ATOM     19  C   UNL     1      -4.915   1.715 -55.044  0.00  0.00    +0.000 A 
ATOM     20  C   UNL     1      -4.519   2.601 -56.059  0.00  0.00    +0.000 A 
ATOM     21  C   UNL     1      -5.183   2.226 -53.767  0.00  0.00    +0.000 A 
ATOM     22  C   UNL     1      -4.388   3.971 -55.802  0.00  0.00    +0.000 A 
ATOM     23  C   UNL     1      -5.052   3.593 -53.509  0.00  0.00    +0.000 A 
ATOM     24  C   UNL     1      -4.650   4.468 -54.522  0.00  0.00    +0.000 A 
ENDBRANCH  16  19
ENDBRANCH   4  16
TORSDOF 3
ENDMDL
