MODEL 1
REMARK VINA RESULT:      -5.1      0.000      0.000
REMARK  Name = 3493750
REMARK  7 active torsions:
REMARK  status: ('A' for Active; 'I' for Inactive)
REMARK    1  A    between atoms: S_4  and  C_11
REMARK    2  A    between atoms: S_4  and  C_14
REMARK    3  A    between atoms: O_5  and  N_8
REMARK    4  A    between atoms: O_5  and  C_20
REMARK    5  A    between atoms: C_9  and  C_13
REMARK    6  A    between atoms: C_16  and  C_25
REMARK    7  A    between atoms: C_19  and  C_20
REMARK                            x       y       z     vdW  Elec       q    Type
REMARK                         _______ _______ _______ _____ _____    ______ ____
ROOT
ATOM      1  S   UNL     1      -0.936  -4.356 -54.180  0.00  0.00    +0.000 S 
ATOM      2  N   UNL     1      -2.437  -3.529 -52.266  0.00  0.00    +0.000 N 
ATOM      3  N   UNL     1      -3.561  -5.029 -53.473  0.00  0.00    +0.000 NA
ATOM      4  C   UNL     1      -3.657  -3.624 -51.641  0.00  0.00    +0.000 A 
ATOM      5  C   UNL     1      -2.438  -4.397 -53.315  0.00  0.00    +0.000 A 
ATOM      6  C   UNL     1      -4.343  -4.550 -52.436  0.00  0.00    +0.000 A 
ATOM      7  C   UNL     1      -1.273  -2.804 -52.113  0.00  0.00    +0.000 A 
ATOM      8  C   UNL     1      -0.364  -3.117 -53.054  0.00  0.00    +0.000 A 
ENDROOT
BRANCH   4  10
ATOM      9  N   UNL     1      -4.493  -1.627 -50.465  0.00  0.00    +0.000 NA
ATOM     10  C   UNL     1      -4.034  -2.844 -50.494  0.00  0.00    +0.000 C 
BRANCH   9  11
ATOM     11  O   UNL     1      -4.697  -1.135 -51.758  0.00  0.00    +0.000 OA
BRANCH  11  12
ATOM     12  C   UNL     1      -5.498   0.046 -51.737  0.00  0.00    +0.000 C 
BRANCH  12  15
ATOM     13 CL   UNL     1      -5.540   4.601 -54.198  0.00  0.00    +0.000 Cl
ATOM     14 CL   UNL     1      -4.468   3.069 -56.862  0.00  0.00    +0.000 Cl
ATOM     15  C   UNL     1      -5.180   0.804 -53.002  0.00  0.00    +0.000 A 
ATOM     16  C   UNL     1      -5.410   2.188 -53.048  0.00  0.00    +0.000 A 
ATOM     17  C   UNL     1      -4.707   0.155 -54.146  0.00  0.00    +0.000 A 
ATOM     18  C   UNL     1      -5.197   2.909 -54.223  0.00  0.00    +0.000 A 
ATOM     19  C   UNL     1      -4.485   0.874 -55.325  0.00  0.00    +0.000 A 
ATOM     20  C   UNL     1      -4.736   2.248 -55.366  0.00  0.00    +0.000 A 
ENDBRANCH  12  15
ENDBRANCH  11  12
ENDBRANCH   9  11
ENDBRANCH   4  10
BRANCH   6  21
ATOM     21  S   UNL     1      -6.039  -4.987 -52.359  0.00  0.00    +0.000 S 
BRANCH  21  22
ATOM     22  C   UNL     1      -6.928  -3.594 -53.046  0.00  0.00    +0.000 A 
ATOM     23  C   UNL     1      -8.293  -1.273 -53.921  0.00  0.00    +0.000 A 
ATOM     24  C   UNL     1      -6.829  -3.162 -54.372  0.00  0.00    +0.000 A 
ATOM     25  C   UNL     1      -7.754  -2.870 -52.175  0.00  0.00    +0.000 A 
ATOM     26  C   UNL     1      -7.502  -2.013 -54.806  0.00  0.00    +0.000 A 
ATOM     27  C   UNL     1      -8.429  -1.723 -52.605  0.00  0.00    +0.000 A 
ATOM     28  C   UNL     1      -8.956  -0.000 -54.356  0.00  0.00    +0.000 C 
ENDBRANCH  21  22
ENDBRANCH   6  21
TORSDOF 6
ENDMDL
MODEL 2
REMARK VINA RESULT:      -4.8     18.354     21.333
REMARK  Name = 3493750
REMARK  7 active torsions:
REMARK  status: ('A' for Active; 'I' for Inactive)
REMARK    1  A    between atoms: S_4  and  C_11
REMARK    2  A    between atoms: S_4  and  C_14
REMARK    3  A    between atoms: O_5  and  N_8
REMARK    4  A    between atoms: O_5  and  C_20
REMARK    5  A    between atoms: C_9  and  C_13
REMARK    6  A    between atoms: C_16  and  C_25
REMARK    7  A    between atoms: C_19  and  C_20
REMARK                            x       y       z     vdW  Elec       q    Type
REMARK                         _______ _______ _______ _____ _____    ______ ____
ROOT
ATOM      1  S   UNL     1     -27.550   8.100 -57.044  0.00  0.00    +0.000 S 
ATOM      2  N   UNL     1     -26.093   6.278 -58.119  0.00  0.00    +0.000 N 
ATOM      3  N   UNL     1     -25.755   6.270 -55.915  0.00  0.00    +0.000 NA
ATOM      4  C   UNL     1     -25.185   5.267 -57.917  0.00  0.00    +0.000 A 
ATOM      5  C   UNL     1     -26.405   6.806 -56.904  0.00  0.00    +0.000 A 
ATOM      6  C   UNL     1     -24.976   5.306 -56.534  0.00  0.00    +0.000 A 
ATOM      7  C   UNL     1     -26.729   6.870 -59.190  0.00  0.00    +0.000 A 
ATOM      8  C   UNL     1     -27.542   7.867 -58.798  0.00  0.00    +0.000 A 
ENDROOT
BRANCH   4  10
ATOM      9  N   UNL     1     -23.469   4.656 -59.577  0.00  0.00    +0.000 NA
ATOM     10  C   UNL     1     -24.609   4.481 -58.975  0.00  0.00    +0.000 C 
BRANCH   9  11
ATOM     11  O   UNL     1     -22.746   5.702 -58.993  0.00  0.00    +0.000 OA
BRANCH  11  12
ATOM     12  C   UNL     1     -22.783   6.871 -59.810  0.00  0.00    +0.000 C 
BRANCH  12  15
ATOM     13 CL   UNL     1     -24.219  10.141 -56.062  0.00  0.00    +0.000 Cl
ATOM     14 CL   UNL     1     -21.362  11.659 -56.417  0.00  0.00    +0.000 Cl
ATOM     15  C   UNL     1     -22.396   8.029 -58.924  0.00  0.00    +0.000 A 
ATOM     16  C   UNL     1     -23.313   8.498 -57.970  0.00  0.00    +0.000 A 
ATOM     17  C   UNL     1     -21.166   8.678 -59.062  0.00  0.00    +0.000 A 
ATOM     18  C   UNL     1     -23.019   9.612 -57.184  0.00  0.00    +0.000 A 
ATOM     19  C   UNL     1     -20.863   9.791 -58.272  0.00  0.00    +0.000 A 
ATOM     20  C   UNL     1     -21.790  10.262 -57.339  0.00  0.00    +0.000 A 
ENDBRANCH  12  15
ENDBRANCH  11  12
ENDBRANCH   9  11
ENDBRANCH   4  10
BRANCH   6  21
ATOM     21  S   UNL     1     -23.770   4.442 -55.601  0.00  0.00    +0.000 S 
BRANCH  21  22
ATOM     22  C   UNL     1     -22.343   5.519 -55.540  0.00  0.00    +0.000 A 
ATOM     23  C   UNL     1     -20.051   7.174 -55.683  0.00  0.00    +0.000 A 
ATOM     24  C   UNL     1     -22.284   6.724 -54.833  0.00  0.00    +0.000 A 
ATOM     25  C   UNL     1     -21.220   5.136 -56.288  0.00  0.00    +0.000 A 
ATOM     26  C   UNL     1     -21.151   7.544 -54.904  0.00  0.00    +0.000 A 
ATOM     27  C   UNL     1     -20.086   5.952 -56.360  0.00  0.00    +0.000 A 
ATOM     28  C   UNL     1     -18.864   8.081 -55.826  0.00  0.00    +0.000 C 
ENDBRANCH  21  22
ENDBRANCH   6  21
TORSDOF 6
ENDMDL
MODEL 3
REMARK VINA RESULT:      -4.7     15.670     17.342
REMARK  Name = 3493750
REMARK  7 active torsions:
REMARK  status: ('A' for Active; 'I' for Inactive)
REMARK    1  A    between atoms: S_4  and  C_11
REMARK    2  A    between atoms: S_4  and  C_14
REMARK    3  A    between atoms: O_5  and  N_8
REMARK    4  A    between atoms: O_5  and  C_20
REMARK    5  A    between atoms: C_9  and  C_13
REMARK    6  A    between atoms: C_16  and  C_25
REMARK    7  A    between atoms: C_19  and  C_20
REMARK                            x       y       z     vdW  Elec       q    Type
REMARK                         _______ _______ _______ _____ _____    ______ ____
ROOT
ATOM      1  S   UNL     1      -7.757  15.261 -57.100  0.00  0.00    +0.000 S 
ATOM      2  N   UNL     1      -9.630  14.161 -55.729  0.00  0.00    +0.000 N 
ATOM      3  N   UNL     1     -10.542  15.513 -57.250  0.00  0.00    +0.000 NA
ATOM      4  C   UNL     1     -10.984  14.032 -55.532  0.00  0.00    +0.000 A 
ATOM      5  C   UNL     1      -9.442  15.022 -56.766  0.00  0.00    +0.000 A 
ATOM      6  C   UNL     1     -11.523  14.909 -56.481  0.00  0.00    +0.000 A 
ATOM      7  C   UNL     1      -8.472  13.671 -55.162  0.00  0.00    +0.000 A 
ATOM      8  C   UNL     1      -7.376  14.159 -55.769  0.00  0.00    +0.000 A 
ENDROOT
BRANCH   4  10
ATOM      9  N   UNL     1     -11.907  11.956 -54.579  0.00  0.00    +0.000 NA
ATOM     10  C   UNL     1     -11.572  13.211 -54.509  0.00  0.00    +0.000 C 
BRANCH   9  11
ATOM     11  O   UNL     1     -11.524  11.401 -55.804  0.00  0.00    +0.000 OA
BRANCH  11  12
ATOM     12  C   UNL     1     -12.664  11.020 -56.574  0.00  0.00    +0.000 C 
BRANCH  12  15
ATOM     13 CL   UNL     1      -9.377  13.029 -60.034  0.00  0.00    +0.000 Cl
ATOM     14 CL   UNL     1     -11.158  11.655 -62.387  0.00  0.00    +0.000 Cl
ATOM     15  C   UNL     1     -12.259  11.123 -58.024  0.00  0.00    +0.000 A 
ATOM     16  C   UNL     1     -11.127  11.878 -58.367  0.00  0.00    +0.000 A 
ATOM     17  C   UNL     1     -13.011  10.524 -59.039  0.00  0.00    +0.000 A 
ATOM     18  C   UNL     1     -10.764  12.055 -59.702  0.00  0.00    +0.000 A 
ATOM     19  C   UNL     1     -12.649  10.693 -60.378  0.00  0.00    +0.000 A 
ATOM     20  C   UNL     1     -11.531  11.463 -60.711  0.00  0.00    +0.000 A 
ENDBRANCH  12  15
ENDBRANCH  11  12
ENDBRANCH   9  11
ENDBRANCH   4  10
BRANCH   6  21
ATOM     21  S   UNL     1     -13.190  15.422 -56.650  0.00  0.00    +0.000 S 
BRANCH  21  22
ATOM     22  C   UNL     1     -13.784  14.644 -58.148  0.00  0.00    +0.000 A 
ATOM     23  C   UNL     1     -14.952  13.447 -60.433  0.00  0.00    +0.000 A 
ATOM     24  C   UNL     1     -13.238  14.843 -59.419  0.00  0.00    +0.000 A 
ATOM     25  C   UNL     1     -14.901  13.802 -58.033  0.00  0.00    +0.000 A 
ATOM     26  C   UNL     1     -13.815  14.253 -60.551  0.00  0.00    +0.000 A 
ATOM     27  C   UNL     1     -15.479  13.211 -59.160  0.00  0.00    +0.000 A 
ATOM     28  C   UNL     1     -15.623  12.873 -61.645  0.00  0.00    +0.000 C 
ENDBRANCH  21  22
ENDBRANCH   6  21
TORSDOF 6
ENDMDL
MODEL 4
REMARK VINA RESULT:      -4.7      7.511     10.060
REMARK  Name = 3493750
REMARK  7 active torsions:
REMARK  status: ('A' for Active; 'I' for Inactive)
REMARK    1  A    between atoms: S_4  and  C_11
REMARK    2  A    between atoms: S_4  and  C_14
REMARK    3  A    between atoms: O_5  and  N_8
REMARK    4  A    between atoms: O_5  and  C_20
REMARK    5  A    between atoms: C_9  and  C_13
REMARK    6  A    between atoms: C_16  and  C_25
REMARK    7  A    between atoms: C_19  and  C_20
REMARK                            x       y       z     vdW  Elec       q    Type
REMARK                         _______ _______ _______ _____ _____    ______ ____
ROOT
ATOM      1  S   UNL     1      -0.166   3.468 -60.436  0.00  0.00    +0.000 S 
ATOM      2  N   UNL     1      -2.110   5.145 -60.537  0.00  0.00    +0.000 N 
ATOM      3  N   UNL     1      -0.953   5.489 -58.663  0.00  0.00    +0.000 NA
ATOM      4  C   UNL     1      -2.752   6.196 -59.928  0.00  0.00    +0.000 A 
ATOM      5  C   UNL     1      -1.051   4.797 -59.757  0.00  0.00    +0.000 A 
ATOM      6  C   UNL     1      -2.019   6.369 -58.748  0.00  0.00    +0.000 A 
ATOM      7  C   UNL     1      -2.268   4.384 -61.677  0.00  0.00    +0.000 A 
ATOM      8  C   UNL     1      -1.318   3.438 -61.779  0.00  0.00    +0.000 A 
ENDROOT
BRANCH   4  10
ATOM      9  N   UNL     1      -5.172   6.462 -60.309  0.00  0.00    +0.000 NA
ATOM     10  C   UNL     1      -3.932   6.830 -60.452  0.00  0.00    +0.000 C 
BRANCH   9  11
ATOM     11  O   UNL     1      -5.276   5.364 -59.450  0.00  0.00    +0.000 OA
BRANCH  11  12
ATOM     12  C   UNL     1      -6.568   4.764 -59.536  0.00  0.00    +0.000 C 
BRANCH  12  15
ATOM     13 CL   UNL     1      -4.472   0.088 -60.278  0.00  0.00    +0.000 Cl
ATOM     14 CL   UNL     1      -5.786   0.072 -63.256  0.00  0.00    +0.000 Cl
ATOM     15  C   UNL     1      -6.428   3.569 -60.447  0.00  0.00    +0.000 A 
ATOM     16  C   UNL     1      -5.665   2.471 -60.024  0.00  0.00    +0.000 A 
ATOM     17  C   UNL     1      -7.001   3.550 -61.723  0.00  0.00    +0.000 A 
ATOM     18  C   UNL     1      -5.453   1.380 -60.868  0.00  0.00    +0.000 A 
ATOM     19  C   UNL     1      -6.798   2.457 -62.570  0.00  0.00    +0.000 A 
ATOM     20  C   UNL     1      -6.020   1.376 -62.147  0.00  0.00    +0.000 A 
ENDBRANCH  12  15
ENDBRANCH  11  12
ENDBRANCH   9  11
ENDBRANCH   4  10
BRANCH   6  21
ATOM     21  S   UNL     1      -2.406   7.392 -57.379  0.00  0.00    +0.000 S 
BRANCH  21  22
ATOM     22  C   UNL     1      -3.388   6.376 -56.281  0.00  0.00    +0.000 A 
ATOM     23  C   UNL     1      -4.819   4.575 -54.630  0.00  0.00    +0.000 A 
ATOM     24  C   UNL     1      -3.751   6.732 -54.978  0.00  0.00    +0.000 A 
ATOM     25  C   UNL     1      -3.789   5.120 -56.758  0.00  0.00    +0.000 A 
ATOM     26  C   UNL     1      -4.458   5.842 -54.160  0.00  0.00    +0.000 A 
ATOM     27  C   UNL     1      -4.495   4.228 -55.945  0.00  0.00    +0.000 A 
ATOM     28  C   UNL     1      -5.508   3.586 -53.737  0.00  0.00    +0.000 C 
ENDBRANCH  21  22
ENDBRANCH   6  21
TORSDOF 6
ENDMDL
MODEL 5
REMARK VINA RESULT:      -4.6      2.629      4.677
REMARK  Name = 3493750
REMARK  7 active torsions:
REMARK  status: ('A' for Active; 'I' for Inactive)
REMARK    1  A    between atoms: S_4  and  C_11
REMARK    2  A    between atoms: S_4  and  C_14
REMARK    3  A    between atoms: O_5  and  N_8
REMARK    4  A    between atoms: O_5  and  C_20
REMARK    5  A    between atoms: C_9  and  C_13
REMARK    6  A    between atoms: C_16  and  C_25
REMARK    7  A    between atoms: C_19  and  C_20
REMARK                            x       y       z     vdW  Elec       q    Type
REMARK                         _______ _______ _______ _____ _____    ______ ____
ROOT
ATOM      1  S   UNL     1      -3.830  -4.879 -54.380  0.00  0.00    +0.000 S 
ATOM      2  N   UNL     1      -5.288  -3.737 -52.600  0.00  0.00    +0.000 N 
ATOM      3  N   UNL     1      -3.519  -2.448 -53.025  0.00  0.00    +0.000 NA
ATOM      4  C   UNL     1      -5.460  -2.643 -51.787  0.00  0.00    +0.000 A 
ATOM      5  C   UNL     1      -4.146  -3.547 -53.317  0.00  0.00    +0.000 A 
ATOM      6  C   UNL     1      -4.326  -1.870 -52.059  0.00  0.00    +0.000 A 
ATOM      7  C   UNL     1      -5.940  -4.926 -52.851  0.00  0.00    +0.000 A 
ATOM      8  C   UNL     1      -5.296  -5.662 -53.775  0.00  0.00    +0.000 A 
ENDROOT
BRANCH   4  10
ATOM      9  N   UNL     1      -7.488  -1.581 -50.874  0.00  0.00    +0.000 NA
ATOM     10  C   UNL     1      -6.556  -2.489 -50.869  0.00  0.00    +0.000 C 
BRANCH   9  11
ATOM     11  O   UNL     1      -7.382  -0.758 -51.999  0.00  0.00    +0.000 OA
BRANCH  11  12
ATOM     12  C   UNL     1      -8.266  -1.185 -53.034  0.00  0.00    +0.000 C 
BRANCH  12  15
ATOM     13 CL   UNL     1      -6.767  -4.230 -56.944  0.00  0.00    +0.000 Cl
ATOM     14 CL   UNL     1      -4.755  -1.857 -57.901  0.00  0.00    +0.000 Cl
ATOM     15  C   UNL     1      -7.432  -1.322 -54.284  0.00  0.00    +0.000 A 
ATOM     16  C   UNL     1      -7.480  -2.521 -55.012  0.00  0.00    +0.000 A 
ATOM     17  C   UNL     1      -6.575  -0.302 -54.708  0.00  0.00    +0.000 A 
ATOM     18  C   UNL     1      -6.668  -2.711 -56.130  0.00  0.00    +0.000 A 
ATOM     19  C   UNL     1      -5.764  -0.484 -55.832  0.00  0.00    +0.000 A 
ATOM     20  C   UNL     1      -5.805  -1.688 -56.539  0.00  0.00    +0.000 A 
ENDBRANCH  12  15
ENDBRANCH  11  12
ENDBRANCH   9  11
ENDBRANCH   4  10
BRANCH   6  21
ATOM     21  S   UNL     1      -3.772  -0.436 -51.218  0.00  0.00    +0.000 S 
BRANCH  21  22
ATOM     22  C   UNL     1      -4.101   0.931 -52.325  0.00  0.00    +0.000 A 
ATOM     23  C   UNL     1      -4.566   2.941 -54.263  0.00  0.00    +0.000 A 
ATOM     24  C   UNL     1      -5.133   1.859 -52.161  0.00  0.00    +0.000 A 
ATOM     25  C   UNL     1      -3.278   1.050 -53.456  0.00  0.00    +0.000 A 
ATOM     26  C   UNL     1      -5.365   2.853 -53.120  0.00  0.00    +0.000 A 
ATOM     27  C   UNL     1      -3.507   2.042 -54.415  0.00  0.00    +0.000 A 
ATOM     28  C   UNL     1      -4.855   3.953 -55.333  0.00  0.00    +0.000 C 
ENDBRANCH  21  22
ENDBRANCH   6  21
TORSDOF 6
ENDMDL
MODEL 6
REMARK VINA RESULT:      -4.6     15.199     17.612
REMARK  Name = 3493750
REMARK  7 active torsions:
REMARK  status: ('A' for Active; 'I' for Inactive)
REMARK    1  A    between atoms: S_4  and  C_11
REMARK    2  A    between atoms: S_4  and  C_14
REMARK    3  A    between atoms: O_5  and  N_8
REMARK    4  A    between atoms: O_5  and  C_20
REMARK    5  A    between atoms: C_9  and  C_13
REMARK    6  A    between atoms: C_16  and  C_25
REMARK    7  A    between atoms: C_19  and  C_20
REMARK                            x       y       z     vdW  Elec       q    Type
REMARK                         _______ _______ _______ _____ _____    ______ ____
ROOT
ATOM      1  S   UNL     1       0.753  13.155 -45.078  0.00  0.00    +0.000 S 
ATOM      2  N   UNL     1      -0.540  12.133 -43.108  0.00  0.00    +0.000 N 
ATOM      3  N   UNL     1      -1.960  12.527 -44.781  0.00  0.00    +0.000 NA
ATOM      4  C   UNL     1      -1.755  11.701 -42.633  0.00  0.00    +0.000 A 
ATOM      5  C   UNL     1      -0.726  12.580 -44.380  0.00  0.00    +0.000 A 
ATOM      6  C   UNL     1      -2.624  11.985 -43.693  0.00  0.00    +0.000 A 
ATOM      7  C   UNL     1       0.753  12.234 -42.640  0.00  0.00    +0.000 A 
ATOM      8  C   UNL     1       1.577  12.764 -43.562  0.00  0.00    +0.000 A 
ENDROOT
BRANCH   4  10
ATOM      9  N   UNL     1      -1.787   9.947 -40.902  0.00  0.00    +0.000 NA
ATOM     10  C   UNL     1      -1.958  11.170 -41.312  0.00  0.00    +0.000 C 
BRANCH   9  11
ATOM     11  O   UNL     1      -1.250   9.147 -41.915  0.00  0.00    +0.000 OA
BRANCH  11  12
ATOM     12  C   UNL     1      -0.004   8.578 -41.515  0.00  0.00    +0.000 C 
BRANCH  12  15
ATOM     13 CL   UNL     1      -2.169   4.464 -43.793  0.00  0.00    +0.000 Cl
ATOM     14 CL   UNL     1      -1.000   2.624 -41.376  0.00  0.00    +0.000 Cl
ATOM     15  C   UNL     1      -0.196   7.082 -41.507  0.00  0.00    +0.000 A 
ATOM     16  C   UNL     1      -0.947   6.481 -42.529  0.00  0.00    +0.000 A 
ATOM     17  C   UNL     1       0.314   6.283 -40.479  0.00  0.00    +0.000 A 
ATOM     18  C   UNL     1      -1.207   5.111 -42.514  0.00  0.00    +0.000 A 
ATOM     19  C   UNL     1       0.062   4.909 -40.462  0.00  0.00    +0.000 A 
ATOM     20  C   UNL     1      -0.703   4.323 -41.474  0.00  0.00    +0.000 A 
ENDBRANCH  12  15
ENDBRANCH  11  12
ENDBRANCH   9  11
ENDBRANCH   4  10
BRANCH   6  21
ATOM     21  S   UNL     1      -4.374  11.900 -43.704  0.00  0.00    +0.000 S 
BRANCH  21  22
ATOM     22  C   UNL     1      -4.938  13.515 -43.176  0.00  0.00    +0.000 A 
ATOM     23  C   UNL     1      -6.027  16.034 -42.483  0.00  0.00    +0.000 A 
ATOM     24  C   UNL     1      -4.813  14.016 -41.877  0.00  0.00    +0.000 A 
ATOM     25  C   UNL     1      -5.581  14.312 -44.134  0.00  0.00    +0.000 A 
ATOM     26  C   UNL     1      -5.353  15.262 -41.533  0.00  0.00    +0.000 A 
ATOM     27  C   UNL     1      -6.120  15.557 -43.794  0.00  0.00    +0.000 A 
ATOM     28  C   UNL     1      -6.675  17.334 -42.106  0.00  0.00    +0.000 C 
ENDBRANCH  21  22
ENDBRANCH   6  21
TORSDOF 6
ENDMDL
MODEL 7
REMARK VINA RESULT:      -4.5     21.749     23.609
REMARK  Name = 3493750
REMARK  7 active torsions:
REMARK  status: ('A' for Active; 'I' for Inactive)
REMARK    1  A    between atoms: S_4  and  C_11
REMARK    2  A    between atoms: S_4  and  C_14
REMARK    3  A    between atoms: O_5  and  N_8
REMARK    4  A    between atoms: O_5  and  C_20
REMARK    5  A    between atoms: C_9  and  C_13
REMARK    6  A    between atoms: C_16  and  C_25
REMARK    7  A    between atoms: C_19  and  C_20
REMARK                            x       y       z     vdW  Elec       q    Type
REMARK                         _______ _______ _______ _____ _____    ______ ____
ROOT
ATOM      1  S   UNL     1     -12.863   6.019 -29.025  0.00  0.00    +0.000 S 
ATOM      2  N   UNL     1     -12.952   7.967 -30.697  0.00  0.00    +0.000 N 
ATOM      3  N   UNL     1     -13.974   6.197 -31.590  0.00  0.00    +0.000 NA
ATOM      4  C   UNL     1     -13.380   8.404 -31.928  0.00  0.00    +0.000 A 
ATOM      5  C   UNL     1     -13.356   6.675 -30.553  0.00  0.00    +0.000 A 
ATOM      6  C   UNL     1     -13.992   7.268 -32.468  0.00  0.00    +0.000 A 
ATOM      7  C   UNL     1     -12.243   8.477 -29.630  0.00  0.00    +0.000 A 
ATOM      8  C   UNL     1     -12.098   7.569 -28.649  0.00  0.00    +0.000 A 
ENDROOT
BRANCH   4  10
ATOM      9  N   UNL     1     -12.178  10.102 -33.248  0.00  0.00    +0.000 NA
ATOM     10  C   UNL     1     -13.128   9.723 -32.443  0.00  0.00    +0.000 C 
BRANCH   9  11
ATOM     11  O   UNL     1     -11.420   9.011 -33.683  0.00  0.00    +0.000 OA
BRANCH  11  12
ATOM     12  C   UNL     1     -11.377   8.950 -35.108  0.00  0.00    +0.000 C 
BRANCH  12  15
ATOM     13 CL   UNL     1     -11.145   4.390 -37.549  0.00  0.00    +0.000 Cl
ATOM     14 CL   UNL     1      -8.146   4.000 -36.344  0.00  0.00    +0.000 Cl
ATOM     15  C   UNL     1     -10.541   7.745 -35.463  0.00  0.00    +0.000 A 
ATOM     16  C   UNL     1     -11.091   6.745 -36.278  0.00  0.00    +0.000 A 
ATOM     17  C   UNL     1      -9.247   7.577 -34.959  0.00  0.00    +0.000 A 
ATOM     18  C   UNL     1     -10.375   5.583 -36.566  0.00  0.00    +0.000 A 
ATOM     19  C   UNL     1      -8.522   6.418 -35.251  0.00  0.00    +0.000 A 
ATOM     20  C   UNL     1      -9.086   5.419 -36.048  0.00  0.00    +0.000 A 
ENDBRANCH  12  15
ENDBRANCH  11  12
ENDBRANCH   9  11
ENDBRANCH   4  10
BRANCH   6  21
ATOM     21  S   UNL     1     -14.568   7.030 -34.106  0.00  0.00    +0.000 S 
BRANCH  21  22
ATOM     22  C   UNL     1     -16.304   7.464 -34.074  0.00  0.00    +0.000 A 
ATOM     23  C   UNL     1     -19.049   8.130 -34.269  0.00  0.00    +0.000 A 
ATOM     24  C   UNL     1     -17.219   7.017 -33.117  0.00  0.00    +0.000 A 
ATOM     25  C   UNL     1     -16.778   8.285 -35.109  0.00  0.00    +0.000 A 
ATOM     26  C   UNL     1     -18.578   7.344 -33.212  0.00  0.00    +0.000 A 
ATOM     27  C   UNL     1     -18.133   8.615 -35.207  0.00  0.00    +0.000 A 
ATOM     28  C   UNL     1     -20.512   8.422 -34.422  0.00  0.00    +0.000 C 
ENDBRANCH  21  22
ENDBRANCH   6  21
TORSDOF 6
ENDMDL
MODEL 8
REMARK VINA RESULT:      -4.5     22.183     24.210
REMARK  Name = 3493750
REMARK  7 active torsions:
REMARK  status: ('A' for Active; 'I' for Inactive)
REMARK    1  A    between atoms: S_4  and  C_11
REMARK    2  A    between atoms: S_4  and  C_14
REMARK    3  A    between atoms: O_5  and  N_8
REMARK    4  A    between atoms: O_5  and  C_20
REMARK    5  A    between atoms: C_9  and  C_13
REMARK    6  A    between atoms: C_16  and  C_25
REMARK    7  A    between atoms: C_19  and  C_20
REMARK                            x       y       z     vdW  Elec       q    Type
REMARK                         _______ _______ _______ _____ _____    ______ ____
ROOT
ATOM      1  S   UNL     1     -11.079   7.010 -28.749  0.00  0.00    +0.000 S 
ATOM      2  N   UNL     1     -12.198   8.426 -30.577  0.00  0.00    +0.000 N 
ATOM      3  N   UNL     1     -10.212   7.730 -31.314  0.00  0.00    +0.000 NA
ATOM      4  C   UNL     1     -12.106   8.940 -31.848  0.00  0.00    +0.000 A 
ATOM      5  C   UNL     1     -11.068   7.706 -30.337  0.00  0.00    +0.000 A 
ATOM      6  C   UNL     1     -10.843   8.508 -32.269  0.00  0.00    +0.000 A 
ATOM      7  C   UNL     1     -13.097   8.463 -29.532  0.00  0.00    +0.000 A 
ATOM      8  C   UNL     1     -12.657   7.762 -28.472  0.00  0.00    +0.000 A 
ENDROOT
BRANCH   4  10
ATOM      9  N   UNL     1     -14.187   9.402 -33.085  0.00  0.00    +0.000 NA
ATOM     10  C   UNL     1     -13.111   9.772 -32.453  0.00  0.00    +0.000 C 
BRANCH   9  11
ATOM     11  O   UNL     1     -14.346   8.013 -33.038  0.00  0.00    +0.000 OA
BRANCH  11  12
ATOM     12  C   UNL     1     -14.843   7.510 -34.277  0.00  0.00    +0.000 C 
BRANCH  12  15
ATOM     13 CL   UNL     1     -19.403   6.767 -31.941  0.00  0.00    +0.000 Cl
ATOM     14 CL   UNL     1     -20.822   8.347 -34.408  0.00  0.00    +0.000 Cl
ATOM     15  C   UNL     1     -16.328   7.777 -34.286  0.00  0.00    +0.000 A 
ATOM     16  C   UNL     1     -17.120   7.279 -33.240  0.00  0.00    +0.000 A 
ATOM     17  C   UNL     1     -16.943   8.466 -35.336  0.00  0.00    +0.000 A 
ATOM     18  C   UNL     1     -18.505   7.442 -33.251  0.00  0.00    +0.000 A 
ATOM     19  C   UNL     1     -18.330   8.639 -35.350  0.00  0.00    +0.000 A 
ATOM     20  C   UNL     1     -19.112   8.123 -34.313  0.00  0.00    +0.000 A 
ENDBRANCH  12  15
ENDBRANCH  11  12
ENDBRANCH   9  11
ENDBRANCH   4  10
BRANCH   6  21
ATOM     21  S   UNL     1      -9.969   8.981 -33.713  0.00  0.00    +0.000 S 
BRANCH  21  22
ATOM     22  C   UNL     1     -10.300   7.701 -34.919  0.00  0.00    +0.000 A 
ATOM     23  C   UNL     1     -10.709   5.520 -36.677  0.00  0.00    +0.000 A 
ATOM     24  C   UNL     1     -11.491   7.577 -35.641  0.00  0.00    +0.000 A 
ATOM     25  C   UNL     1      -9.301   6.738 -35.121  0.00  0.00    +0.000 A 
ATOM     26  C   UNL     1     -11.695   6.497 -36.510  0.00  0.00    +0.000 A 
ATOM     27  C   UNL     1      -9.501   5.659 -35.989  0.00  0.00    +0.000 A 
ATOM     28  C   UNL     1     -10.948   4.321 -37.545  0.00  0.00    +0.000 C 
ENDBRANCH  21  22
ENDBRANCH   6  21
TORSDOF 6
ENDMDL
MODEL 9
REMARK VINA RESULT:      -4.5     15.297     17.659
REMARK  Name = 3493750
REMARK  7 active torsions:
REMARK  status: ('A' for Active; 'I' for Inactive)
REMARK    1  A    between atoms: S_4  and  C_11
REMARK    2  A    between atoms: S_4  and  C_14
REMARK    3  A    between atoms: O_5  and  N_8
REMARK    4  A    between atoms: O_5  and  C_20
REMARK    5  A    between atoms: C_9  and  C_13
REMARK    6  A    between atoms: C_16  and  C_25
REMARK    7  A    between atoms: C_19  and  C_20
REMARK                            x       y       z     vdW  Elec       q    Type
REMARK                         _______ _______ _______ _____ _____    ______ ____
ROOT
ATOM      1  S   UNL     1      -7.547  15.699 -54.796  0.00  0.00    +0.000 S 
ATOM      2  N   UNL     1      -9.523  14.159 -54.224  0.00  0.00    +0.000 N 
ATOM      3  N   UNL     1     -10.313  16.101 -54.984  0.00  0.00    +0.000 NA
ATOM      4  C   UNL     1     -10.888  14.006 -54.197  0.00  0.00    +0.000 A 
ATOM      5  C   UNL     1      -9.253  15.398 -54.720  0.00  0.00    +0.000 A 
ATOM      6  C   UNL     1     -11.350  15.246 -54.653  0.00  0.00    +0.000 A 
ATOM      7  C   UNL     1      -8.412  13.416 -53.882  0.00  0.00    +0.000 A 
ATOM      8  C   UNL     1      -7.271  14.088 -54.118  0.00  0.00    +0.000 A 
ENDROOT
BRANCH   4  10
ATOM      9  N   UNL     1     -12.126  11.887 -54.416  0.00  0.00    +0.000 NA
ATOM     10  C   UNL     1     -11.554  12.825 -53.719  0.00  0.00    +0.000 C 
BRANCH   9  11
ATOM     11  O   UNL     1     -11.937  12.092 -55.786  0.00  0.00    +0.000 OA
BRANCH  11  12
ATOM     12  C   UNL     1     -11.538  10.886 -56.436  0.00  0.00    +0.000 C 
BRANCH  12  15
ATOM     13 CL   UNL     1     -10.523  11.943 -61.402  0.00  0.00    +0.000 Cl
ATOM     14 CL   UNL     1     -13.671  11.440 -62.058  0.00  0.00    +0.000 Cl
ATOM     15  C   UNL     1     -12.065  10.962 -57.848  0.00  0.00    +0.000 A 
ATOM     16  C   UNL     1     -11.193  11.318 -58.888  0.00  0.00    +0.000 A 
ATOM     17  C   UNL     1     -13.414  10.734 -58.139  0.00  0.00    +0.000 A 
ATOM     18  C   UNL     1     -11.660  11.469 -60.193  0.00  0.00    +0.000 A 
ATOM     19  C   UNL     1     -13.887  10.878 -59.446  0.00  0.00    +0.000 A 
ATOM     20  C   UNL     1     -13.014  11.251 -60.472  0.00  0.00    +0.000 A 
ENDBRANCH  12  15
ENDBRANCH  11  12
ENDBRANCH   9  11
ENDBRANCH   4  10
BRANCH   6  21
ATOM     21  S   UNL     1     -12.998  15.842 -54.666  0.00  0.00    +0.000 S 
BRANCH  21  22
ATOM     22  C   UNL     1     -13.503  15.902 -52.951  0.00  0.00    +0.000 A 
ATOM     23  C   UNL     1     -14.147  16.186 -50.208  0.00  0.00    +0.000 A 
ATOM     24  C   UNL     1     -14.812  15.709 -52.498  0.00  0.00    +0.000 A 
ATOM     25  C   UNL     1     -12.513  16.199 -52.002  0.00  0.00    +0.000 A 
ATOM     26  C   UNL     1     -15.132  15.851 -51.142  0.00  0.00    +0.000 A 
ATOM     27  C   UNL     1     -12.829  16.340 -50.647  0.00  0.00    +0.000 A 
ATOM     28  C   UNL     1     -14.493  16.415 -48.767  0.00  0.00    +0.000 C 
ENDBRANCH  21  22
ENDBRANCH   6  21
TORSDOF 6
ENDMDL
MODEL 10
REMARK VINA RESULT:      -4.5     20.745     23.097
REMARK  Name = 3493750
REMARK  7 active torsions:
REMARK  status: ('A' for Active; 'I' for Inactive)
REMARK    1  A    between atoms: S_4  and  C_11
REMARK    2  A    between atoms: S_4  and  C_14
REMARK    3  A    between atoms: O_5  and  N_8
REMARK    4  A    between atoms: O_5  and  C_20
REMARK    5  A    between atoms: C_9  and  C_13
REMARK    6  A    between atoms: C_16  and  C_25
REMARK    7  A    between atoms: C_19  and  C_20
REMARK                            x       y       z     vdW  Elec       q    Type
REMARK                         _______ _______ _______ _____ _____    ______ ____
ROOT
ATOM      1  S   UNL     1     -19.462  20.123 -46.473  0.00  0.00    +0.000 S 
ATOM      2  N   UNL     1     -18.884  17.866 -47.557  0.00  0.00    +0.000 N 
ATOM      3  N   UNL     1     -18.582  17.711 -45.353  0.00  0.00    +0.000 NA
ATOM      4  C   UNL     1     -18.473  16.570 -47.360  0.00  0.00    +0.000 A 
ATOM      5  C   UNL     1     -18.952  18.470 -46.339  0.00  0.00    +0.000 A 
ATOM      6  C   UNL     1     -18.269  16.514 -45.976  0.00  0.00    +0.000 A 
ATOM      7  C   UNL     1     -19.218  18.672 -48.626  0.00  0.00    +0.000 A 
ATOM      8  C   UNL     1     -19.548  19.914 -48.228  0.00  0.00    +0.000 A 
ENDROOT
BRANCH   4  10
ATOM      9  N   UNL     1     -17.200  15.429 -49.135  0.00  0.00    +0.000 NA
ATOM     10  C   UNL     1     -18.272  15.621 -48.421  0.00  0.00    +0.000 C 
BRANCH   9  11
ATOM     11  O   UNL     1     -16.143  16.222 -48.679  0.00  0.00    +0.000 OA
BRANCH  11  12
ATOM     12  C   UNL     1     -14.918  15.860 -49.314  0.00  0.00    +0.000 C 
BRANCH  12  15
ATOM     13 CL   UNL     1     -13.716  19.965 -46.397  0.00  0.00    +0.000 Cl
ATOM     14 CL   UNL     1     -10.573  19.223 -46.808  0.00  0.00    +0.000 Cl
ATOM     15  C   UNL     1     -13.830  16.659 -48.640  0.00  0.00    +0.000 A 
ATOM     16  C   UNL     1     -14.179  17.781 -47.873  0.00  0.00    +0.000 A 
ATOM     17  C   UNL     1     -12.478  16.338 -48.801  0.00  0.00    +0.000 A 
ATOM     18  C   UNL     1     -13.196  18.586 -47.296  0.00  0.00    +0.000 A 
ATOM     19  C   UNL     1     -11.489  17.138 -48.220  0.00  0.00    +0.000 A 
ATOM     20  C   UNL     1     -11.847  18.264 -47.473  0.00  0.00    +0.000 A 
ENDBRANCH  12  15
ENDBRANCH  11  12
ENDBRANCH   9  11
ENDBRANCH   4  10
BRANCH   6  21
ATOM     21  S   UNL     1     -17.528  15.225 -45.048  0.00  0.00    +0.000 S 
BRANCH  21  22
ATOM     22  C   UNL     1     -15.800  15.667 -44.903  0.00  0.00    +0.000 A 
ATOM     23  C   UNL     1     -13.111  16.425 -44.441  0.00  0.00    +0.000 A 
ATOM     24  C   UNL     1     -14.746  14.960 -45.489  0.00  0.00    +0.000 A 
ATOM     25  C   UNL     1     -15.489  16.785 -44.115  0.00  0.00    +0.000 A 
ATOM     26  C   UNL     1     -13.415  15.333 -45.260  0.00  0.00    +0.000 A 
ATOM     27  C   UNL     1     -14.162  17.161 -43.885  0.00  0.00    +0.000 A 
ATOM     28  C   UNL     1     -11.690  16.786 -44.128  0.00  0.00    +0.000 C 
ENDBRANCH  21  22
ENDBRANCH   6  21
TORSDOF 6
ENDMDL
