REMARK  Name = 3493750
REMARK  7 active torsions:
REMARK  status: ('A' for Active; 'I' for Inactive)
REMARK    1  A    between atoms: S_4  and  C_11
REMARK    2  A    between atoms: S_4  and  C_14
REMARK    3  A    between atoms: O_5  and  N_8
REMARK    4  A    between atoms: O_5  and  C_20
REMARK    5  A    between atoms: C_9  and  C_13
REMARK    6  A    between atoms: C_16  and  C_25
REMARK    7  A    between atoms: C_19  and  C_20
REMARK                            x       y       z     vdW  Elec       q    Type
REMARK                         _______ _______ _______ _____ _____    ______ ____
ROOT
ATOM      1  S   UNL     1      -8.552  -2.477  -4.338  0.00  0.00    +0.000 S 
ATOM      2  N   UNL     1      -6.595  -0.861  -3.940  0.00  0.00    +0.000 N 
ATOM      3  N   UNL     1      -8.363  -0.159  -2.777  0.00  0.00    +0.000 NA
ATOM      4  C   UNL     1      -6.152   0.268  -3.294  0.00  0.00    +0.000 A 
ATOM      5  C   UNL     1      -7.889  -1.069  -3.573  0.00  0.00    +0.000 A 
ATOM      6  C   UNL     1      -7.288   0.695  -2.597  0.00  0.00    +0.000 A 
ATOM      7  C   UNL     1      -6.088  -1.784  -4.831  0.00  0.00    +0.000 A 
ATOM      8  C   UNL     1      -7.001  -2.717  -5.155  0.00  0.00    +0.000 A 
ENDROOT
BRANCH   4  10
ATOM      9  N   UNL     1      -4.081   1.368  -2.537  0.00  0.00    +0.000 NA
ATOM     10  C   UNL     1      -4.830   0.813  -3.445  0.00  0.00    +0.000 C 
BRANCH   9  11
ATOM     11  O   UNL     1      -4.681   1.295  -1.276  0.00  0.00    +0.000 OA
BRANCH  11  12
ATOM     12  C   UNL     1      -3.944   2.046  -0.312  0.00  0.00    +0.000 C 
BRANCH  12  15
ATOM     13 CL   UNL     1      -1.972  -2.453   1.324  0.00  0.00    +0.000 Cl
ATOM     14 CL   UNL     1      -3.146  -1.786   4.286  0.00  0.00    +0.000 Cl
ATOM     15  C   UNL     1      -3.695   1.123   0.855  0.00  0.00    +0.000 A 
ATOM     16  C   UNL     1      -2.997  -0.076   0.644  0.00  0.00    +0.000 A 
ATOM     17  C   UNL     1      -4.185   1.409   2.133  0.00  0.00    +0.000 A 
ATOM     18  C   UNL     1      -2.812  -0.988   1.683  0.00  0.00    +0.000 A 
ATOM     19  C   UNL     1      -3.997   0.502   3.180  0.00  0.00    +0.000 A 
ATOM     20  C   UNL     1      -3.317  -0.698   2.955  0.00  0.00    +0.000 A 
ENDBRANCH  12  15
ENDBRANCH  11  12
ENDBRANCH   9  11
ENDBRANCH   4  10
BRANCH   6  21
ATOM     21  S   UNL     1      -7.518   2.202  -1.732  0.00  0.00    +0.000 S 
BRANCH  21  22
ATOM     22  C   UNL     1      -7.717   1.746  -0.013  0.00  0.00    +0.000 A 
ATOM     23  C   UNL     1      -8.162   1.231   2.735  0.00  0.00    +0.000 A 
ATOM     24  C   UNL     1      -7.939   0.444   0.445  0.00  0.00    +0.000 A 
ATOM     25  C   UNL     1      -7.680   2.782   0.932  0.00  0.00    +0.000 A 
ATOM     26  C   UNL     1      -8.161   0.188   1.804  0.00  0.00    +0.000 A 
ATOM     27  C   UNL     1      -7.900   2.530   2.290  0.00  0.00    +0.000 A 
ATOM     28  C   UNL     1      -8.474   0.978   4.180  0.00  0.00    +0.000 C 
ENDBRANCH  21  22
ENDBRANCH   6  21
TORSDOF 6
