MODEL 1
REMARK VINA RESULT:      -5.2      0.000      0.000
REMARK  Name = 3493750
REMARK  7 active torsions:
REMARK  status: ('A' for Active; 'I' for Inactive)
REMARK    1  A    between atoms: S_4  and  C_11
REMARK    2  A    between atoms: S_4  and  C_14
REMARK    3  A    between atoms: O_5  and  N_8
REMARK    4  A    between atoms: O_5  and  C_20
REMARK    5  A    between atoms: C_9  and  C_13
REMARK    6  A    between atoms: C_16  and  C_25
REMARK    7  A    between atoms: C_19  and  C_20
REMARK                            x       y       z     vdW  Elec       q    Type
REMARK                         _______ _______ _______ _____ _____    ______ ____
ROOT
ATOM      1  S   UNL     1      23.977  -5.068  26.298  0.00  0.00    +0.000 S 
ATOM      2  N   UNL     1      21.714  -4.515  27.382  0.00  0.00    +0.000 N 
ATOM      3  N   UNL     1      22.104  -3.063  25.735  0.00  0.00    +0.000 NA
ATOM      4  C   UNL     1      20.608  -3.700  27.376  0.00  0.00    +0.000 A 
ATOM      5  C   UNL     1      22.538  -4.103  26.380  0.00  0.00    +0.000 A 
ATOM      6  C   UNL     1      20.895  -2.789  26.353  0.00  0.00    +0.000 A 
ATOM      7  C   UNL     1      22.183  -5.584  28.117  0.00  0.00    +0.000 A 
ATOM      8  C   UNL     1      23.382  -6.004  27.677  0.00  0.00    +0.000 A 
ENDROOT
BRANCH   4  10
ATOM      9  N   UNL     1      18.513  -4.647  28.264  0.00  0.00    +0.000 NA
ATOM     10  C   UNL     1      19.517  -3.821  28.306  0.00  0.00    +0.000 C 
BRANCH   9  11
ATOM     11  O   UNL     1      18.647  -5.548  27.203  0.00  0.00    +0.000 OA
BRANCH  11  12
ATOM     12  C   UNL     1      17.564  -5.422  26.282  0.00  0.00    +0.000 C 
BRANCH  12  15
ATOM     13 CL   UNL     1      21.774  -5.721  23.283  0.00  0.00    +0.000 Cl
ATOM     14 CL   UNL     1      19.820  -6.373  20.762  0.00  0.00    +0.000 Cl
ATOM     15  C   UNL     1      18.124  -5.722  24.914  0.00  0.00    +0.000 A 
ATOM     16  C   UNL     1      19.512  -5.657  24.712  0.00  0.00    +0.000 A 
ATOM     17  C   UNL     1      17.292  -6.015  23.829  0.00  0.00    +0.000 A 
ATOM     18  C   UNL     1      20.060  -5.855  23.445  0.00  0.00    +0.000 A 
ATOM     19  C   UNL     1      17.836  -6.222  22.558  0.00  0.00    +0.000 A 
ATOM     20  C   UNL     1      19.218  -6.136  22.364  0.00  0.00    +0.000 A 
ENDBRANCH  12  15
ENDBRANCH  11  12
ENDBRANCH   9  11
ENDBRANCH   4  10
BRANCH   6  21
ATOM     21  S   UNL     1      20.023  -1.328  25.936  0.00  0.00    +0.000 S 
BRANCH  21  22
ATOM     22  C   UNL     1      18.665  -1.856  24.898  0.00  0.00    +0.000 A 
ATOM     23  C   UNL     1      16.379  -2.521  23.365  0.00  0.00    +0.000 A 
ATOM     24  C   UNL     1      18.785  -2.220  23.553  0.00  0.00    +0.000 A 
ATOM     25  C   UNL     1      17.386  -1.870  25.475  0.00  0.00    +0.000 A 
ATOM     26  C   UNL     1      17.654  -2.547  22.793  0.00  0.00    +0.000 A 
ATOM     27  C   UNL     1      16.256  -2.198  24.719  0.00  0.00    +0.000 A 
ATOM     28  C   UNL     1      15.156  -2.795  22.541  0.00  0.00    +0.000 C 
ENDBRANCH  21  22
ENDBRANCH   6  21
TORSDOF 6
ENDMDL
MODEL 2
REMARK VINA RESULT:      -4.9     34.265     36.470
REMARK  Name = 3493750
REMARK  7 active torsions:
REMARK  status: ('A' for Active; 'I' for Inactive)
REMARK    1  A    between atoms: S_4  and  C_11
REMARK    2  A    between atoms: S_4  and  C_14
REMARK    3  A    between atoms: O_5  and  N_8
REMARK    4  A    between atoms: O_5  and  C_20
REMARK    5  A    between atoms: C_9  and  C_13
REMARK    6  A    between atoms: C_16  and  C_25
REMARK    7  A    between atoms: C_19  and  C_20
REMARK                            x       y       z     vdW  Elec       q    Type
REMARK                         _______ _______ _______ _____ _____    ______ ____
ROOT
ATOM      1  S   UNL     1     -17.898   8.127  24.037  0.00  0.00    +0.000 S 
ATOM      2  N   UNL     1     -17.192   5.663  23.866  0.00  0.00    +0.000 N 
ATOM      3  N   UNL     1     -15.468   6.953  23.288  0.00  0.00    +0.000 NA
ATOM      4  C   UNL     1     -16.183   4.775  23.580  0.00  0.00    +0.000 A 
ATOM      5  C   UNL     1     -16.699   6.921  23.701  0.00  0.00    +0.000 A 
ATOM      6  C   UNL     1     -15.129   5.614  23.198  0.00  0.00    +0.000 A 
ATOM      7  C   UNL     1     -18.516   5.604  24.249  0.00  0.00    +0.000 A 
ATOM      8  C   UNL     1     -19.051   6.830  24.383  0.00  0.00    +0.000 A 
ENDROOT
BRANCH   4  10
ATOM      9  N   UNL     1     -16.073   2.546  24.623  0.00  0.00    +0.000 NA
ATOM     10  C   UNL     1     -16.332   3.346  23.630  0.00  0.00    +0.000 C 
BRANCH   9  11
ATOM     11  O   UNL     1     -15.699   3.264  25.764  0.00  0.00    +0.000 OA
BRANCH  11  12
ATOM     12  C   UNL     1     -16.777   3.344  26.696  0.00  0.00    +0.000 C 
BRANCH  12  15
ATOM     13 CL   UNL     1     -13.490   3.100  30.689  0.00  0.00    +0.000 Cl
ATOM     14 CL   UNL     1     -14.828   0.244  31.498  0.00  0.00    +0.000 Cl
ATOM     15  C   UNL     1     -16.337   2.595  27.929  0.00  0.00    +0.000 A 
ATOM     16  C   UNL     1     -15.288   3.109  28.707  0.00  0.00    +0.000 A 
ATOM     17  C   UNL     1     -16.916   1.374  28.290  0.00  0.00    +0.000 A 
ATOM     18  C   UNL     1     -14.806   2.408  29.811  0.00  0.00    +0.000 A 
ATOM     19  C   UNL     1     -16.441   0.669  29.400  0.00  0.00    +0.000 A 
ATOM     20  C   UNL     1     -15.383   1.181  30.157  0.00  0.00    +0.000 A 
ENDBRANCH  12  15
ENDBRANCH  11  12
ENDBRANCH   9  11
ENDBRANCH   4  10
BRANCH   6  21
ATOM     21  S   UNL     1     -13.593   5.158  22.486  0.00  0.00    +0.000 S 
BRANCH  21  22
ATOM     22  C   UNL     1     -13.273   6.372  21.211  0.00  0.00    +0.000 A 
ATOM     23  C   UNL     1     -12.562   8.167  19.140  0.00  0.00    +0.000 A 
ATOM     24  C   UNL     1     -14.250   6.938  20.387  0.00  0.00    +0.000 A 
ATOM     25  C   UNL     1     -11.938   6.750  21.009  0.00  0.00    +0.000 A 
ATOM     26  C   UNL     1     -13.900   7.825  19.361  0.00  0.00    +0.000 A 
ATOM     27  C   UNL     1     -11.584   7.637  19.987  0.00  0.00    +0.000 A 
ATOM     28  C   UNL     1     -12.169   9.055  17.998  0.00  0.00    +0.000 C 
ENDBRANCH  21  22
ENDBRANCH   6  21
TORSDOF 6
ENDMDL
MODEL 3
REMARK VINA RESULT:      -4.7     24.681     27.002
REMARK  Name = 3493750
REMARK  7 active torsions:
REMARK  status: ('A' for Active; 'I' for Inactive)
REMARK    1  A    between atoms: S_4  and  C_11
REMARK    2  A    between atoms: S_4  and  C_14
REMARK    3  A    between atoms: O_5  and  N_8
REMARK    4  A    between atoms: O_5  and  C_20
REMARK    5  A    between atoms: C_9  and  C_13
REMARK    6  A    between atoms: C_16  and  C_25
REMARK    7  A    between atoms: C_19  and  C_20
REMARK                            x       y       z     vdW  Elec       q    Type
REMARK                         _______ _______ _______ _____ _____    ______ ____
ROOT
ATOM      1  S   UNL     1       5.216  19.647  17.371  0.00  0.00    +0.000 S 
ATOM      2  N   UNL     1       5.821  17.291  18.199  0.00  0.00    +0.000 N 
ATOM      3  N   UNL     1       3.660  17.334  17.649  0.00  0.00    +0.000 NA
ATOM      4  C   UNL     1       5.381  16.012  18.442  0.00  0.00    +0.000 A 
ATOM      5  C   UNL     1       4.770  18.006  17.711  0.00  0.00    +0.000 A 
ATOM      6  C   UNL     1       4.023  16.081  18.112  0.00  0.00    +0.000 A 
ATOM      7  C   UNL     1       6.996  18.000  18.328  0.00  0.00    +0.000 A 
ATOM      8  C   UNL     1       6.853  19.279  17.935  0.00  0.00    +0.000 A 
ENDROOT
BRANCH   4  10
ATOM      9  N   UNL     1       6.503  14.732  20.224  0.00  0.00    +0.000 NA
ATOM     10  C   UNL     1       6.209  14.966  18.978  0.00  0.00    +0.000 C 
BRANCH   9  11
ATOM     11  O   UNL     1       5.807  15.596  21.075  0.00  0.00    +0.000 OA
BRANCH  11  12
ATOM     12  C   UNL     1       6.257  15.462  22.423  0.00  0.00    +0.000 C 
BRANCH  12  15
ATOM     13 CL   UNL     1       5.361  19.499  25.538  0.00  0.00    +0.000 Cl
ATOM     14 CL   UNL     1       2.381  18.305  26.077  0.00  0.00    +0.000 Cl
ATOM     15  C   UNL     1       5.263  16.199  23.285  0.00  0.00    +0.000 A 
ATOM     16  C   UNL     1       5.652  17.391  23.916  0.00  0.00    +0.000 A 
ATOM     17  C   UNL     1       3.976  15.699  23.511  0.00  0.00    +0.000 A 
ATOM     18  C   UNL     1       4.784  18.060  24.779  0.00  0.00    +0.000 A 
ATOM     19  C   UNL     1       3.100  16.369  24.369  0.00  0.00    +0.000 A 
ATOM     20  C   UNL     1       3.504  17.545  25.007  0.00  0.00    +0.000 A 
ENDBRANCH  12  15
ENDBRANCH  11  12
ENDBRANCH   9  11
ENDBRANCH   4  10
BRANCH   6  21
ATOM     21  S   UNL     1       2.784  14.871  18.388  0.00  0.00    +0.000 S 
BRANCH  21  22
ATOM     22  C   UNL     1       1.816  15.478  19.766  0.00  0.00    +0.000 A 
ATOM     23  C   UNL     1       0.305  16.214  22.043  0.00  0.00    +0.000 A 
ATOM     24  C   UNL     1       1.947  16.749  20.332  0.00  0.00    +0.000 A 
ATOM     25  C   UNL     1       0.886  14.594  20.332  0.00  0.00    +0.000 A 
ATOM     26  C   UNL     1       1.201  17.114  21.460  0.00  0.00    +0.000 A 
ATOM     27  C   UNL     1       0.139  14.955  21.458  0.00  0.00    +0.000 A 
ATOM     28  C   UNL     1      -0.442  16.567  23.295  0.00  0.00    +0.000 C 
ENDBRANCH  21  22
ENDBRANCH   6  21
TORSDOF 6
ENDMDL
MODEL 4
REMARK VINA RESULT:      -4.4     16.481     18.877
REMARK  Name = 3493750
REMARK  7 active torsions:
REMARK  status: ('A' for Active; 'I' for Inactive)
REMARK    1  A    between atoms: S_4  and  C_11
REMARK    2  A    between atoms: S_4  and  C_14
REMARK    3  A    between atoms: O_5  and  N_8
REMARK    4  A    between atoms: O_5  and  C_20
REMARK    5  A    between atoms: C_9  and  C_13
REMARK    6  A    between atoms: C_16  and  C_25
REMARK    7  A    between atoms: C_19  and  C_20
REMARK                            x       y       z     vdW  Elec       q    Type
REMARK                         _______ _______ _______ _____ _____    ______ ____
ROOT
ATOM      1  S   UNL     1      14.002  14.262  20.367  0.00  0.00    +0.000 S 
ATOM      2  N   UNL     1      13.790  12.969  22.577  0.00  0.00    +0.000 N 
ATOM      3  N   UNL     1      13.324  11.594  20.885  0.00  0.00    +0.000 NA
ATOM      4  C   UNL     1      13.522  11.764  23.181  0.00  0.00    +0.000 A 
ATOM      5  C   UNL     1      13.683  12.793  21.232  0.00  0.00    +0.000 A 
ATOM      6  C   UNL     1      13.210  10.935  22.098  0.00  0.00    +0.000 A 
ATOM      7  C   UNL     1      14.114  14.251  22.972  0.00  0.00    +0.000 A 
ATOM      8  C   UNL     1      14.260  15.074  21.918  0.00  0.00    +0.000 A 
ENDROOT
BRANCH   4  10
ATOM      9  N   UNL     1      12.527  11.668  25.433  0.00  0.00    +0.000 NA
ATOM     10  C   UNL     1      13.524  11.561  24.604  0.00  0.00    +0.000 C 
BRANCH   9  11
ATOM     11  O   UNL     1      11.332  11.922  24.753  0.00  0.00    +0.000 OA
BRANCH  11  12
ATOM     12  C   UNL     1      10.655  13.049  25.307  0.00  0.00    +0.000 C 
BRANCH  12  15
ATOM     13 CL   UNL     1       8.872  17.666  23.786  0.00  0.00    +0.000 Cl
ATOM     14 CL   UNL     1       8.994  16.598  20.713  0.00  0.00    +0.000 Cl
ATOM     15  C   UNL     1      10.301  13.951  24.151  0.00  0.00    +0.000 A 
ATOM     16  C   UNL     1       9.851  15.254  24.410  0.00  0.00    +0.000 A 
ATOM     17  C   UNL     1      10.363  13.503  22.827  0.00  0.00    +0.000 A 
ATOM     18  C   UNL     1       9.444  16.091  23.370  0.00  0.00    +0.000 A 
ATOM     19  C   UNL     1       9.963  14.339  21.780  0.00  0.00    +0.000 A 
ATOM     20  C   UNL     1       9.499  15.629  22.051  0.00  0.00    +0.000 A 
ENDBRANCH  12  15
ENDBRANCH  11  12
ENDBRANCH   9  11
ENDBRANCH   4  10
BRANCH   6  21
ATOM     21  S   UNL     1      12.552   9.311  22.139  0.00  0.00    +0.000 S 
BRANCH  21  22
ATOM     22  C   UNL     1      13.788   8.270  21.371  0.00  0.00    +0.000 A 
ATOM     23  C   UNL     1      15.708   6.750  19.950  0.00  0.00    +0.000 A 
ATOM     24  C   UNL     1      14.963   7.838  21.993  0.00  0.00    +0.000 A 
ATOM     25  C   UNL     1      13.569   7.894  20.038  0.00  0.00    +0.000 A 
ATOM     26  C   UNL     1      15.915   7.088  21.291  0.00  0.00    +0.000 A 
ATOM     27  C   UNL     1      14.517   7.143  19.333  0.00  0.00    +0.000 A 
ATOM     28  C   UNL     1      16.754   6.013  19.167  0.00  0.00    +0.000 C 
ENDBRANCH  21  22
ENDBRANCH   6  21
TORSDOF 6
ENDMDL
MODEL 5
REMARK VINA RESULT:      -4.4     25.724     28.581
REMARK  Name = 3493750
REMARK  7 active torsions:
REMARK  status: ('A' for Active; 'I' for Inactive)
REMARK    1  A    between atoms: S_4  and  C_11
REMARK    2  A    between atoms: S_4  and  C_14
REMARK    3  A    between atoms: O_5  and  N_8
REMARK    4  A    between atoms: O_5  and  C_20
REMARK    5  A    between atoms: C_9  and  C_13
REMARK    6  A    between atoms: C_16  and  C_25
REMARK    7  A    between atoms: C_19  and  C_20
REMARK                            x       y       z     vdW  Elec       q    Type
REMARK                         _______ _______ _______ _____ _____    ______ ____
ROOT
ATOM      1  S   UNL     1       1.534  21.619  21.212  0.00  0.00    +0.000 S 
ATOM      2  N   UNL     1       0.195  20.094  22.788  0.00  0.00    +0.000 N 
ATOM      3  N   UNL     1       2.302  20.211  23.509  0.00  0.00    +0.000 NA
ATOM      4  C   UNL     1       0.213  19.312  23.918  0.00  0.00    +0.000 A 
ATOM      5  C   UNL     1       1.443  20.611  22.620  0.00  0.00    +0.000 A 
ATOM      6  C   UNL     1       1.549  19.387  24.328  0.00  0.00    +0.000 A 
ATOM      7  C   UNL     1      -0.720  20.460  21.822  0.00  0.00    +0.000 A 
ATOM      8  C   UNL     1      -0.172  21.270  20.899  0.00  0.00    +0.000 A 
ENDROOT
BRANCH   4  10
ATOM      9  N   UNL     1      -1.209  17.326  24.245  0.00  0.00    +0.000 NA
ATOM     10  C   UNL     1      -0.926  18.586  24.409  0.00  0.00    +0.000 C 
BRANCH   9  11
ATOM     11  O   UNL     1      -0.175  16.662  23.577  0.00  0.00    +0.000 OA
BRANCH  11  12
ATOM     12  C   UNL     1      -0.650  16.040  22.384  0.00  0.00    +0.000 C 
BRANCH  12  15
ATOM     13 CL   UNL     1       3.776  18.174  20.752  0.00  0.00    +0.000 Cl
ATOM     14 CL   UNL     1       3.952  15.850  18.480  0.00  0.00    +0.000 Cl
ATOM     15  C   UNL     1       0.528  15.950  21.446  0.00  0.00    +0.000 A 
ATOM     16  C   UNL     1       1.535  16.925  21.515  0.00  0.00    +0.000 A 
ATOM     17  C   UNL     1       0.617  14.947  20.476  0.00  0.00    +0.000 A 
ATOM     18  C   UNL     1       2.601  16.916  20.616  0.00  0.00    +0.000 A 
ATOM     19  C   UNL     1       1.686  14.929  19.576  0.00  0.00    +0.000 A 
ATOM     20  C   UNL     1       2.674  15.915  19.641  0.00  0.00    +0.000 A 
ENDBRANCH  12  15
ENDBRANCH  11  12
ENDBRANCH   9  11
ENDBRANCH   4  10
BRANCH   6  21
ATOM     21  S   UNL     1       2.345  18.453  25.579  0.00  0.00    +0.000 S 
BRANCH  21  22
ATOM     22  C   UNL     1       3.659  17.562  24.754  0.00  0.00    +0.000 A 
ATOM     23  C   UNL     1       5.568  16.067  23.293  0.00  0.00    +0.000 A 
ATOM     24  C   UNL     1       4.944  18.065  24.530  0.00  0.00    +0.000 A 
ATOM     25  C   UNL     1       3.357  16.280  24.271  0.00  0.00    +0.000 A 
ATOM     26  C   UNL     1       5.889  17.327  23.806  0.00  0.00    +0.000 A 
ATOM     27  C   UNL     1       4.299  15.540  23.548  0.00  0.00    +0.000 A 
ATOM     28  C   UNL     1       6.546  15.302  22.452  0.00  0.00    +0.000 C 
ENDBRANCH  21  22
ENDBRANCH   6  21
TORSDOF 6
ENDMDL
MODEL 6
REMARK VINA RESULT:      -4.3     24.985     26.773
REMARK  Name = 3493750
REMARK  7 active torsions:
REMARK  status: ('A' for Active; 'I' for Inactive)
REMARK    1  A    between atoms: S_4  and  C_11
REMARK    2  A    between atoms: S_4  and  C_14
REMARK    3  A    between atoms: O_5  and  N_8
REMARK    4  A    between atoms: O_5  and  C_20
REMARK    5  A    between atoms: C_9  and  C_13
REMARK    6  A    between atoms: C_16  and  C_25
REMARK    7  A    between atoms: C_19  and  C_20
REMARK                            x       y       z     vdW  Elec       q    Type
REMARK                         _______ _______ _______ _____ _____    ______ ____
ROOT
ATOM      1  S   UNL     1       7.499  19.845  17.426  0.00  0.00    +0.000 S 
ATOM      2  N   UNL     1       6.885  17.451  18.129  0.00  0.00    +0.000 N 
ATOM      3  N   UNL     1       7.720  18.533  19.891  0.00  0.00    +0.000 NA
ATOM      4  C   UNL     1       6.835  16.532  19.150  0.00  0.00    +0.000 A 
ATOM      5  C   UNL     1       7.389  18.609  18.638  0.00  0.00    +0.000 A 
ATOM      6  C   UNL     1       7.387  17.232  20.228  0.00  0.00    +0.000 A 
ATOM      7  C   UNL     1       6.580  17.491  16.785  0.00  0.00    +0.000 A 
ATOM      8  C   UNL     1       6.850  18.695  16.248  0.00  0.00    +0.000 A 
ENDROOT
BRANCH   4  10
ATOM      9  N   UNL     1       5.156  14.729  19.120  0.00  0.00    +0.000 NA
ATOM     10  C   UNL     1       6.369  15.181  18.991  0.00  0.00    +0.000 C 
BRANCH   9  11
ATOM     11  O   UNL     1       4.252  15.771  19.349  0.00  0.00    +0.000 OA
BRANCH  11  12
ATOM     12  C   UNL     1       2.951  15.438  18.867  0.00  0.00    +0.000 C 
BRANCH  12  15
ATOM     13 CL   UNL     1       1.197  18.851  22.343  0.00  0.00    +0.000 Cl
ATOM     14 CL   UNL     1      -0.710  16.505  23.550  0.00  0.00    +0.000 Cl
ATOM     15  C   UNL     1       1.989  15.714  19.996  0.00  0.00    +0.000 A 
ATOM     16  C   UNL     1       1.962  16.991  20.578  0.00  0.00    +0.000 A 
ATOM     17  C   UNL     1       1.157  14.715  20.511  0.00  0.00    +0.000 A 
ATOM     18  C   UNL     1       1.139  17.262  21.671  0.00  0.00    +0.000 A 
ATOM     19  C   UNL     1       0.326  14.982  21.603  0.00  0.00    +0.000 A 
ATOM     20  C   UNL     1       0.320  16.252  22.186  0.00  0.00    +0.000 A 
ENDBRANCH  12  15
ENDBRANCH  11  12
ENDBRANCH   9  11
ENDBRANCH   4  10
BRANCH   6  21
ATOM     21  S   UNL     1       7.839  16.605  21.801  0.00  0.00    +0.000 S 
BRANCH  21  22
ATOM     22  C   UNL     1       6.338  16.617  22.775  0.00  0.00    +0.000 A 
ATOM     23  C   UNL     1       3.961  16.880  24.291  0.00  0.00    +0.000 A 
ATOM     24  C   UNL     1       5.313  15.672  22.671  0.00  0.00    +0.000 A 
ATOM     25  C   UNL     1       6.171  17.675  23.682  0.00  0.00    +0.000 A 
ATOM     26  C   UNL     1       4.136  15.802  23.418  0.00  0.00    +0.000 A 
ATOM     27  C   UNL     1       4.998  17.807  24.431  0.00  0.00    +0.000 A 
ATOM     28  C   UNL     1       2.675  17.070  25.038  0.00  0.00    +0.000 C 
ENDBRANCH  21  22
ENDBRANCH   6  21
TORSDOF 6
ENDMDL
MODEL 7
REMARK VINA RESULT:      -4.2     23.532     25.712
REMARK  Name = 3493750
REMARK  7 active torsions:
REMARK  status: ('A' for Active; 'I' for Inactive)
REMARK    1  A    between atoms: S_4  and  C_11
REMARK    2  A    between atoms: S_4  and  C_14
REMARK    3  A    between atoms: O_5  and  N_8
REMARK    4  A    between atoms: O_5  and  C_20
REMARK    5  A    between atoms: C_9  and  C_13
REMARK    6  A    between atoms: C_16  and  C_25
REMARK    7  A    between atoms: C_19  and  C_20
REMARK                            x       y       z     vdW  Elec       q    Type
REMARK                         _______ _______ _______ _____ _____    ______ ____
ROOT
ATOM      1  S   UNL     1      14.697   3.685   1.410  0.00  0.00    +0.000 S 
ATOM      2  N   UNL     1      13.021   5.578   0.959  0.00  0.00    +0.000 N 
ATOM      3  N   UNL     1      14.596   6.320   2.352  0.00  0.00    +0.000 NA
ATOM      4  C   UNL     1      12.675   6.886   1.201  0.00  0.00    +0.000 A 
ATOM      5  C   UNL     1      14.169   5.320   1.643  0.00  0.00    +0.000 A 
ATOM      6  C   UNL     1      13.665   7.312   2.094  0.00  0.00    +0.000 A 
ATOM      7  C   UNL     1      12.517   4.512   0.244  0.00  0.00    +0.000 A 
ATOM      8  C   UNL     1      13.287   3.416   0.376  0.00  0.00    +0.000 A 
ENDROOT
BRANCH   4  10
ATOM      9  N   UNL     1      10.286   7.487   1.114  0.00  0.00    +0.000 NA
ATOM     10  C   UNL     1      11.504   7.520   0.657  0.00  0.00    +0.000 C 
BRANCH   9  11
ATOM     11  O   UNL     1      10.225   6.806   2.334  0.00  0.00    +0.000 OA
BRANCH  11  12
ATOM     12  C   UNL     1       9.148   7.287   3.137  0.00  0.00    +0.000 C 
BRANCH  12  15
ATOM     13 CL   UNL     1       8.795   7.600   8.293  0.00  0.00    +0.000 Cl
ATOM     14 CL   UNL     1       9.743   4.490   8.455  0.00  0.00    +0.000 Cl
ATOM     15  C   UNL     1       9.239   6.564   4.458  0.00  0.00    +0.000 A 
ATOM     16  C   UNL     1       8.969   7.266   5.643  0.00  0.00    +0.000 A 
ATOM     17  C   UNL     1       9.633   5.225   4.535  0.00  0.00    +0.000 A 
ATOM     18  C   UNL     1       9.114   6.651   6.887  0.00  0.00    +0.000 A 
ATOM     19  C   UNL     1       9.774   4.601   5.778  0.00  0.00    +0.000 A 
ATOM     20  C   UNL     1       9.521   5.314   6.953  0.00  0.00    +0.000 A 
ENDBRANCH  12  15
ENDBRANCH  11  12
ENDBRANCH   9  11
ENDBRANCH   4  10
BRANCH   6  21
ATOM     21  S   UNL     1      13.727   8.812   2.998  0.00  0.00    +0.000 S 
BRANCH  21  22
ATOM     22  C   UNL     1      15.192   8.699   4.019  0.00  0.00    +0.000 A 
ATOM     23  C   UNL     1      17.584   8.732   5.534  0.00  0.00    +0.000 A 
ATOM     24  C   UNL     1      15.207   8.253   5.344  0.00  0.00    +0.000 A 
ATOM     25  C   UNL     1      16.402   9.123   3.451  0.00  0.00    +0.000 A 
ATOM     26  C   UNL     1      16.389   8.271   6.095  0.00  0.00    +0.000 A 
ATOM     27  C   UNL     1      17.585   9.141   4.197  0.00  0.00    +0.000 A 
ATOM     28  C   UNL     1      18.837   8.827   6.352  0.00  0.00    +0.000 C 
ENDBRANCH  21  22
ENDBRANCH   6  21
TORSDOF 6
ENDMDL
MODEL 8
REMARK VINA RESULT:      -4.2     29.101     31.650
REMARK  Name = 3493750
REMARK  7 active torsions:
REMARK  status: ('A' for Active; 'I' for Inactive)
REMARK    1  A    between atoms: S_4  and  C_11
REMARK    2  A    between atoms: S_4  and  C_14
REMARK    3  A    between atoms: O_5  and  N_8
REMARK    4  A    between atoms: O_5  and  C_20
REMARK    5  A    between atoms: C_9  and  C_13
REMARK    6  A    between atoms: C_16  and  C_25
REMARK    7  A    between atoms: C_19  and  C_20
REMARK                            x       y       z     vdW  Elec       q    Type
REMARK                         _______ _______ _______ _____ _____    ______ ____
ROOT
ATOM      1  S   UNL     1       6.301 -20.730   0.659  0.00  0.00    +0.000 S 
ATOM      2  N   UNL     1       5.881 -18.229   1.069  0.00  0.00    +0.000 N 
ATOM      3  N   UNL     1       4.508 -19.417   2.363  0.00  0.00    +0.000 NA
ATOM      4  C   UNL     1       5.169 -17.285   1.768  0.00  0.00    +0.000 A 
ATOM      5  C   UNL     1       5.463 -19.456   1.484  0.00  0.00    +0.000 A 
ATOM      6  C   UNL     1       4.303 -18.060   2.548  0.00  0.00    +0.000 A 
ATOM      7  C   UNL     1       6.855 -18.247   0.092  0.00  0.00    +0.000 A 
ATOM      8  C   UNL     1       7.195 -19.503  -0.249  0.00  0.00    +0.000 A 
ENDROOT
BRANCH   4  10
ATOM      9  N   UNL     1       4.779 -15.105   0.685  0.00  0.00    +0.000 NA
ATOM     10  C   UNL     1       5.325 -15.866   1.589  0.00  0.00    +0.000 C 
BRANCH   9  11
ATOM     11  O   UNL     1       3.876 -15.827  -0.102  0.00  0.00    +0.000 OA
BRANCH  11  12
ATOM     12  C   UNL     1       2.690 -15.071  -0.346  0.00  0.00    +0.000 C 
BRANCH  12  15
ATOM     13 CL   UNL     1       1.374 -11.689  -4.039  0.00  0.00    +0.000 Cl
ATOM     14 CL   UNL     1       2.420 -13.836  -6.251  0.00  0.00    +0.000 Cl
ATOM     15  C   UNL     1       2.683 -14.744  -1.819  0.00  0.00    +0.000 A 
ATOM     16  C   UNL     1       2.157 -13.515  -2.246  0.00  0.00    +0.000 A 
ATOM     17  C   UNL     1       3.143 -15.656  -2.774  0.00  0.00    +0.000 A 
ATOM     18  C   UNL     1       2.067 -13.209  -3.604  0.00  0.00    +0.000 A 
ATOM     19  C   UNL     1       3.061 -15.353  -4.136  0.00  0.00    +0.000 A 
ATOM     20  C   UNL     1       2.518 -14.134  -4.552  0.00  0.00    +0.000 A 
ENDBRANCH  12  15
ENDBRANCH  11  12
ENDBRANCH   9  11
ENDBRANCH   4  10
BRANCH   6  21
ATOM     21  S   UNL     1       2.953 -17.515   3.524  0.00  0.00    +0.000 S 
BRANCH  21  22
ATOM     22  C   UNL     1       3.488 -17.685   5.224  0.00  0.00    +0.000 A 
ATOM     23  C   UNL     1       4.139 -18.100   7.947  0.00  0.00    +0.000 A 
ATOM     24  C   UNL     1       4.819 -17.805   5.632  0.00  0.00    +0.000 A 
ATOM     25  C   UNL     1       2.488 -17.735   6.206  0.00  0.00    +0.000 A 
ATOM     26  C   UNL     1       5.143 -18.012   6.978  0.00  0.00    +0.000 A 
ATOM     27  C   UNL     1       2.807 -17.941   7.553  0.00  0.00    +0.000 A 
ATOM     28  C   UNL     1       4.470 -18.398   9.379  0.00  0.00    +0.000 C 
ENDBRANCH  21  22
ENDBRANCH   6  21
TORSDOF 6
ENDMDL
MODEL 9
REMARK VINA RESULT:      -4.2     34.655     36.958
REMARK  Name = 3493750
REMARK  7 active torsions:
REMARK  status: ('A' for Active; 'I' for Inactive)
REMARK    1  A    between atoms: S_4  and  C_11
REMARK    2  A    between atoms: S_4  and  C_14
REMARK    3  A    between atoms: O_5  and  N_8
REMARK    4  A    between atoms: O_5  and  C_20
REMARK    5  A    between atoms: C_9  and  C_13
REMARK    6  A    between atoms: C_16  and  C_25
REMARK    7  A    between atoms: C_19  and  C_20
REMARK                            x       y       z     vdW  Elec       q    Type
REMARK                         _______ _______ _______ _____ _____    ______ ____
ROOT
ATOM      1  S   UNL     1     -18.432   8.126  33.382  0.00  0.00    +0.000 S 
ATOM      2  N   UNL     1     -15.881   7.887  33.196  0.00  0.00    +0.000 N 
ATOM      3  N   UNL     1     -16.729   5.995  34.016  0.00  0.00    +0.000 NA
ATOM      4  C   UNL     1     -14.789   7.073  33.374  0.00  0.00    +0.000 A 
ATOM      5  C   UNL     1     -16.987   7.185  33.566  0.00  0.00    +0.000 A 
ATOM      6  C   UNL     1     -15.351   5.909  33.911  0.00  0.00    +0.000 A 
ATOM      7  C   UNL     1     -16.127   9.175  32.768  0.00  0.00    +0.000 A 
ATOM      8  C   UNL     1     -17.438   9.472  32.807  0.00  0.00    +0.000 A 
ENDROOT
BRANCH   4  10
ATOM      9  N   UNL     1     -12.608   8.099  33.889  0.00  0.00    +0.000 NA
ATOM     10  C   UNL     1     -13.435   7.475  33.102  0.00  0.00    +0.000 C 
BRANCH   9  11
ATOM     11  O   UNL     1     -13.160   8.274  35.162  0.00  0.00    +0.000 OA
BRANCH  11  12
ATOM     12  C   UNL     1     -12.605   7.347  36.094  0.00  0.00    +0.000 C 
BRANCH  12  15
ATOM     13 CL   UNL     1     -12.316  11.603  39.029  0.00  0.00    +0.000 Cl
ATOM     14 CL   UNL     1      -9.282  10.736  39.827  0.00  0.00    +0.000 Cl
ATOM     15  C   UNL     1     -11.792   8.156  37.074  0.00  0.00    +0.000 A 
ATOM     16  C   UNL     1     -12.333   9.338  37.603  0.00  0.00    +0.000 A 
ATOM     17  C   UNL     1     -10.493   7.783  37.432  0.00  0.00    +0.000 A 
ATOM     18  C   UNL     1     -11.583  10.150  38.454  0.00  0.00    +0.000 A 
ATOM     19  C   UNL     1      -9.738   8.589  38.290  0.00  0.00    +0.000 A 
ATOM     20  C   UNL     1     -10.279   9.774  38.796  0.00  0.00    +0.000 A 
ENDBRANCH  12  15
ENDBRANCH  11  12
ENDBRANCH   9  11
ENDBRANCH   4  10
BRANCH   6  21
ATOM     21  S   UNL     1     -14.517   4.525  34.591  0.00  0.00    +0.000 S 
BRANCH  21  22
ATOM     22  C   UNL     1     -14.412   3.327  33.266  0.00  0.00    +0.000 A 
ATOM     23  C   UNL     1     -14.013   1.504  31.137  0.00  0.00    +0.000 A 
ATOM     24  C   UNL     1     -14.985   2.052  33.297  0.00  0.00    +0.000 A 
ATOM     25  C   UNL     1     -13.669   3.690  32.132  0.00  0.00    +0.000 A 
ATOM     26  C   UNL     1     -14.787   1.149  32.245  0.00  0.00    +0.000 A 
ATOM     27  C   UNL     1     -13.470   2.791  31.080  0.00  0.00    +0.000 A 
ATOM     28  C   UNL     1     -13.731   0.518  30.042  0.00  0.00    +0.000 C 
ENDBRANCH  21  22
ENDBRANCH   6  21
TORSDOF 6
ENDMDL
MODEL 10
REMARK VINA RESULT:      -4.2     25.865     27.910
REMARK  Name = 3493750
REMARK  7 active torsions:
REMARK  status: ('A' for Active; 'I' for Inactive)
REMARK    1  A    between atoms: S_4  and  C_11
REMARK    2  A    between atoms: S_4  and  C_14
REMARK    3  A    between atoms: O_5  and  N_8
REMARK    4  A    between atoms: O_5  and  C_20
REMARK    5  A    between atoms: C_9  and  C_13
REMARK    6  A    between atoms: C_16  and  C_25
REMARK    7  A    between atoms: C_19  and  C_20
REMARK                            x       y       z     vdW  Elec       q    Type
REMARK                         _______ _______ _______ _____ _____    ______ ____
ROOT
ATOM      1  S   UNL     1       4.223  20.396  23.005  0.00  0.00    +0.000 S 
ATOM      2  N   UNL     1       3.981  17.869  23.404  0.00  0.00    +0.000 N 
ATOM      3  N   UNL     1       5.165  18.200  21.544  0.00  0.00    +0.000 NA
ATOM      4  C   UNL     1       4.285  16.604  22.964  0.00  0.00    +0.000 A 
ATOM      5  C   UNL     1       4.549  18.757  22.542  0.00  0.00    +0.000 A 
ATOM      6  C   UNL     1       5.003  16.846  21.787  0.00  0.00    +0.000 A 
ATOM      7  C   UNL     1       3.272  18.439  24.441  0.00  0.00    +0.000 A 
ATOM      8  C   UNL     1       3.293  19.782  24.380  0.00  0.00    +0.000 A 
ENDROOT
BRANCH   4  10
ATOM      9  N   UNL     1       2.651  14.881  23.622  0.00  0.00    +0.000 NA
ATOM     10  C   UNL     1       3.845  15.400  23.614  0.00  0.00    +0.000 C 
BRANCH   9  11
ATOM     11  O   UNL     1       1.784  15.601  22.794  0.00  0.00    +0.000 OA
BRANCH  11  12
ATOM     12  C   UNL     1       0.687  14.792  22.371  0.00  0.00    +0.000 C 
BRANCH  12  15
ATOM     13 CL   UNL     1      -2.712  15.604  18.551  0.00  0.00    +0.000 Cl
ATOM     14 CL   UNL     1      -3.190  18.598  19.737  0.00  0.00    +0.000 Cl
ATOM     15  C   UNL     1      -0.325  15.725  21.755  0.00  0.00    +0.000 A 
ATOM     16  C   UNL     1      -1.028  15.316  20.611  0.00  0.00    +0.000 A 
ATOM     17  C   UNL     1      -0.545  17.008  22.266  0.00  0.00    +0.000 A 
ATOM     18  C   UNL     1      -1.917  16.180  19.972  0.00  0.00    +0.000 A 
ATOM     19  C   UNL     1      -1.440  17.876  21.633  0.00  0.00    +0.000 A 
ATOM     20  C   UNL     1      -2.121  17.466  20.484  0.00  0.00    +0.000 A 
ENDBRANCH  12  15
ENDBRANCH  11  12
ENDBRANCH   9  11
ENDBRANCH   4  10
BRANCH   6  21
ATOM     21  S   UNL     1       5.517  15.685  20.579  0.00  0.00    +0.000 S 
BRANCH  21  22
ATOM     22  C   UNL     1       4.269  15.738  19.297  0.00  0.00    +0.000 A 
ATOM     23  C   UNL     1       2.422  15.647  17.154  0.00  0.00    +0.000 A 
ATOM     24  C   UNL     1       2.898  15.885  19.527  0.00  0.00    +0.000 A 
ATOM     25  C   UNL     1       4.705  15.586  17.973  0.00  0.00    +0.000 A 
ATOM     26  C   UNL     1       1.983  15.839  18.467  0.00  0.00    +0.000 A 
ATOM     27  C   UNL     1       3.795  15.540  16.913  0.00  0.00    +0.000 A 
ATOM     28  C   UNL     1       1.446  15.520  16.022  0.00  0.00    +0.000 C 
ENDBRANCH  21  22
ENDBRANCH   6  21
TORSDOF 6
ENDMDL
