MODEL 1
REMARK VINA RESULT:      -6.0      0.000      0.000
REMARK  Name = 3625620
REMARK  5 active torsions:
REMARK  status: ('A' for Active; 'I' for Inactive)
REMARK    1  A    between atoms: O_5  and  N_8
REMARK    2  A    between atoms: O_5  and  C_21
REMARK    3  A    between atoms: C_9  and  C_14
REMARK    4  A    between atoms: C_10  and  C_12
REMARK    5  A    between atoms: C_20  and  C_21
REMARK                            x       y       z     vdW  Elec       q    Type
REMARK                         _______ _______ _______ _____ _____    ______ ____
ROOT
ATOM      1  S   UNL     1      11.285  14.793  21.987  0.00  0.00    +0.000 S 
ATOM      2  N   UNL     1      12.885  12.939  22.771  0.00  0.00    +0.000 N 
ATOM      3  N   UNL     1      11.148  12.010  21.726  0.00  0.00    +0.000 NA
ATOM      4  C   UNL     1      13.162  11.590  22.786  0.00  0.00    +0.000 A 
ATOM      5  C   UNL     1      12.026  11.033  22.181  0.00  0.00    +0.000 A 
ATOM      6  C   UNL     1      11.709  13.116  22.107  0.00  0.00    +0.000 A 
ATOM      7  C   UNL     1      13.476  14.105  23.216  0.00  0.00    +0.000 A 
ATOM      8  C   UNL     1      12.752  15.190  22.887  0.00  0.00    +0.000 A 
ENDROOT
BRANCH   5  10
ATOM      9 CL   UNL     1      10.995   5.177  21.598  0.00  0.00    +0.000 Cl
ATOM     10  C   UNL     1      11.710   9.625  21.983  0.00  0.00    +0.000 A 
ATOM     11  C   UNL     1      12.658   8.801  21.360  0.00  0.00    +0.000 A 
ATOM     12  C   UNL     1      10.503   9.058  22.417  0.00  0.00    +0.000 A 
ATOM     13  C   UNL     1      12.423   7.432  21.207  0.00  0.00    +0.000 A 
ATOM     14  C   UNL     1      10.283   7.682  22.301  0.00  0.00    +0.000 A 
ATOM     15  C   UNL     1      11.246   6.876  21.700  0.00  0.00    +0.000 A 
ENDBRANCH   5  10
BRANCH   4  17
ATOM     16  N   UNL     1      15.482  10.740  22.709  0.00  0.00    +0.000 NA
ATOM     17  C   UNL     1      14.375  11.027  23.332  0.00  0.00    +0.000 C 
BRANCH  16  18
ATOM     18  O   UNL     1      15.414  11.122  21.365  0.00  0.00    +0.000 OA
BRANCH  18  19
ATOM     19  C   UNL     1      16.416  10.494  20.568  0.00  0.00    +0.000 C 
BRANCH  19  22
ATOM     20 CL   UNL     1      14.230  11.346  18.458  0.00  0.00    +0.000 Cl
ATOM     21 CL   UNL     1      17.030   7.546  21.282  0.00  0.00    +0.000 Cl
ATOM     22  C   UNL     1      15.678   9.430  19.800  0.00  0.00    +0.000 A 
ATOM     23  C   UNL     1      14.798   9.742  18.748  0.00  0.00    +0.000 A 
ATOM     24  C   UNL     1      15.988   8.070  20.007  0.00  0.00    +0.000 A 
ATOM     25  C   UNL     1      14.309   8.748  17.892  0.00  0.00    +0.000 A 
ATOM     26  C   UNL     1      15.470   7.079  19.169  0.00  0.00    +0.000 A 
ATOM     27  C   UNL     1      14.648   7.417  18.099  0.00  0.00    +0.000 A 
ENDBRANCH  19  22
ENDBRANCH  18  19
ENDBRANCH  16  18
ENDBRANCH   4  17
TORSDOF 5
ENDMDL
MODEL 2
REMARK VINA RESULT:      -5.6      3.161      5.239
REMARK  Name = 3625620
REMARK  5 active torsions:
REMARK  status: ('A' for Active; 'I' for Inactive)
REMARK    1  A    between atoms: O_5  and  N_8
REMARK    2  A    between atoms: O_5  and  C_21
REMARK    3  A    between atoms: C_9  and  C_14
REMARK    4  A    between atoms: C_10  and  C_12
REMARK    5  A    between atoms: C_20  and  C_21
REMARK                            x       y       z     vdW  Elec       q    Type
REMARK                         _______ _______ _______ _____ _____    ______ ____
ROOT
ATOM      1  S   UNL     1      18.168   9.682  21.465  0.00  0.00    +0.000 S 
ATOM      2  N   UNL     1      15.813   8.674  21.699  0.00  0.00    +0.000 N 
ATOM      3  N   UNL     1      15.752  10.818  22.310  0.00  0.00    +0.000 NA
ATOM      4  C   UNL     1      14.490   8.902  22.004  0.00  0.00    +0.000 A 
ATOM      5  C   UNL     1      14.498  10.235  22.442  0.00  0.00    +0.000 A 
ATOM      6  C   UNL     1      16.489   9.844  21.868  0.00  0.00    +0.000 A 
ATOM      7  C   UNL     1      16.591   7.618  21.266  0.00  0.00    +0.000 A 
ATOM      8  C   UNL     1      17.875   7.980  21.094  0.00  0.00    +0.000 A 
ENDROOT
BRANCH   5  10
ATOM      9 CL   UNL     1      10.162  13.714  24.631  0.00  0.00    +0.000 Cl
ATOM     10  C   UNL     1      13.387  11.015  22.971  0.00  0.00    +0.000 A 
ATOM     11  C   UNL     1      13.463  11.491  24.288  0.00  0.00    +0.000 A 
ATOM     12  C   UNL     1      12.256  11.328  22.203  0.00  0.00    +0.000 A 
ATOM     13  C   UNL     1      12.450  12.295  24.815  0.00  0.00    +0.000 A 
ATOM     14  C   UNL     1      11.260  12.165  22.715  0.00  0.00    +0.000 A 
ATOM     15  C   UNL     1      11.364  12.648  24.017  0.00  0.00    +0.000 A 
ENDBRANCH   5  10
BRANCH   4  17
ATOM     16  N   UNL     1      12.773   7.602  20.791  0.00  0.00    +0.000 NA
ATOM     17  C   UNL     1      13.451   7.909  21.859  0.00  0.00    +0.000 C 
BRANCH  16  18
ATOM     18  O   UNL     1      13.225   8.330  19.685  0.00  0.00    +0.000 OA
BRANCH  18  19
ATOM     19  C   UNL     1      12.323   9.370  19.312  0.00  0.00    +0.000 C 
BRANCH  19  22
ATOM     20 CL   UNL     1      14.774  11.342  19.057  0.00  0.00    +0.000 Cl
ATOM     21 CL   UNL     1      10.681   8.379  16.884  0.00  0.00    +0.000 Cl
ATOM     22  C   UNL     1      12.784   9.800  17.946  0.00  0.00    +0.000 A 
ATOM     23  C   UNL     1      13.953  10.560  17.755  0.00  0.00    +0.000 A 
ATOM     24  C   UNL     1      12.141   9.299  16.795  0.00  0.00    +0.000 A 
ATOM     25  C   UNL     1      14.498  10.746  16.480  0.00  0.00    +0.000 A 
ATOM     26  C   UNL     1      12.672   9.517  15.521  0.00  0.00    +0.000 A 
ATOM     27  C   UNL     1      13.860  10.222  15.362  0.00  0.00    +0.000 A 
ENDBRANCH  19  22
ENDBRANCH  18  19
ENDBRANCH  16  18
ENDBRANCH   4  17
TORSDOF 5
ENDMDL
MODEL 3
REMARK VINA RESULT:      -5.3     16.643     18.808
REMARK  Name = 3625620
REMARK  5 active torsions:
REMARK  status: ('A' for Active; 'I' for Inactive)
REMARK    1  A    between atoms: O_5  and  N_8
REMARK    2  A    between atoms: O_5  and  C_21
REMARK    3  A    between atoms: C_9  and  C_14
REMARK    4  A    between atoms: C_10  and  C_12
REMARK    5  A    between atoms: C_20  and  C_21
REMARK                            x       y       z     vdW  Elec       q    Type
REMARK                         _______ _______ _______ _____ _____    ______ ____
ROOT
ATOM      1  S   UNL     1       7.332   9.687   1.777  0.00  0.00    +0.000 S 
ATOM      2  N   UNL     1       9.564   9.024   2.869  0.00  0.00    +0.000 N 
ATOM      3  N   UNL     1       7.887   8.126   4.034  0.00  0.00    +0.000 NA
ATOM      4  C   UNL     1      10.189   8.300   3.861  0.00  0.00    +0.000 A 
ATOM      5  C   UNL     1       9.110   7.803   4.608  0.00  0.00    +0.000 A 
ATOM      6  C   UNL     1       8.220   8.851   3.010  0.00  0.00    +0.000 A 
ATOM      7  C   UNL     1       9.934   9.824   1.807  0.00  0.00    +0.000 A 
ATOM      8  C   UNL     1       8.866  10.267   1.120  0.00  0.00    +0.000 A 
ENDROOT
BRANCH   5  10
ATOM      9 CL   UNL     1       9.631   4.568   9.605  0.00  0.00    +0.000 Cl
ATOM     10  C   UNL     1       9.151   7.020   5.836  0.00  0.00    +0.000 A 
ATOM     11  C   UNL     1       9.546   5.676   5.768  0.00  0.00    +0.000 A 
ATOM     12  C   UNL     1       8.834   7.569   7.087  0.00  0.00    +0.000 A 
ATOM     13  C   UNL     1       9.659   4.906   6.928  0.00  0.00    +0.000 A 
ATOM     14  C   UNL     1       8.985   6.812   8.253  0.00  0.00    +0.000 A 
ATOM     15  C   UNL     1       9.401   5.486   8.168  0.00  0.00    +0.000 A 
ENDBRANCH   5  10
BRANCH   4  17
ATOM     16  N   UNL     1      12.416   7.364   3.337  0.00  0.00    +0.000 NA
ATOM     17  C   UNL     1      11.622   8.173   3.979  0.00  0.00    +0.000 C 
BRANCH  16  18
ATOM     18  O   UNL     1      11.708   6.613   2.393  0.00  0.00    +0.000 OA
BRANCH  18  19
ATOM     19  C   UNL     1      11.915   5.210   2.546  0.00  0.00    +0.000 C 
BRANCH  19  22
ATOM     20 CL   UNL     1      14.966   4.741   1.890  0.00  0.00    +0.000 Cl
ATOM     21 CL   UNL     1       9.659   4.897   0.452  0.00  0.00    +0.000 Cl
ATOM     22  C   UNL     1      12.309   4.733   1.175  0.00  0.00    +0.000 A 
ATOM     23  C   UNL     1      13.631   4.368   0.861  0.00  0.00    +0.000 A 
ATOM     24  C   UNL     1      11.316   4.472   0.207  0.00  0.00    +0.000 A 
ATOM     25  C   UNL     1      13.937   3.703  -0.332  0.00  0.00    +0.000 A 
ATOM     26  C   UNL     1      11.634   3.838  -0.996  0.00  0.00    +0.000 A 
ATOM     27  C   UNL     1      12.939   3.435  -1.260  0.00  0.00    +0.000 A 
ENDBRANCH  19  22
ENDBRANCH  18  19
ENDBRANCH  16  18
ENDBRANCH   4  17
TORSDOF 5
ENDMDL
MODEL 4
REMARK VINA RESULT:      -5.3      3.048      5.208
REMARK  Name = 3625620
REMARK  5 active torsions:
REMARK  status: ('A' for Active; 'I' for Inactive)
REMARK    1  A    between atoms: O_5  and  N_8
REMARK    2  A    between atoms: O_5  and  C_21
REMARK    3  A    between atoms: C_9  and  C_14
REMARK    4  A    between atoms: C_10  and  C_12
REMARK    5  A    between atoms: C_20  and  C_21
REMARK                            x       y       z     vdW  Elec       q    Type
REMARK                         _______ _______ _______ _____ _____    ______ ____
ROOT
ATOM      1  S   UNL     1      15.618  13.870  24.895  0.00  0.00    +0.000 S 
ATOM      2  N   UNL     1      13.398  12.572  24.867  0.00  0.00    +0.000 N 
ATOM      3  N   UNL     1      13.119  14.516  23.812  0.00  0.00    +0.000 NA
ATOM      4  C   UNL     1      12.091  12.538  24.434  0.00  0.00    +0.000 A 
ATOM      5  C   UNL     1      11.931  13.795  23.832  0.00  0.00    +0.000 A 
ATOM      6  C   UNL     1      13.949  13.742  24.441  0.00  0.00    +0.000 A 
ATOM      7  C   UNL     1      14.258  11.752  25.572  0.00  0.00    +0.000 A 
ATOM      8  C   UNL     1      15.484  12.294  25.684  0.00  0.00    +0.000 A 
ENDROOT
BRANCH   5  10
ATOM      9 CL   UNL     1       6.849  15.820  21.430  0.00  0.00    +0.000 Cl
ATOM     10  C   UNL     1      10.724  14.369  23.253  0.00  0.00    +0.000 A 
ATOM     11  C   UNL     1      10.410  14.076  21.919  0.00  0.00    +0.000 A 
ATOM     12  C   UNL     1       9.852  15.184  23.990  0.00  0.00    +0.000 A 
ATOM     13  C   UNL     1       9.230  14.554  21.342  0.00  0.00    +0.000 A 
ATOM     14  C   UNL     1       8.652  15.630  23.427  0.00  0.00    +0.000 A 
ATOM     15  C   UNL     1       8.346  15.309  22.108  0.00  0.00    +0.000 A 
ENDBRANCH   5  10
BRANCH   4  17
ATOM     16  N   UNL     1      11.004  10.404  23.822  0.00  0.00    +0.000 NA
ATOM     17  C   UNL     1      11.212  11.409  24.625  0.00  0.00    +0.000 C 
BRANCH  16  18
ATOM     18  O   UNL     1      11.828  10.484  22.695  0.00  0.00    +0.000 OA
BRANCH  18  19
ATOM     19  C   UNL     1      11.102  10.331  21.477  0.00  0.00    +0.000 C 
BRANCH  19  22
ATOM     20 CL   UNL     1      13.275  11.071  19.313  0.00  0.00    +0.000 Cl
ATOM     21 CL   UNL     1      10.223   7.426  22.079  0.00  0.00    +0.000 Cl
ATOM     22  C   UNL     1      11.818   9.229  20.745  0.00  0.00    +0.000 A 
ATOM     23  C   UNL     1      12.893   9.484  19.875  0.00  0.00    +0.000 A 
ATOM     24  C   UNL     1      11.535   7.881  21.050  0.00  0.00    +0.000 A 
ATOM     25  C   UNL     1      13.699   8.446  19.392  0.00  0.00    +0.000 A 
ATOM     26  C   UNL     1      12.322   6.847  20.538  0.00  0.00    +0.000 A 
ATOM     27  C   UNL     1      13.416   7.128  19.726  0.00  0.00    +0.000 A 
ENDBRANCH  19  22
ENDBRANCH  18  19
ENDBRANCH  16  18
ENDBRANCH   4  17
TORSDOF 5
ENDMDL
MODEL 5
REMARK VINA RESULT:      -5.2     13.807     16.278
REMARK  Name = 3625620
REMARK  5 active torsions:
REMARK  status: ('A' for Active; 'I' for Inactive)
REMARK    1  A    between atoms: O_5  and  N_8
REMARK    2  A    between atoms: O_5  and  C_21
REMARK    3  A    between atoms: C_9  and  C_14
REMARK    4  A    between atoms: C_10  and  C_12
REMARK    5  A    between atoms: C_20  and  C_21
REMARK                            x       y       z     vdW  Elec       q    Type
REMARK                         _______ _______ _______ _____ _____    ______ ____
ROOT
ATOM      1  S   UNL     1      10.365  13.271   8.855  0.00  0.00    +0.000 S 
ATOM      2  N   UNL     1       9.807  10.768   8.671  0.00  0.00    +0.000 N 
ATOM      3  N   UNL     1      11.404  11.269   7.198  0.00  0.00    +0.000 NA
ATOM      4  C   UNL     1      10.106   9.564   8.072  0.00  0.00    +0.000 A 
ATOM      5  C   UNL     1      11.064   9.924   7.112  0.00  0.00    +0.000 A 
ATOM      6  C   UNL     1      10.626  11.715   8.136  0.00  0.00    +0.000 A 
ATOM      7  C   UNL     1       8.946  11.234   9.645  0.00  0.00    +0.000 A 
ATOM      8  C   UNL     1       9.107  12.551   9.864  0.00  0.00    +0.000 A 
ENDROOT
BRANCH   5  10
ATOM      9 CL   UNL     1      13.927   6.697   2.980  0.00  0.00    +0.000 Cl
ATOM     10  C   UNL     1      11.702   9.076   6.115  0.00  0.00    +0.000 A 
ATOM     11  C   UNL     1      11.740   9.511   4.783  0.00  0.00    +0.000 A 
ATOM     12  C   UNL     1      12.301   7.851   6.444  0.00  0.00    +0.000 A 
ATOM     13  C   UNL     1      12.396   8.759   3.805  0.00  0.00    +0.000 A 
ATOM     14  C   UNL     1      12.992   7.117   5.475  0.00  0.00    +0.000 A 
ATOM     15  C   UNL     1      13.039   7.576   4.161  0.00  0.00    +0.000 A 
ENDBRANCH   5  10
BRANCH   4  17
ATOM     16  N   UNL     1       8.696   7.561   7.744  0.00  0.00    +0.000 NA
ATOM     17  C   UNL     1       9.497   8.309   8.447  0.00  0.00    +0.000 C 
BRANCH  16  18
ATOM     18  O   UNL     1       8.515   8.087   6.461  0.00  0.00    +0.000 OA
BRANCH  18  19
ATOM     19  C   UNL     1       7.812   7.194   5.600  0.00  0.00    +0.000 C 
BRANCH  19  22
ATOM     20 CL   UNL     1       9.821   4.805   6.063  0.00  0.00    +0.000 Cl
ATOM     21 CL   UNL     1       7.869   8.998   3.086  0.00  0.00    +0.000 Cl
ATOM     22  C   UNL     1       8.804   6.846   4.523  0.00  0.00    +0.000 A 
ATOM     23  C   UNL     1       9.628   5.708   4.605  0.00  0.00    +0.000 A 
ATOM     24  C   UNL     1       8.809   7.566   3.310  0.00  0.00    +0.000 A 
ATOM     25  C   UNL     1      10.365   5.265   3.501  0.00  0.00    +0.000 A 
ATOM     26  C   UNL     1       9.574   7.137   2.222  0.00  0.00    +0.000 A 
ATOM     27  C   UNL     1      10.336   5.977   2.308  0.00  0.00    +0.000 A 
ENDBRANCH  19  22
ENDBRANCH  18  19
ENDBRANCH  16  18
ENDBRANCH   4  17
TORSDOF 5
ENDMDL
MODEL 6
REMARK VINA RESULT:      -5.0     30.014     32.008
REMARK  Name = 3625620
REMARK  5 active torsions:
REMARK  status: ('A' for Active; 'I' for Inactive)
REMARK    1  A    between atoms: O_5  and  N_8
REMARK    2  A    between atoms: O_5  and  C_21
REMARK    3  A    between atoms: C_9  and  C_14
REMARK    4  A    between atoms: C_10  and  C_12
REMARK    5  A    between atoms: C_20  and  C_21
REMARK                            x       y       z     vdW  Elec       q    Type
REMARK                         _______ _______ _______ _____ _____    ______ ____
ROOT
ATOM      1  S   UNL     1       9.615 -20.929   8.400  0.00  0.00    +0.000 S 
ATOM      2  N   UNL     1      11.280 -19.160   9.243  0.00  0.00    +0.000 N 
ATOM      3  N   UNL     1      12.056 -20.048   7.351  0.00  0.00    +0.000 NA
ATOM      4  C   UNL     1      12.451 -18.476   9.003  0.00  0.00    +0.000 A 
ATOM      5  C   UNL     1      12.943 -19.099   7.846  0.00  0.00    +0.000 A 
ATOM      6  C   UNL     1      11.094 -20.040   8.221  0.00  0.00    +0.000 A 
ATOM      7  C   UNL     1      10.283 -19.166  10.198  0.00  0.00    +0.000 A 
ATOM      8  C   UNL     1       9.317 -20.056   9.906  0.00  0.00    +0.000 A 
ENDROOT
BRANCH   5  10
ATOM      9 CL   UNL     1      18.267 -18.102   5.326  0.00  0.00    +0.000 Cl
ATOM     10  C   UNL     1      14.201 -18.850   7.155  0.00  0.00    +0.000 A 
ATOM     11  C   UNL     1      14.898 -17.666   7.428  0.00  0.00    +0.000 A 
ATOM     12  C   UNL     1      14.751 -19.766   6.245  0.00  0.00    +0.000 A 
ATOM     13  C   UNL     1      16.138 -17.415   6.835  0.00  0.00    +0.000 A 
ATOM     14  C   UNL     1      16.010 -19.535   5.682  0.00  0.00    +0.000 A 
ATOM     15  C   UNL     1      16.699 -18.363   5.983  0.00  0.00    +0.000 A 
ENDBRANCH   5  10
BRANCH   4  17
ATOM     16  N   UNL     1      13.573 -17.473  10.964  0.00  0.00    +0.000 NA
ATOM     17  C   UNL     1      12.934 -17.396   9.832  0.00  0.00    +0.000 C 
BRANCH  16  18
ATOM     18  O   UNL     1      13.836 -18.805  11.301  0.00  0.00    +0.000 OA
BRANCH  18  19
ATOM     19  C   UNL     1      15.086 -18.961  11.968  0.00  0.00    +0.000 C 
BRANCH  19  22
ATOM     20 CL   UNL     1      17.263 -16.704  11.613  0.00  0.00    +0.000 Cl
ATOM     21 CL   UNL     1      14.798 -21.362  10.037  0.00  0.00    +0.000 Cl
ATOM     22  C   UNL     1      16.096 -19.078  10.858  0.00  0.00    +0.000 A 
ATOM     23  C   UNL     1      17.176 -18.186  10.732  0.00  0.00    +0.000 A 
ATOM     24  C   UNL     1      16.081 -20.204  10.008  0.00  0.00    +0.000 A 
ATOM     25  C   UNL     1      18.233 -18.445   9.852  0.00  0.00    +0.000 A 
ATOM     26  C   UNL     1      17.122 -20.439   9.107  0.00  0.00    +0.000 A 
ATOM     27  C   UNL     1      18.208 -19.573   9.041  0.00  0.00    +0.000 A 
ENDBRANCH  19  22
ENDBRANCH  18  19
ENDBRANCH  16  18
ENDBRANCH   4  17
TORSDOF 5
ENDMDL
MODEL 7
REMARK VINA RESULT:      -4.9     27.897     30.882
REMARK  Name = 3625620
REMARK  5 active torsions:
REMARK  status: ('A' for Active; 'I' for Inactive)
REMARK    1  A    between atoms: O_5  and  N_8
REMARK    2  A    between atoms: O_5  and  C_21
REMARK    3  A    between atoms: C_9  and  C_14
REMARK    4  A    between atoms: C_10  and  C_12
REMARK    5  A    between atoms: C_20  and  C_21
REMARK                            x       y       z     vdW  Elec       q    Type
REMARK                         _______ _______ _______ _____ _____    ______ ____
ROOT
ATOM      1  S   UNL     1      -9.065 -13.465  19.852  0.00  0.00    +0.000 S 
ATOM      2  N   UNL     1      -8.501 -11.184  18.806  0.00  0.00    +0.000 N 
ATOM      3  N   UNL     1      -6.989 -12.684  18.144  0.00  0.00    +0.000 NA
ATOM      4  C   UNL     1      -7.675 -10.481  17.958  0.00  0.00    +0.000 A 
ATOM      5  C   UNL     1      -6.704 -11.432  17.611  0.00  0.00    +0.000 A 
ATOM      6  C   UNL     1      -8.062 -12.473  18.843  0.00  0.00    +0.000 A 
ATOM      7  C   UNL     1      -9.620 -10.934  19.575  0.00  0.00    +0.000 A 
ATOM      8  C   UNL     1     -10.050 -12.042  20.206  0.00  0.00    +0.000 A 
ENDROOT
BRANCH   5  10
ATOM      9 CL   UNL     1      -1.945 -10.345  14.166  0.00  0.00    +0.000 Cl
ATOM     10  C   UNL     1      -5.516 -11.248  16.788  0.00  0.00    +0.000 A 
ATOM     11  C   UNL     1      -5.672 -11.071  15.406  0.00  0.00    +0.000 A 
ATOM     12  C   UNL     1      -4.223 -11.215  17.333  0.00  0.00    +0.000 A 
ATOM     13  C   UNL     1      -4.566 -10.829  14.589  0.00  0.00    +0.000 A 
ATOM     14  C   UNL     1      -3.119 -10.933  16.522  0.00  0.00    +0.000 A 
ATOM     15  C   UNL     1      -3.297 -10.737  15.155  0.00  0.00    +0.000 A 
ENDBRANCH   5  10
BRANCH   4  17
ATOM     16  N   UNL     1      -8.768  -8.597  16.789  0.00  0.00    +0.000 NA
ATOM     17  C   UNL     1      -7.881  -9.096  17.602  0.00  0.00    +0.000 C 
BRANCH  16  18
ATOM     18  O   UNL     1      -9.620  -9.594  16.303  0.00  0.00    +0.000 OA
BRANCH  18  19
ATOM     19  C   UNL     1     -10.328  -9.183  15.135  0.00  0.00    +0.000 C 
BRANCH  19  22
ATOM     20 CL   UNL     1     -10.674  -6.062  15.441  0.00  0.00    +0.000 Cl
ATOM     21 CL   UNL     1     -12.483 -11.225  16.007  0.00  0.00    +0.000 Cl
ATOM     22  C   UNL     1     -11.629  -8.633  15.655  0.00  0.00    +0.000 A 
ATOM     23  C   UNL     1     -11.900  -7.253  15.680  0.00  0.00    +0.000 A 
ATOM     24  C   UNL     1     -12.688  -9.509  15.971  0.00  0.00    +0.000 A 
ATOM     25  C   UNL     1     -13.190  -6.771  15.936  0.00  0.00    +0.000 A 
ATOM     26  C   UNL     1     -13.965  -9.020  16.258  0.00  0.00    +0.000 A 
ATOM     27  C   UNL     1     -14.223  -7.654  16.221  0.00  0.00    +0.000 A 
ENDBRANCH  19  22
ENDBRANCH  18  19
ENDBRANCH  16  18
ENDBRANCH   4  17
TORSDOF 5
ENDMDL
MODEL 8
REMARK VINA RESULT:      -4.9     18.292     20.565
REMARK  Name = 3625620
REMARK  5 active torsions:
REMARK  status: ('A' for Active; 'I' for Inactive)
REMARK    1  A    between atoms: O_5  and  N_8
REMARK    2  A    between atoms: O_5  and  C_21
REMARK    3  A    between atoms: C_9  and  C_14
REMARK    4  A    between atoms: C_10  and  C_12
REMARK    5  A    between atoms: C_20  and  C_21
REMARK                            x       y       z     vdW  Elec       q    Type
REMARK                         _______ _______ _______ _____ _____    ______ ____
ROOT
ATOM      1  S   UNL     1       7.053  10.103  -0.576  0.00  0.00    +0.000 S 
ATOM      2  N   UNL     1       9.062   8.972   0.564  0.00  0.00    +0.000 N 
ATOM      3  N   UNL     1       7.415   9.205   2.050  0.00  0.00    +0.000 NA
ATOM      4  C   UNL     1       9.557   8.394   1.712  0.00  0.00    +0.000 A 
ATOM      5  C   UNL     1       8.526   8.613   2.639  0.00  0.00    +0.000 A 
ATOM      6  C   UNL     1       7.793   9.395   0.823  0.00  0.00    +0.000 A 
ATOM      7  C   UNL     1       9.493   9.202  -0.727  0.00  0.00    +0.000 A 
ATOM      8  C   UNL     1       8.547   9.803  -1.470  0.00  0.00    +0.000 A 
ENDROOT
BRANCH   5  10
ATOM      9 CL   UNL     1       8.748   7.083   8.410  0.00  0.00    +0.000 Cl
ATOM     10  C   UNL     1       8.507   8.286   4.058  0.00  0.00    +0.000 A 
ATOM     11  C   UNL     1       8.317   6.950   4.441  0.00  0.00    +0.000 A 
ATOM     12  C   UNL     1       8.698   9.254   5.055  0.00  0.00    +0.000 A 
ATOM     13  C   UNL     1       8.354   6.582   5.788  0.00  0.00    +0.000 A 
ATOM     14  C   UNL     1       8.775   8.882   6.400  0.00  0.00    +0.000 A 
ATOM     15  C   UNL     1       8.607   7.548   6.760  0.00  0.00    +0.000 A 
ENDBRANCH   5  10
BRANCH   4  17
ATOM     16  N   UNL     1      11.136   6.495   1.622  0.00  0.00    +0.000 NA
ATOM     17  C   UNL     1      10.848   7.753   1.795  0.00  0.00    +0.000 C 
BRANCH  16  18
ATOM     18  O   UNL     1      10.001   5.768   1.248  0.00  0.00    +0.000 OA
BRANCH  18  19
ATOM     19  C   UNL     1      10.255   4.368   1.161  0.00  0.00    +0.000 C 
BRANCH  19  22
ATOM     20 CL   UNL     1      13.164   3.233   1.618  0.00  0.00    +0.000 Cl
ATOM     21 CL   UNL     1       9.235   5.372  -1.583  0.00  0.00    +0.000 Cl
ATOM     22  C   UNL     1      11.184   4.224  -0.015  0.00  0.00    +0.000 A 
ATOM     23  C   UNL     1      12.437   3.594   0.094  0.00  0.00    +0.000 A 
ATOM     24  C   UNL     1      10.740   4.567  -1.309  0.00  0.00    +0.000 A 
ATOM     25  C   UNL     1      13.180   3.253  -1.042  0.00  0.00    +0.000 A 
ATOM     26  C   UNL     1      11.502   4.254  -2.438  0.00  0.00    +0.000 A 
ATOM     27  C   UNL     1      12.711   3.579  -2.308  0.00  0.00    +0.000 A 
ENDBRANCH  19  22
ENDBRANCH  18  19
ENDBRANCH  16  18
ENDBRANCH   4  17
TORSDOF 5
ENDMDL
MODEL 9
REMARK VINA RESULT:      -4.8     28.766     31.182
REMARK  Name = 3625620
REMARK  5 active torsions:
REMARK  status: ('A' for Active; 'I' for Inactive)
REMARK    1  A    between atoms: O_5  and  N_8
REMARK    2  A    between atoms: O_5  and  C_21
REMARK    3  A    between atoms: C_9  and  C_14
REMARK    4  A    between atoms: C_10  and  C_12
REMARK    5  A    between atoms: C_20  and  C_21
REMARK                            x       y       z     vdW  Elec       q    Type
REMARK                         _______ _______ _______ _____ _____    ______ ____
ROOT
ATOM      1  S   UNL     1     -11.219  -6.316  15.984  0.00  0.00    +0.000 S 
ATOM      2  N   UNL     1     -11.295  -8.696  16.956  0.00  0.00    +0.000 N 
ATOM      3  N   UNL     1      -9.184  -7.977  16.952  0.00  0.00    +0.000 NA
ATOM      4  C   UNL     1     -10.585  -9.727  17.530  0.00  0.00    +0.000 A 
ATOM      5  C   UNL     1      -9.261  -9.270  17.455  0.00  0.00    +0.000 A 
ATOM      6  C   UNL     1     -10.420  -7.692  16.673  0.00  0.00    +0.000 A 
ATOM      7  C   UNL     1     -12.609  -8.423  16.629  0.00  0.00    +0.000 A 
ATOM      8  C   UNL     1     -12.747  -7.196  16.095  0.00  0.00    +0.000 A 
ENDROOT
BRANCH   5  10
ATOM      9 CL   UNL     1      -4.125 -11.829  19.119  0.00  0.00    +0.000 Cl
ATOM     10  C   UNL     1      -8.044  -9.971  17.842  0.00  0.00    +0.000 A 
ATOM     11  C   UNL     1      -6.882  -9.778  17.082  0.00  0.00    +0.000 A 
ATOM     12  C   UNL     1      -7.987 -10.813  18.963  0.00  0.00    +0.000 A 
ATOM     13  C   UNL     1      -5.678 -10.381  17.454  0.00  0.00    +0.000 A 
ATOM     14  C   UNL     1      -6.774 -11.385  19.360  0.00  0.00    +0.000 A 
ATOM     15  C   UNL     1      -5.625 -11.163  18.606  0.00  0.00    +0.000 A 
ENDBRANCH   5  10
BRANCH   4  17
ATOM     16  N   UNL     1     -11.196 -12.122  17.511  0.00  0.00    +0.000 NA
ATOM     17  C   UNL     1     -11.194 -10.932  18.041  0.00  0.00    +0.000 C 
BRANCH  16  18
ATOM     18  O   UNL     1     -10.435 -12.149  16.338  0.00  0.00    +0.000 OA
BRANCH  18  19
ATOM     19  C   UNL     1     -10.226 -13.474  15.854  0.00  0.00    +0.000 C 
BRANCH  19  22
ATOM     20 CL   UNL     1      -8.695 -12.345  13.336  0.00  0.00    +0.000 Cl
ATOM     21 CL   UNL     1      -8.829 -15.030  18.135  0.00  0.00    +0.000 Cl
ATOM     22  C   UNL     1      -8.730 -13.618  15.775  0.00  0.00    +0.000 A 
ATOM     23  C   UNL     1      -7.973 -13.014  14.755  0.00  0.00    +0.000 A 
ATOM     24  C   UNL     1      -8.024 -14.226  16.834  0.00  0.00    +0.000 A 
ATOM     25  C   UNL     1      -6.577 -12.952  14.826  0.00  0.00    +0.000 A 
ATOM     26  C   UNL     1      -6.629 -14.190  16.882  0.00  0.00    +0.000 A 
ATOM     27  C   UNL     1      -5.904 -13.537  15.891  0.00  0.00    +0.000 A 
ENDBRANCH  19  22
ENDBRANCH  18  19
ENDBRANCH  16  18
ENDBRANCH   4  17
TORSDOF 5
ENDMDL
MODEL 10
REMARK VINA RESULT:      -4.8      2.625      5.526
REMARK  Name = 3625620
REMARK  5 active torsions:
REMARK  status: ('A' for Active; 'I' for Inactive)
REMARK    1  A    between atoms: O_5  and  N_8
REMARK    2  A    between atoms: O_5  and  C_21
REMARK    3  A    between atoms: C_9  and  C_14
REMARK    4  A    between atoms: C_10  and  C_12
REMARK    5  A    between atoms: C_20  and  C_21
REMARK                            x       y       z     vdW  Elec       q    Type
REMARK                         _______ _______ _______ _____ _____    ______ ____
ROOT
ATOM      1  S   UNL     1      12.152  15.074  19.435  0.00  0.00    +0.000 S 
ATOM      2  N   UNL     1      11.640  12.983  20.842  0.00  0.00    +0.000 N 
ATOM      3  N   UNL     1      13.329  12.534  19.456  0.00  0.00    +0.000 NA
ATOM      4  C   UNL     1      11.995  11.688  21.148  0.00  0.00    +0.000 A 
ATOM      5  C   UNL     1      13.012  11.417  20.220  0.00  0.00    +0.000 A 
ATOM      6  C   UNL     1      12.482  13.427  19.867  0.00  0.00    +0.000 A 
ATOM      7  C   UNL     1      10.707  13.909  21.264  0.00  0.00    +0.000 A 
ATOM      8  C   UNL     1      10.836  15.080  20.613  0.00  0.00    +0.000 A 
ENDROOT
BRANCH   5  10
ATOM      9 CL   UNL     1      16.036   6.403  19.030  0.00  0.00    +0.000 Cl
ATOM     10  C   UNL     1      13.728  10.166  20.009  0.00  0.00    +0.000 A 
ATOM     11  C   UNL     1      13.261   9.277  19.032  0.00  0.00    +0.000 A 
ATOM     12  C   UNL     1      14.884   9.831  20.731  0.00  0.00    +0.000 A 
ATOM     13  C   UNL     1      13.952   8.095  18.753  0.00  0.00    +0.000 A 
ATOM     14  C   UNL     1      15.599   8.669  20.426  0.00  0.00    +0.000 A 
ATOM     15  C   UNL     1      15.131   7.809  19.436  0.00  0.00    +0.000 A 
ENDBRANCH   5  10
BRANCH   4  17
ATOM     16  N   UNL     1      11.868  10.602  23.365  0.00  0.00    +0.000 NA
ATOM     17  C   UNL     1      11.377  10.914  22.200  0.00  0.00    +0.000 C 
BRANCH  16  18
ATOM     18  O   UNL     1      13.124  11.189  23.553  0.00  0.00    +0.000 OA
BRANCH  18  19
ATOM     19  C   UNL     1      13.188  11.967  24.746  0.00  0.00    +0.000 C 
BRANCH  19  22
ATOM     20 CL   UNL     1      10.506  13.326  25.702  0.00  0.00    +0.000 Cl
ATOM     21 CL   UNL     1      15.166  13.310  22.781  0.00  0.00    +0.000 Cl
ATOM     22  C   UNL     1      12.873  13.370  24.300  0.00  0.00    +0.000 A 
ATOM     23  C   UNL     1      11.770  14.084  24.803  0.00  0.00    +0.000 A 
ATOM     24  C   UNL     1      13.786  14.074  23.488  0.00  0.00    +0.000 A 
ATOM     25  C   UNL     1      11.625  15.456  24.568  0.00  0.00    +0.000 A 
ATOM     26  C   UNL     1      13.618  15.436  23.230  0.00  0.00    +0.000 A 
ATOM     27  C   UNL     1      12.551  16.134  23.785  0.00  0.00    +0.000 A 
ENDBRANCH  19  22
ENDBRANCH  18  19
ENDBRANCH  16  18
ENDBRANCH   4  17
TORSDOF 5
ENDMDL
