MODEL 1
REMARK VINA RESULT:      -5.4      0.000      0.000
REMARK  Name = 3625620
REMARK  5 active torsions:
REMARK  status: ('A' for Active; 'I' for Inactive)
REMARK    1  A    between atoms: O_5  and  N_8
REMARK    2  A    between atoms: O_5  and  C_21
REMARK    3  A    between atoms: C_9  and  C_14
REMARK    4  A    between atoms: C_10  and  C_12
REMARK    5  A    between atoms: C_20  and  C_21
REMARK                            x       y       z     vdW  Elec       q    Type
REMARK                         _______ _______ _______ _____ _____    ______ ____
ROOT
ATOM      1  S   UNL     1     -15.114   7.720 -35.509  0.00  0.00    +0.000 S 
ATOM      2  N   UNL     1     -13.212   7.004 -33.933  0.00  0.00    +0.000 N 
ATOM      3  N   UNL     1     -12.459   7.002 -36.033  0.00  0.00    +0.000 NA
ATOM      4  C   UNL     1     -11.885   6.653 -33.817  0.00  0.00    +0.000 A 
ATOM      5  C   UNL     1     -11.460   6.600 -35.154  0.00  0.00    +0.000 A 
ATOM      6  C   UNL     1     -13.472   7.225 -35.252  0.00  0.00    +0.000 A 
ATOM      7  C   UNL     1     -14.290   7.200 -33.093  0.00  0.00    +0.000 A 
ATOM      8  C   UNL     1     -15.388   7.581 -33.770  0.00  0.00    +0.000 A 
ENDROOT
BRANCH   5  10
ATOM      9 CL   UNL     1      -6.247   4.998 -37.593  0.00  0.00    +0.000 Cl
ATOM     10  C   UNL     1     -10.156   6.206 -35.669  0.00  0.00    +0.000 A 
ATOM     11  C   UNL     1     -10.029   4.964 -36.306  0.00  0.00    +0.000 A 
ATOM     12  C   UNL     1      -9.029   7.036 -35.572  0.00  0.00    +0.000 A 
ATOM     13  C   UNL     1      -8.811   4.573 -36.869  0.00  0.00    +0.000 A 
ATOM     14  C   UNL     1      -7.821   6.663 -36.169  0.00  0.00    +0.000 A 
ATOM     15  C   UNL     1      -7.719   5.436 -36.818  0.00  0.00    +0.000 A 
ENDBRANCH   5  10
BRANCH   4  17
ATOM     16  N   UNL     1     -11.196   5.333 -31.845  0.00  0.00    +0.000 NA
ATOM     17  C   UNL     1     -11.223   6.425 -32.554  0.00  0.00    +0.000 C 
BRANCH  16  18
ATOM     18  O   UNL     1     -11.860   4.292 -32.501  0.00  0.00    +0.000 OA
BRANCH  18  19
ATOM     19  C   UNL     1     -12.612   3.476 -31.606  0.00  0.00    +0.000 C 
BRANCH  19  22
ATOM     20 CL   UNL     1     -10.740   1.026 -32.276  0.00  0.00    +0.000 Cl
ATOM     21 CL   UNL     1     -15.464   3.800 -32.762  0.00  0.00    +0.000 Cl
ATOM     22  C   UNL     1     -13.139   2.357 -32.465  0.00  0.00    +0.000 A 
ATOM     23  C   UNL     1     -12.411   1.174 -32.682  0.00  0.00    +0.000 A 
ATOM     24  C   UNL     1     -14.468   2.398 -32.936  0.00  0.00    +0.000 A 
ATOM     25  C   UNL     1     -13.005   0.054 -33.276  0.00  0.00    +0.000 A 
ATOM     26  C   UNL     1     -15.045   1.288 -33.558  0.00  0.00    +0.000 A 
ATOM     27  C   UNL     1     -14.323   0.109 -33.711  0.00  0.00    +0.000 A 
ENDBRANCH  19  22
ENDBRANCH  18  19
ENDBRANCH  16  18
ENDBRANCH   4  17
TORSDOF 5
ENDMDL
MODEL 2
REMARK VINA RESULT:      -5.3     19.653     21.413
REMARK  Name = 3625620
REMARK  5 active torsions:
REMARK  status: ('A' for Active; 'I' for Inactive)
REMARK    1  A    between atoms: O_5  and  N_8
REMARK    2  A    between atoms: O_5  and  C_21
REMARK    3  A    between atoms: C_9  and  C_14
REMARK    4  A    between atoms: C_10  and  C_12
REMARK    5  A    between atoms: C_20  and  C_21
REMARK                            x       y       z     vdW  Elec       q    Type
REMARK                         _______ _______ _______ _____ _____    ______ ____
ROOT
ATOM      1  S   UNL     1      -0.164  -4.231 -52.863  0.00  0.00    +0.000 S 
ATOM      2  N   UNL     1      -2.143  -3.476 -51.405  0.00  0.00    +0.000 N 
ATOM      3  N   UNL     1      -1.999  -2.142 -53.186  0.00  0.00    +0.000 NA
ATOM      4  C   UNL     1      -3.205  -2.610 -51.267  0.00  0.00    +0.000 A 
ATOM      5  C   UNL     1      -3.049  -1.750 -52.365  0.00  0.00    +0.000 A 
ATOM      6  C   UNL     1      -1.500  -3.166 -52.565  0.00  0.00    +0.000 A 
ATOM      7  C   UNL     1      -1.601  -4.541 -50.712  0.00  0.00    +0.000 A 
ATOM      8  C   UNL     1      -0.535  -5.059 -51.347  0.00  0.00    +0.000 A 
ENDROOT
BRANCH   5  10
ATOM      9 CL   UNL     1      -6.032   3.269 -53.632  0.00  0.00    +0.000 Cl
ATOM     10  C   UNL     1      -3.839  -0.575 -52.708  0.00  0.00    +0.000 A 
ATOM     11  C   UNL     1      -4.344   0.224 -51.673  0.00  0.00    +0.000 A 
ATOM     12  C   UNL     1      -4.091  -0.202 -54.036  0.00  0.00    +0.000 A 
ATOM     13  C   UNL     1      -5.054   1.394 -51.957  0.00  0.00    +0.000 A 
ATOM     14  C   UNL     1      -4.767   0.989 -54.322  0.00  0.00    +0.000 A 
ATOM     15  C   UNL     1      -5.241   1.782 -53.281  0.00  0.00    +0.000 A 
ENDBRANCH   5  10
BRANCH   4  17
ATOM     16  N   UNL     1      -5.343  -3.255 -50.207  0.00  0.00    +0.000 NA
ATOM     17  C   UNL     1      -4.170  -2.689 -50.196  0.00  0.00    +0.000 C 
BRANCH  16  18
ATOM     18  O   UNL     1      -5.579  -3.895 -51.429  0.00  0.00    +0.000 OA
BRANCH  18  19
ATOM     19  C   UNL     1      -6.963  -3.927 -51.769  0.00  0.00    +0.000 C 
BRANCH  19  22
ATOM     20 CL   UNL     1      -6.141  -4.464 -54.767  0.00  0.00    +0.000 Cl
ATOM     21 CL   UNL     1      -7.956  -1.181 -50.745  0.00  0.00    +0.000 Cl
ATOM     22  C   UNL     1      -7.129  -2.831 -52.786  0.00  0.00    +0.000 A 
ATOM     23  C   UNL     1      -6.919  -3.047 -54.160  0.00  0.00    +0.000 A 
ATOM     24  C   UNL     1      -7.676  -1.589 -52.401  0.00  0.00    +0.000 A 
ATOM     25  C   UNL     1      -7.306  -2.098 -55.113  0.00  0.00    +0.000 A 
ATOM     26  C   UNL     1      -8.030  -0.631 -53.355  0.00  0.00    +0.000 A 
ATOM     27  C   UNL     1      -7.865  -0.891 -54.711  0.00  0.00    +0.000 A 
ENDBRANCH  19  22
ENDBRANCH  18  19
ENDBRANCH  16  18
ENDBRANCH   4  17
TORSDOF 5
ENDMDL
MODEL 3
REMARK VINA RESULT:      -5.2     23.036     24.802
REMARK  Name = 3625620
REMARK  5 active torsions:
REMARK  status: ('A' for Active; 'I' for Inactive)
REMARK    1  A    between atoms: O_5  and  N_8
REMARK    2  A    between atoms: O_5  and  C_21
REMARK    3  A    between atoms: C_9  and  C_14
REMARK    4  A    between atoms: C_10  and  C_12
REMARK    5  A    between atoms: C_20  and  C_21
REMARK                            x       y       z     vdW  Elec       q    Type
REMARK                         _______ _______ _______ _____ _____    ______ ____
ROOT
ATOM      1  S   UNL     1     -20.913  11.255 -57.516  0.00  0.00    +0.000 S 
ATOM      2  N   UNL     1     -20.372   8.870 -56.717  0.00  0.00    +0.000 N 
ATOM      3  N   UNL     1     -22.124   9.643 -55.573  0.00  0.00    +0.000 NA
ATOM      4  C   UNL     1     -20.732   7.822 -55.900  0.00  0.00    +0.000 A 
ATOM      5  C   UNL     1     -21.791   8.361 -55.153  0.00  0.00    +0.000 A 
ATOM      6  C   UNL     1     -21.248   9.890 -56.498  0.00  0.00    +0.000 A 
ATOM      7  C   UNL     1     -19.410   9.132 -57.672  0.00  0.00    +0.000 A 
ATOM      8  C   UNL     1     -19.549  10.363 -58.197  0.00  0.00    +0.000 A 
ENDROOT
BRANCH   5  10
ATOM      9 CL   UNL     1     -24.679   5.499 -50.775  0.00  0.00    +0.000 Cl
ATOM     10  C   UNL     1     -22.534   7.738 -54.065  0.00  0.00    +0.000 A 
ATOM     11  C   UNL     1     -23.499   6.770 -54.374  0.00  0.00    +0.000 A 
ATOM     12  C   UNL     1     -22.299   8.054 -52.719  0.00  0.00    +0.000 A 
ATOM     13  C   UNL     1     -24.190   6.103 -53.359  0.00  0.00    +0.000 A 
ATOM     14  C   UNL     1     -22.960   7.360 -51.701  0.00  0.00    +0.000 A 
ATOM     15  C   UNL     1     -23.899   6.385 -52.026  0.00  0.00    +0.000 A 
ENDBRANCH   5  10
BRANCH   4  17
ATOM     16  N   UNL     1     -20.228   5.568 -56.778  0.00  0.00    +0.000 NA
ATOM     17  C   UNL     1     -20.083   6.533 -55.916  0.00  0.00    +0.000 C 
BRANCH  16  18
ATOM     18  O   UNL     1     -21.089   5.947 -57.814  0.00  0.00    +0.000 OA
BRANCH  18  19
ATOM     19  C   UNL     1     -21.884   4.862 -58.286  0.00  0.00    +0.000 C 
BRANCH  19  22
ATOM     20 CL   UNL     1     -23.381   7.592 -58.796  0.00  0.00    +0.000 Cl
ATOM     21 CL   UNL     1     -22.980   2.643 -56.428  0.00  0.00    +0.000 Cl
ATOM     22  C   UNL     1     -23.238   5.086 -57.669  0.00  0.00    +0.000 A 
ATOM     23  C   UNL     1     -24.019   6.216 -57.970  0.00  0.00    +0.000 A 
ATOM     24  C   UNL     1     -23.837   4.070 -56.896  0.00  0.00    +0.000 A 
ATOM     25  C   UNL     1     -25.362   6.295 -57.584  0.00  0.00    +0.000 A 
ATOM     26  C   UNL     1     -25.168   4.169 -56.484  0.00  0.00    +0.000 A 
ATOM     27  C   UNL     1     -25.938   5.270 -56.843  0.00  0.00    +0.000 A 
ENDBRANCH  19  22
ENDBRANCH  18  19
ENDBRANCH  16  18
ENDBRANCH   4  17
TORSDOF 5
ENDMDL
MODEL 4
REMARK VINA RESULT:      -5.2     22.727     24.792
REMARK  Name = 3625620
REMARK  5 active torsions:
REMARK  status: ('A' for Active; 'I' for Inactive)
REMARK    1  A    between atoms: O_5  and  N_8
REMARK    2  A    between atoms: O_5  and  C_21
REMARK    3  A    between atoms: C_9  and  C_14
REMARK    4  A    between atoms: C_10  and  C_12
REMARK    5  A    between atoms: C_20  and  C_21
REMARK                            x       y       z     vdW  Elec       q    Type
REMARK                         _______ _______ _______ _____ _____    ______ ____
ROOT
ATOM      1  S   UNL     1     -18.572   7.964 -56.687  0.00  0.00    +0.000 S 
ATOM      2  N   UNL     1     -20.851   6.782 -56.850  0.00  0.00    +0.000 N 
ATOM      3  N   UNL     1     -20.645   7.693 -54.825  0.00  0.00    +0.000 NA
ATOM      4  C   UNL     1     -22.047   6.499 -56.228  0.00  0.00    +0.000 A 
ATOM      5  C   UNL     1     -21.860   7.028 -54.942  0.00  0.00    +0.000 A 
ATOM      6  C   UNL     1     -20.092   7.510 -55.985  0.00  0.00    +0.000 A 
ATOM      7  C   UNL     1     -20.261   6.547 -58.076  0.00  0.00    +0.000 A 
ATOM      8  C   UNL     1     -19.039   7.103 -58.157  0.00  0.00    +0.000 A 
ENDROOT
BRANCH   5  10
ATOM      9 CL   UNL     1     -25.462   6.431 -50.213  0.00  0.00    +0.000 Cl
ATOM     10  C   UNL     1     -22.765   6.964 -53.802  0.00  0.00    +0.000 A 
ATOM     11  C   UNL     1     -23.851   6.079 -53.851  0.00  0.00    +0.000 A 
ATOM     12  C   UNL     1     -22.574   7.738 -52.647  0.00  0.00    +0.000 A 
ATOM     13  C   UNL     1     -24.708   5.940 -52.757  0.00  0.00    +0.000 A 
ATOM     14  C   UNL     1     -23.407   7.570 -51.536  0.00  0.00    +0.000 A 
ATOM     15  C   UNL     1     -24.467   6.670 -51.595  0.00  0.00    +0.000 A 
ENDBRANCH   5  10
BRANCH   4  17
ATOM     16  N   UNL     1     -24.073   6.314 -57.632  0.00  0.00    +0.000 NA
ATOM     17  C   UNL     1     -23.142   5.812 -56.871  0.00  0.00    +0.000 C 
BRANCH  16  18
ATOM     18  O   UNL     1     -23.860   7.680 -57.848  0.00  0.00    +0.000 OA
BRANCH  18  19
ATOM     19  C   UNL     1     -25.048   8.450 -57.673  0.00  0.00    +0.000 C 
BRANCH  19  22
ATOM     20 CL   UNL     1     -22.668  10.307 -56.755  0.00  0.00    +0.000 Cl
ATOM     21 CL   UNL     1     -27.216   7.386 -55.739  0.00  0.00    +0.000 Cl
ATOM     22  C   UNL     1     -24.988   8.919 -56.245  0.00  0.00    +0.000 A 
ATOM     23  C   UNL     1     -24.039   9.860 -55.806  0.00  0.00    +0.000 A 
ATOM     24  C   UNL     1     -26.006   8.553 -55.339  0.00  0.00    +0.000 A 
ATOM     25  C   UNL     1     -24.144  10.465 -54.548  0.00  0.00    +0.000 A 
ATOM     26  C   UNL     1     -26.086   9.136 -54.072  0.00  0.00    +0.000 A 
ATOM     27  C   UNL     1     -25.169  10.106 -53.682  0.00  0.00    +0.000 A 
ENDBRANCH  19  22
ENDBRANCH  18  19
ENDBRANCH  16  18
ENDBRANCH   4  17
TORSDOF 5
ENDMDL
MODEL 5
REMARK VINA RESULT:      -5.1     24.319     26.545
REMARK  Name = 3625620
REMARK  5 active torsions:
REMARK  status: ('A' for Active; 'I' for Inactive)
REMARK    1  A    between atoms: O_5  and  N_8
REMARK    2  A    between atoms: O_5  and  C_21
REMARK    3  A    between atoms: C_9  and  C_14
REMARK    4  A    between atoms: C_10  and  C_12
REMARK    5  A    between atoms: C_20  and  C_21
REMARK                            x       y       z     vdW  Elec       q    Type
REMARK                         _______ _______ _______ _____ _____    ______ ____
ROOT
ATOM      1  S   UNL     1     -17.558  14.271 -59.579  0.00  0.00    +0.000 S 
ATOM      2  N   UNL     1     -16.148  12.120 -59.544  0.00  0.00    +0.000 N 
ATOM      3  N   UNL     1     -15.205  13.589 -60.933  0.00  0.00    +0.000 NA
ATOM      4  C   UNL     1     -15.011  11.484 -59.990  0.00  0.00    +0.000 A 
ATOM      5  C   UNL     1     -14.478  12.404 -60.904  0.00  0.00    +0.000 A 
ATOM      6  C   UNL     1     -16.182  13.359 -60.110  0.00  0.00    +0.000 A 
ATOM      7  C   UNL     1     -17.202  11.846 -58.695  0.00  0.00    +0.000 A 
ATOM      8  C   UNL     1     -18.052  12.885 -58.601  0.00  0.00    +0.000 A 
ENDROOT
BRANCH   5  10
ATOM      9 CL   UNL     1      -9.513  11.602 -64.129  0.00  0.00    +0.000 Cl
ATOM     10  C   UNL     1     -13.306  12.251 -61.755  0.00  0.00    +0.000 A 
ATOM     11  C   UNL     1     -12.115  12.892 -61.386  0.00  0.00    +0.000 A 
ATOM     12  C   UNL     1     -13.319  11.466 -62.918  0.00  0.00    +0.000 A 
ATOM     13  C   UNL     1     -10.950  12.722 -62.139  0.00  0.00    +0.000 A 
ATOM     14  C   UNL     1     -12.145  11.263 -63.650  0.00  0.00    +0.000 A 
ATOM     15  C   UNL     1     -10.966  11.888 -63.254  0.00  0.00    +0.000 A 
ENDBRANCH   5  10
BRANCH   4  17
ATOM     16  N   UNL     1     -13.817   9.884 -58.532  0.00  0.00    +0.000 NA
ATOM     17  C   UNL     1     -14.594  10.178 -59.535  0.00  0.00    +0.000 C 
BRANCH  16  18
ATOM     18  O   UNL     1     -13.448  11.036 -57.830  0.00  0.00    +0.000 OA
BRANCH  18  19
ATOM     19  C   UNL     1     -12.080  11.383 -58.035  0.00  0.00    +0.000 C 
BRANCH  19  22
ATOM     20 CL   UNL     1     -12.833  14.437 -58.292  0.00  0.00    +0.000 Cl
ATOM     21 CL   UNL     1     -10.537  10.211 -55.623  0.00  0.00    +0.000 Cl
ATOM     22  C   UNL     1     -11.753  12.321 -56.905  0.00  0.00    +0.000 A 
ATOM     23  C   UNL     1     -12.187  13.659 -56.893  0.00  0.00    +0.000 A 
ATOM     24  C   UNL     1     -11.143  11.826 -55.733  0.00  0.00    +0.000 A 
ATOM     25  C   UNL     1     -12.087  14.445 -55.739  0.00  0.00    +0.000 A 
ATOM     26  C   UNL     1     -11.015  12.627 -54.595  0.00  0.00    +0.000 A 
ATOM     27  C   UNL     1     -11.504  13.929 -54.589  0.00  0.00    +0.000 A 
ENDBRANCH  19  22
ENDBRANCH  18  19
ENDBRANCH  16  18
ENDBRANCH   4  17
TORSDOF 5
ENDMDL
MODEL 6
REMARK VINA RESULT:      -5.0     26.200     28.597
REMARK  Name = 3625620
REMARK  5 active torsions:
REMARK  status: ('A' for Active; 'I' for Inactive)
REMARK    1  A    between atoms: O_5  and  N_8
REMARK    2  A    between atoms: O_5  and  C_21
REMARK    3  A    between atoms: C_9  and  C_14
REMARK    4  A    between atoms: C_10  and  C_12
REMARK    5  A    between atoms: C_20  and  C_21
REMARK                            x       y       z     vdW  Elec       q    Type
REMARK                         _______ _______ _______ _____ _____    ______ ____
ROOT
ATOM      1  S   UNL     1      -8.573  12.760 -64.719  0.00  0.00    +0.000 S 
ATOM      2  N   UNL     1     -10.886  11.895 -64.002  0.00  0.00    +0.000 N 
ATOM      3  N   UNL     1      -9.705  12.415 -62.183  0.00  0.00    +0.000 NA
ATOM      4  C   UNL     1     -11.748  11.649 -62.956  0.00  0.00    +0.000 A 
ATOM      5  C   UNL     1     -10.957  11.924 -61.831  0.00  0.00    +0.000 A 
ATOM      6  C   UNL     1      -9.722  12.371 -63.480  0.00  0.00    +0.000 A 
ATOM      7  C   UNL     1     -10.906  11.807 -65.380  0.00  0.00    +0.000 A 
ATOM      8  C   UNL     1      -9.749  12.224 -65.924  0.00  0.00    +0.000 A 
ENDROOT
BRANCH   5  10
ATOM      9 CL   UNL     1     -12.289  10.953 -56.088  0.00  0.00    +0.000 Cl
ATOM     10  C   UNL     1     -11.307  11.770 -60.425  0.00  0.00    +0.000 A 
ATOM     11  C   UNL     1     -12.362  10.913 -60.082  0.00  0.00    +0.000 A 
ATOM     12  C   UNL     1     -10.610  12.430 -59.401  0.00  0.00    +0.000 A 
ATOM     13  C   UNL     1     -12.691  10.688 -58.743  0.00  0.00    +0.000 A 
ATOM     14  C   UNL     1     -10.912  12.175 -58.060  0.00  0.00    +0.000 A 
ATOM     15  C   UNL     1     -11.948  11.302 -57.738  0.00  0.00    +0.000 A 
ENDBRANCH   5  10
BRANCH   4  17
ATOM     16  N   UNL     1     -14.201  11.929 -63.077  0.00  0.00    +0.000 NA
ATOM     17  C   UNL     1     -13.114  11.213 -63.129  0.00  0.00    +0.000 C 
BRANCH  16  18
ATOM     18  O   UNL     1     -13.901  13.283 -62.894  0.00  0.00    +0.000 OA
BRANCH  18  19
ATOM     19  C   UNL     1     -14.943  13.985 -62.220  0.00  0.00    +0.000 C 
BRANCH  19  22
ATOM     20 CL   UNL     1     -12.425  15.608 -61.230  0.00  0.00    +0.000 Cl
ATOM     21 CL   UNL     1     -16.600  12.131 -60.379  0.00  0.00    +0.000 Cl
ATOM     22  C   UNL     1     -14.557  13.933 -60.766  0.00  0.00    +0.000 A 
ATOM     23  C   UNL     1     -13.537  14.742 -60.234  0.00  0.00    +0.000 A 
ATOM     24  C   UNL     1     -15.336  13.187 -59.857  0.00  0.00    +0.000 A 
ATOM     25  C   UNL     1     -13.351  14.861 -58.852  0.00  0.00    +0.000 A 
ATOM     26  C   UNL     1     -15.124  13.285 -58.480  0.00  0.00    +0.000 A 
ATOM     27  C   UNL     1     -14.147  14.136 -57.974  0.00  0.00    +0.000 A 
ENDBRANCH  19  22
ENDBRANCH  18  19
ENDBRANCH  16  18
ENDBRANCH   4  17
TORSDOF 5
ENDMDL
MODEL 7
REMARK VINA RESULT:      -5.0     17.096     20.369
REMARK  Name = 3625620
REMARK  5 active torsions:
REMARK  status: ('A' for Active; 'I' for Inactive)
REMARK    1  A    between atoms: O_5  and  N_8
REMARK    2  A    between atoms: O_5  and  C_21
REMARK    3  A    between atoms: C_9  and  C_14
REMARK    4  A    between atoms: C_10  and  C_12
REMARK    5  A    between atoms: C_20  and  C_21
REMARK                            x       y       z     vdW  Elec       q    Type
REMARK                         _______ _______ _______ _____ _____    ______ ____
ROOT
ATOM      1  S   UNL     1      -5.273  -5.974 -52.693  0.00  0.00    +0.000 S 
ATOM      2  N   UNL     1      -6.883  -4.262 -51.649  0.00  0.00    +0.000 N 
ATOM      3  N   UNL     1      -6.355  -5.795 -50.117  0.00  0.00    +0.000 NA
ATOM      4  C   UNL     1      -7.542  -3.847 -50.513  0.00  0.00    +0.000 A 
ATOM      5  C   UNL     1      -7.241  -4.862 -49.592  0.00  0.00    +0.000 A 
ATOM      6  C   UNL     1      -6.183  -5.388 -51.338  0.00  0.00    +0.000 A 
ATOM      7  C   UNL     1      -6.740  -3.837 -52.955  0.00  0.00    +0.000 A 
ATOM      8  C   UNL     1      -5.918  -4.639 -53.654  0.00  0.00    +0.000 A 
ENDROOT
BRANCH   5  10
ATOM      9 CL   UNL     1      -9.245  -5.115 -43.969  0.00  0.00    +0.000 Cl
ATOM     10  C   UNL     1      -7.725  -5.010 -48.225  0.00  0.00    +0.000 A 
ATOM     11  C   UNL     1      -6.931  -4.534 -47.173  0.00  0.00    +0.000 A 
ATOM     12  C   UNL     1      -8.968  -5.589 -47.927  0.00  0.00    +0.000 A 
ATOM     13  C   UNL     1      -7.383  -4.599 -45.852  0.00  0.00    +0.000 A 
ATOM     14  C   UNL     1      -9.439  -5.618 -46.611  0.00  0.00    +0.000 A 
ATOM     15  C   UNL     1      -8.646  -5.120 -45.581  0.00  0.00    +0.000 A 
ENDBRANCH   5  10
BRANCH   4  17
ATOM     16  N   UNL     1      -7.901  -1.402 -50.468  0.00  0.00    +0.000 NA
ATOM     17  C   UNL     1      -8.322  -2.634 -50.435  0.00  0.00    +0.000 C 
BRANCH  16  18
ATOM     18  O   UNL     1      -6.518  -1.350 -50.673  0.00  0.00    +0.000 OA
BRANCH  18  19
ATOM     19  C   UNL     1      -6.086  -0.080 -51.156  0.00  0.00    +0.000 C 
BRANCH  19  22
ATOM     20 CL   UNL     1      -7.872  -0.168 -53.756  0.00  0.00    +0.000 Cl
ATOM     21 CL   UNL     1      -3.063  -0.742 -51.149  0.00  0.00    +0.000 Cl
ATOM     22  C   UNL     1      -5.442  -0.378 -52.484  0.00  0.00    +0.000 A 
ATOM     23  C   UNL     1      -6.151  -0.292 -53.695  0.00  0.00    +0.000 A 
ATOM     24  C   UNL     1      -4.049  -0.586 -52.560  0.00  0.00    +0.000 A 
ATOM     25  C   UNL     1      -5.490  -0.334 -54.928  0.00  0.00    +0.000 A 
ATOM     26  C   UNL     1      -3.399  -0.661 -53.794  0.00  0.00    +0.000 A 
ATOM     27  C   UNL     1      -4.114  -0.515 -54.979  0.00  0.00    +0.000 A 
ENDBRANCH  19  22
ENDBRANCH  18  19
ENDBRANCH  16  18
ENDBRANCH   4  17
TORSDOF 5
ENDMDL
MODEL 8
REMARK VINA RESULT:      -4.9     22.428     24.589
REMARK  Name = 3625620
REMARK  5 active torsions:
REMARK  status: ('A' for Active; 'I' for Inactive)
REMARK    1  A    between atoms: O_5  and  N_8
REMARK    2  A    between atoms: O_5  and  C_21
REMARK    3  A    between atoms: C_9  and  C_14
REMARK    4  A    between atoms: C_10  and  C_12
REMARK    5  A    between atoms: C_20  and  C_21
REMARK                            x       y       z     vdW  Elec       q    Type
REMARK                         _______ _______ _______ _____ _____    ______ ____
ROOT
ATOM      1  S   UNL     1     -13.767  12.276 -60.850  0.00  0.00    +0.000 S 
ATOM      2  N   UNL     1     -12.888  11.722 -58.498  0.00  0.00    +0.000 N 
ATOM      3  N   UNL     1     -12.835  13.931 -58.794  0.00  0.00    +0.000 NA
ATOM      4  C   UNL     1     -12.428  12.214 -57.297  0.00  0.00    +0.000 A 
ATOM      5  C   UNL     1     -12.347  13.594 -57.537  0.00  0.00    +0.000 A 
ATOM      6  C   UNL     1     -13.137  12.782 -59.316  0.00  0.00    +0.000 A 
ATOM      7  C   UNL     1     -13.168  10.488 -59.052  0.00  0.00    +0.000 A 
ATOM      8  C   UNL     1     -13.642  10.600 -60.306  0.00  0.00    +0.000 A 
ENDROOT
BRANCH   5  10
ATOM      9 CL   UNL     1     -10.438  18.105 -54.117  0.00  0.00    +0.000 Cl
ATOM     10  C   UNL     1     -11.849  14.635 -56.648  0.00  0.00    +0.000 A 
ATOM     11  C   UNL     1     -10.835  15.487 -57.108  0.00  0.00    +0.000 A 
ATOM     12  C   UNL     1     -12.366  14.831 -55.359  0.00  0.00    +0.000 A 
ATOM     13  C   UNL     1     -10.372  16.538 -56.312  0.00  0.00    +0.000 A 
ATOM     14  C   UNL     1     -11.931  15.906 -54.577  0.00  0.00    +0.000 A 
ATOM     15  C   UNL     1     -10.940  16.756 -55.059  0.00  0.00    +0.000 A 
ENDBRANCH   5  10
BRANCH   4  17
ATOM     16  N   UNL     1     -10.997  11.214 -55.547  0.00  0.00    +0.000 NA
ATOM     17  C   UNL     1     -12.139  11.387 -56.149  0.00  0.00    +0.000 C 
BRANCH  16  18
ATOM     18  O   UNL     1     -10.005  12.022 -56.113  0.00  0.00    +0.000 OA
BRANCH  18  19
ATOM     19  C   UNL     1      -8.761  11.921 -55.423  0.00  0.00    +0.000 C 
BRANCH  19  22
ATOM     20 CL   UNL     1     -10.014  13.231 -52.840  0.00  0.00    +0.000 Cl
ATOM     21 CL   UNL     1      -6.944  13.461 -57.398  0.00  0.00    +0.000 Cl
ATOM     22  C   UNL     1      -8.407  13.341 -55.070  0.00  0.00    +0.000 A 
ATOM     23  C   UNL     1      -8.815  13.936 -53.863  0.00  0.00    +0.000 A 
ATOM     24  C   UNL     1      -7.501  14.061 -55.876  0.00  0.00    +0.000 A 
ATOM     25  C   UNL     1      -8.283  15.160 -53.440  0.00  0.00    +0.000 A 
ATOM     26  C   UNL     1      -7.000  15.299 -55.464  0.00  0.00    +0.000 A 
ATOM     27  C   UNL     1      -7.373  15.840 -54.239  0.00  0.00    +0.000 A 
ENDBRANCH  19  22
ENDBRANCH  18  19
ENDBRANCH  16  18
ENDBRANCH   4  17
TORSDOF 5
ENDMDL
MODEL 9
REMARK VINA RESULT:      -4.9     19.472     22.012
REMARK  Name = 3625620
REMARK  5 active torsions:
REMARK  status: ('A' for Active; 'I' for Inactive)
REMARK    1  A    between atoms: O_5  and  N_8
REMARK    2  A    between atoms: O_5  and  C_21
REMARK    3  A    between atoms: C_9  and  C_14
REMARK    4  A    between atoms: C_10  and  C_12
REMARK    5  A    between atoms: C_20  and  C_21
REMARK                            x       y       z     vdW  Elec       q    Type
REMARK                         _______ _______ _______ _____ _____    ______ ____
ROOT
ATOM      1  S   UNL     1      -4.934  -4.079 -49.751  0.00  0.00    +0.000 S 
ATOM      2  N   UNL     1      -6.626  -2.816 -51.220  0.00  0.00    +0.000 N 
ATOM      3  N   UNL     1      -4.850  -1.513 -50.869  0.00  0.00    +0.000 NA
ATOM      4  C   UNL     1      -6.898  -1.672 -51.937  0.00  0.00    +0.000 A 
ATOM      5  C   UNL     1      -5.796  -0.854 -51.645  0.00  0.00    +0.000 A 
ATOM      6  C   UNL     1      -5.400  -2.669 -50.647  0.00  0.00    +0.000 A 
ATOM      7  C   UNL     1      -7.241  -4.026 -50.963  0.00  0.00    +0.000 A 
ATOM      8  C   UNL     1      -6.478  -4.819 -50.189  0.00  0.00    +0.000 A 
ENDROOT
BRANCH   5  10
ATOM      9 CL   UNL     1      -4.479   4.712 -53.373  0.00  0.00    +0.000 Cl
ATOM     10  C   UNL     1      -5.560   0.521 -52.064  0.00  0.00    +0.000 A 
ATOM     11  C   UNL     1      -4.849   1.375 -51.208  0.00  0.00    +0.000 A 
ATOM     12  C   UNL     1      -5.996   1.014 -53.302  0.00  0.00    +0.000 A 
ATOM     13  C   UNL     1      -4.546   2.682 -51.596  0.00  0.00    +0.000 A 
ATOM     14  C   UNL     1      -5.659   2.309 -53.709  0.00  0.00    +0.000 A 
ATOM     15  C   UNL     1      -4.933   3.135 -52.855  0.00  0.00    +0.000 A 
ENDBRANCH   5  10
BRANCH   4  17
ATOM     16  N   UNL     1      -8.232  -1.772 -54.015  0.00  0.00    +0.000 NA
ATOM     17  C   UNL     1      -8.077  -1.497 -52.752  0.00  0.00    +0.000 C 
BRANCH  16  18
ATOM     18  O   UNL     1      -7.082  -2.368 -54.543  0.00  0.00    +0.000 OA
BRANCH  18  19
ATOM     19  C   UNL     1      -6.712  -1.815 -55.804  0.00  0.00    +0.000 C 
BRANCH  19  22
ATOM     20 CL   UNL     1      -7.480  -4.208 -57.713  0.00  0.00    +0.000 Cl
ATOM     21 CL   UNL     1      -3.837  -1.320 -54.773  0.00  0.00    +0.000 Cl
ATOM     22  C   UNL     1      -5.629  -2.727 -56.315  0.00  0.00    +0.000 A 
ATOM     23  C   UNL     1      -5.881  -3.721 -57.278  0.00  0.00    +0.000 A 
ATOM     24  C   UNL     1      -4.284  -2.490 -55.964  0.00  0.00    +0.000 A 
ATOM     25  C   UNL     1      -4.834  -4.395 -57.918  0.00  0.00    +0.000 A 
ATOM     26  C   UNL     1      -3.245  -3.189 -56.582  0.00  0.00    +0.000 A 
ATOM     27  C   UNL     1      -3.516  -4.127 -57.573  0.00  0.00    +0.000 A 
ENDBRANCH  19  22
ENDBRANCH  18  19
ENDBRANCH  16  18
ENDBRANCH   4  17
TORSDOF 5
ENDMDL
MODEL 10
REMARK VINA RESULT:      -4.9     16.931     18.818
REMARK  Name = 3625620
REMARK  5 active torsions:
REMARK  status: ('A' for Active; 'I' for Inactive)
REMARK    1  A    between atoms: O_5  and  N_8
REMARK    2  A    between atoms: O_5  and  C_21
REMARK    3  A    between atoms: C_9  and  C_14
REMARK    4  A    between atoms: C_10  and  C_12
REMARK    5  A    between atoms: C_20  and  C_21
REMARK                            x       y       z     vdW  Elec       q    Type
REMARK                         _______ _______ _______ _____ _____    ______ ____
ROOT
ATOM      1  S   UNL     1       4.070   4.962 -36.279  0.00  0.00    +0.000 S 
ATOM      2  N   UNL     1       5.897   4.736 -34.483  0.00  0.00    +0.000 N 
ATOM      3  N   UNL     1       4.064   3.668 -33.796  0.00  0.00    +0.000 NA
ATOM      4  C   UNL     1       6.257   4.190 -33.270  0.00  0.00    +0.000 A 
ATOM      5  C   UNL     1       5.068   3.582 -32.840  0.00  0.00    +0.000 A 
ATOM      6  C   UNL     1       4.613   4.364 -34.744  0.00  0.00    +0.000 A 
ATOM      7  C   UNL     1       6.484   5.509 -35.465  0.00  0.00    +0.000 A 
ATOM      8  C   UNL     1       5.646   5.730 -36.494  0.00  0.00    +0.000 A 
ENDROOT
BRANCH   5  10
ATOM      9 CL   UNL     1       3.721   0.992 -27.627  0.00  0.00    +0.000 Cl
ATOM     10  C   UNL     1       4.811   2.902 -31.577  0.00  0.00    +0.000 A 
ATOM     11  C   UNL     1       4.859   3.644 -30.389  0.00  0.00    +0.000 A 
ATOM     12  C   UNL     1       4.493   1.538 -31.510  0.00  0.00    +0.000 A 
ATOM     13  C   UNL     1       4.558   3.047 -29.162  0.00  0.00    +0.000 A 
ATOM     14  C   UNL     1       4.153   0.948 -30.289  0.00  0.00    +0.000 A 
ATOM     15  C   UNL     1       4.183   1.706 -29.122  0.00  0.00    +0.000 A 
ENDBRANCH   5  10
BRANCH   4  17
ATOM     16  N   UNL     1       8.075   5.274 -31.994  0.00  0.00    +0.000 NA
ATOM     17  C   UNL     1       7.580   4.300 -32.702  0.00  0.00    +0.000 C 
BRANCH  16  18
ATOM     18  O   UNL     1       7.109   6.257 -31.750  0.00  0.00    +0.000 OA
BRANCH  18  19
ATOM     19  C   UNL     1       7.653   7.405 -31.103  0.00  0.00    +0.000 C 
BRANCH  19  22
ATOM     20 CL   UNL     1       7.048   5.757 -28.481  0.00  0.00    +0.000 Cl
ATOM     21 CL   UNL     1       6.001   9.871 -31.978  0.00  0.00    +0.000 Cl
ATOM     22  C   UNL     1       6.562   7.869 -30.175  0.00  0.00    +0.000 A 
ATOM     23  C   UNL     1       6.337   7.266 -28.925  0.00  0.00    +0.000 A 
ATOM     24  C   UNL     1       5.843   9.047 -30.468  0.00  0.00    +0.000 A 
ATOM     25  C   UNL     1       5.490   7.853 -27.977  0.00  0.00    +0.000 A 
ATOM     26  C   UNL     1       4.973   9.609 -29.530  0.00  0.00    +0.000 A 
ATOM     27  C   UNL     1       4.810   9.026 -28.278  0.00  0.00    +0.000 A 
ENDBRANCH  19  22
ENDBRANCH  18  19
ENDBRANCH  16  18
ENDBRANCH   4  17
TORSDOF 5
ENDMDL
