REMARK  Name = 3632506
REMARK  5 active torsions:
REMARK  status: ('A' for Active; 'I' for Inactive)
REMARK    1  A    between atoms: O_5  and  N_8
REMARK    2  A    between atoms: O_5  and  C_21
REMARK    3  A    between atoms: C_9  and  C_14
REMARK    4  A    between atoms: C_10  and  C_12
REMARK    5  A    between atoms: C_20  and  C_21
REMARK                            x       y       z     vdW  Elec       q    Type
REMARK                         _______ _______ _______ _____ _____    ______ ____
ROOT
ATOM      1  S   UNL     1       7.292   0.790   1.613  0.00  0.00    +0.000 S 
ATOM      2  N   UNL     1       6.032  -0.265  -0.373  0.00  0.00    +0.000 N 
ATOM      3  N   UNL     1       4.555   0.543   1.098  0.00  0.00    +0.000 NA
ATOM      4  C   UNL     1       4.801  -0.542  -0.928  0.00  0.00    +0.000 A 
ATOM      5  C   UNL     1       3.904  -0.039   0.025  0.00  0.00    +0.000 A 
ATOM      6  C   UNL     1       5.810   0.359   0.819  0.00  0.00    +0.000 A 
ATOM      7  C   UNL     1       7.367  -0.393  -0.703  0.00  0.00    +0.000 A 
ATOM      8  C   UNL     1       8.176   0.096   0.252  0.00  0.00    +0.000 A 
ENDROOT
BRANCH   5  10
ATOM      9 CL   UNL     1      -2.077  -0.060  -0.023  0.00  0.00    +0.000 Cl
ATOM     10  C   UNL     1       2.448  -0.058  -0.032  0.00  0.00    +0.000 A 
ATOM     11  C   UNL     1       1.733   1.023   0.505  0.00  0.00    +0.000 A 
ATOM     12  C   UNL     1       1.736  -1.148  -0.551  0.00  0.00    +0.000 A 
ATOM     13  C   UNL     1       0.335   1.028   0.507  0.00  0.00    +0.000 A 
ATOM     14  C   UNL     1       0.337  -1.142  -0.557  0.00  0.00    +0.000 A 
ATOM     15  C   UNL     1      -0.357  -0.055  -0.029  0.00  0.00    +0.000 A 
ENDBRANCH   5  10
BRANCH   4  17
ATOM     16  N   UNL     1       5.132  -2.026  -2.885  0.00  0.00    +0.000 NA
ATOM     17  C   UNL     1       4.514  -1.090  -2.227  0.00  0.00    +0.000 C 
BRANCH  16  18
ATOM     18  O   UNL     1       6.146  -2.640  -2.145  0.00  0.00    +0.000 OA
BRANCH  18  19
ATOM     19  C   UNL     1       6.840  -3.573  -2.977  0.00  0.00    +0.000 C 
BRANCH  19  22
ATOM     20 CL   UNL     1       9.799  -2.933  -2.099  0.00  0.00    +0.000 Cl
ATOM     21 CL   UNL     1       9.495  -7.381   0.870  0.00  0.00    +0.000 Cl
ATOM     22  C   UNL     1       7.567  -4.526  -2.064  0.00  0.00    +0.000 A 
ATOM     23  C   UNL     1       8.870  -4.297  -1.597  0.00  0.00    +0.000 A 
ATOM     24  C   UNL     1       6.871  -5.653  -1.598  0.00  0.00    +0.000 A 
ATOM     25  C   UNL     1       9.468  -5.182  -0.694  0.00  0.00    +0.000 A 
ATOM     26  C   UNL     1       7.467  -6.540  -0.696  0.00  0.00    +0.000 A 
ATOM     27  C   UNL     1       8.762  -6.296  -0.250  0.00  0.00    +0.000 A 
ENDBRANCH  19  22
ENDBRANCH  18  19
ENDBRANCH  16  18
ENDBRANCH   4  17
TORSDOF 5
