MODEL 1
REMARK VINA RESULT:      -6.8      0.000      0.000
REMARK  Name = 3632506
REMARK  5 active torsions:
REMARK  status: ('A' for Active; 'I' for Inactive)
REMARK    1  A    between atoms: O_5  and  N_8
REMARK    2  A    between atoms: O_5  and  C_21
REMARK    3  A    between atoms: C_9  and  C_14
REMARK    4  A    between atoms: C_10  and  C_12
REMARK    5  A    between atoms: C_20  and  C_21
REMARK                            x       y       z     vdW  Elec       q    Type
REMARK                         _______ _______ _______ _____ _____    ______ ____
ROOT
ATOM      1  S   UNL     1      17.318   8.103  20.946  0.00  0.00    +0.000 S 
ATOM      2  N   UNL     1      14.822   7.627  21.382  0.00  0.00    +0.000 N 
ATOM      3  N   UNL     1      15.240   9.792  21.751  0.00  0.00    +0.000 NA
ATOM      4  C   UNL     1      13.605   8.159  21.750  0.00  0.00    +0.000 A 
ATOM      5  C   UNL     1      13.907   9.507  21.989  0.00  0.00    +0.000 A 
ATOM      6  C   UNL     1      15.736   8.639  21.418  0.00  0.00    +0.000 A 
ATOM      7  C   UNL     1      15.336   6.418  20.956  0.00  0.00    +0.000 A 
ATOM      8  C   UNL     1      16.653   6.486  20.702  0.00  0.00    +0.000 A 
ENDROOT
BRANCH   5  10
ATOM      9 CL   UNL     1      10.145  13.743  23.906  0.00  0.00    +0.000 Cl
ATOM     10  C   UNL     1      12.992  10.558  22.413  0.00  0.00    +0.000 A 
ATOM     11  C   UNL     1      13.211  11.193  23.645  0.00  0.00    +0.000 A 
ATOM     12  C   UNL     1      11.866  10.916  21.659  0.00  0.00    +0.000 A 
ATOM     13  C   UNL     1      12.335  12.179  24.109  0.00  0.00    +0.000 A 
ATOM     14  C   UNL     1      10.993  11.908  22.117  0.00  0.00    +0.000 A 
ATOM     15  C   UNL     1      11.231  12.535  23.339  0.00  0.00    +0.000 A 
ENDBRANCH   5  10
BRANCH   4  17
ATOM     16  N   UNL     1      11.547   7.199  20.756  0.00  0.00    +0.000 NA
ATOM     17  C   UNL     1      12.318   7.515  21.754  0.00  0.00    +0.000 C 
BRANCH  16  18
ATOM     18  O   UNL     1      12.138   7.433  19.511  0.00  0.00    +0.000 OA
BRANCH  18  19
ATOM     19  C   UNL     1      11.488   8.539  18.879  0.00  0.00    +0.000 C 
BRANCH  19  22
ATOM     20 CL   UNL     1      10.603   8.823  15.868  0.00  0.00    +0.000 Cl
ATOM     21 CL   UNL     1      15.407  11.043  15.043  0.00  0.00    +0.000 Cl
ATOM     22  C   UNL     1      12.455   9.104  17.871  0.00  0.00    +0.000 A 
ATOM     23  C   UNL     1      12.127   9.298  16.520  0.00  0.00    +0.000 A 
ATOM     24  C   UNL     1      13.712   9.530  18.329  0.00  0.00    +0.000 A 
ATOM     25  C   UNL     1      13.042   9.893  15.645  0.00  0.00    +0.000 A 
ATOM     26  C   UNL     1      14.628  10.124  17.455  0.00  0.00    +0.000 A 
ATOM     27  C   UNL     1      14.284  10.302  16.119  0.00  0.00    +0.000 A 
ENDBRANCH  19  22
ENDBRANCH  18  19
ENDBRANCH  16  18
ENDBRANCH   4  17
TORSDOF 5
ENDMDL
MODEL 2
REMARK VINA RESULT:      -6.8      2.976      4.702
REMARK  Name = 3632506
REMARK  5 active torsions:
REMARK  status: ('A' for Active; 'I' for Inactive)
REMARK    1  A    between atoms: O_5  and  N_8
REMARK    2  A    between atoms: O_5  and  C_21
REMARK    3  A    between atoms: C_9  and  C_14
REMARK    4  A    between atoms: C_10  and  C_12
REMARK    5  A    between atoms: C_20  and  C_21
REMARK                            x       y       z     vdW  Elec       q    Type
REMARK                         _______ _______ _______ _____ _____    ______ ____
ROOT
ATOM      1  S   UNL     1      14.828  11.650  16.210  0.00  0.00    +0.000 S 
ATOM      2  N   UNL     1      13.369   9.869  17.369  0.00  0.00    +0.000 N 
ATOM      3  N   UNL     1      13.679  11.593  18.758  0.00  0.00    +0.000 NA
ATOM      4  C   UNL     1      12.676   9.526  18.510  0.00  0.00    +0.000 A 
ATOM      5  C   UNL     1      12.906  10.617  19.360  0.00  0.00    +0.000 A 
ATOM      6  C   UNL     1      13.942  11.086  17.592  0.00  0.00    +0.000 A 
ATOM      7  C   UNL     1      13.588   9.366  16.102  0.00  0.00    +0.000 A 
ATOM      8  C   UNL     1      14.362  10.175  15.360  0.00  0.00    +0.000 A 
ENDROOT
BRANCH   5  10
ATOM      9 CL   UNL     1      11.064  11.399  24.997  0.00  0.00    +0.000 Cl
ATOM     10  C   UNL     1      12.413  10.801  20.719  0.00  0.00    +0.000 A 
ATOM     11  C   UNL     1      12.905  11.870  21.482  0.00  0.00    +0.000 A 
ATOM     12  C   UNL     1      11.507   9.909  21.311  0.00  0.00    +0.000 A 
ATOM     13  C   UNL     1      12.489  12.061  22.803  0.00  0.00    +0.000 A 
ATOM     14  C   UNL     1      11.083  10.102  22.630  0.00  0.00    +0.000 A 
ATOM     15  C   UNL     1      11.575  11.176  23.369  0.00  0.00    +0.000 A 
ENDBRANCH   5  10
BRANCH   4  17
ATOM     16  N   UNL     1      12.131   7.141  18.907  0.00  0.00    +0.000 NA
ATOM     17  C   UNL     1      11.819   8.390  18.722  0.00  0.00    +0.000 C 
BRANCH  16  18
ATOM     18  O   UNL     1      13.508   6.930  19.021  0.00  0.00    +0.000 OA
BRANCH  18  19
ATOM     19  C   UNL     1      13.850   6.774  20.400  0.00  0.00    +0.000 C 
BRANCH  19  22
ATOM     20 CL   UNL     1      14.908   8.945  22.426  0.00  0.00    +0.000 Cl
ATOM     21 CL   UNL     1      19.820   7.442  20.910  0.00  0.00    +0.000 Cl
ATOM     22  C   UNL     1      15.332   7.020  20.520  0.00  0.00    +0.000 A 
ATOM     23  C   UNL     1      15.886   7.940  21.422  0.00  0.00    +0.000 A 
ATOM     24  C   UNL     1      16.196   6.228  19.746  0.00  0.00    +0.000 A 
ATOM     25  C   UNL     1      17.274   8.074  21.540  0.00  0.00    +0.000 A 
ATOM     26  C   UNL     1      17.584   6.361  19.861  0.00  0.00    +0.000 A 
ATOM     27  C   UNL     1      18.111   7.283  20.759  0.00  0.00    +0.000 A 
ENDBRANCH  19  22
ENDBRANCH  18  19
ENDBRANCH  16  18
ENDBRANCH   4  17
TORSDOF 5
ENDMDL
MODEL 3
REMARK VINA RESULT:      -6.0      3.594      5.592
REMARK  Name = 3632506
REMARK  5 active torsions:
REMARK  status: ('A' for Active; 'I' for Inactive)
REMARK    1  A    between atoms: O_5  and  N_8
REMARK    2  A    between atoms: O_5  and  C_21
REMARK    3  A    between atoms: C_9  and  C_14
REMARK    4  A    between atoms: C_10  and  C_12
REMARK    5  A    between atoms: C_20  and  C_21
REMARK                            x       y       z     vdW  Elec       q    Type
REMARK                         _______ _______ _______ _____ _____    ______ ____
ROOT
ATOM      1  S   UNL     1      18.034  13.334  15.452  0.00  0.00    +0.000 S 
ATOM      2  N   UNL     1      15.938  11.838  15.581  0.00  0.00    +0.000 N 
ATOM      3  N   UNL     1      16.301  12.782  17.575  0.00  0.00    +0.000 NA
ATOM      4  C   UNL     1      14.917  11.368  16.379  0.00  0.00    +0.000 A 
ATOM      5  C   UNL     1      15.186  11.964  17.620  0.00  0.00    +0.000 A 
ATOM      6  C   UNL     1      16.717  12.650  16.352  0.00  0.00    +0.000 A 
ATOM      7  C   UNL     1      16.340  11.758  14.262  0.00  0.00    +0.000 A 
ATOM      8  C   UNL     1      17.451  12.476  14.024  0.00  0.00    +0.000 A 
ENDROOT
BRANCH   5  10
ATOM      9 CL   UNL     1      12.081  11.180  22.671  0.00  0.00    +0.000 Cl
ATOM     10  C   UNL     1      14.426  11.820  18.855  0.00  0.00    +0.000 A 
ATOM     11  C   UNL     1      14.876  10.916  19.828  0.00  0.00    +0.000 A 
ATOM     12  C   UNL     1      13.226  12.510  19.077  0.00  0.00    +0.000 A 
ATOM     13  C   UNL     1      14.157  10.717  21.010  0.00  0.00    +0.000 A 
ATOM     14  C   UNL     1      12.508  12.319  20.262  0.00  0.00    +0.000 A 
ATOM     15  C   UNL     1      12.976  11.424  21.223  0.00  0.00    +0.000 A 
ENDBRANCH   5  10
BRANCH   4  17
ATOM     16  N   UNL     1      13.483   9.349  16.318  0.00  0.00    +0.000 NA
ATOM     17  C   UNL     1      13.783  10.572  15.995  0.00  0.00    +0.000 C 
BRANCH  16  18
ATOM     18  O   UNL     1      14.353   8.802  17.265  0.00  0.00    +0.000 OA
BRANCH  18  19
ATOM     19  C   UNL     1      13.924   7.477  17.592  0.00  0.00    +0.000 C 
BRANCH  19  22
ATOM     20 CL   UNL     1      15.067   6.304  20.286  0.00  0.00    +0.000 Cl
ATOM     21 CL   UNL     1      10.600   8.178  22.573  0.00  0.00    +0.000 Cl
ATOM     22  C   UNL     1      13.104   7.575  18.852  0.00  0.00    +0.000 A 
ATOM     23  C   UNL     1      13.554   7.112  20.098  0.00  0.00    +0.000 A 
ATOM     24  C   UNL     1      11.867   8.235  18.784  0.00  0.00    +0.000 A 
ATOM     25  C   UNL     1      12.778   7.294  21.247  0.00  0.00    +0.000 A 
ATOM     26  C   UNL     1      11.088   8.417  19.932  0.00  0.00    +0.000 A 
ATOM     27  C   UNL     1      11.552   7.945  21.156  0.00  0.00    +0.000 A 
ENDBRANCH  19  22
ENDBRANCH  18  19
ENDBRANCH  16  18
ENDBRANCH   4  17
TORSDOF 5
ENDMDL
MODEL 4
REMARK VINA RESULT:      -6.0     26.625     28.928
REMARK  Name = 3632506
REMARK  5 active torsions:
REMARK  status: ('A' for Active; 'I' for Inactive)
REMARK    1  A    between atoms: O_5  and  N_8
REMARK    2  A    between atoms: O_5  and  C_21
REMARK    3  A    between atoms: C_9  and  C_14
REMARK    4  A    between atoms: C_10  and  C_12
REMARK    5  A    between atoms: C_20  and  C_21
REMARK                            x       y       z     vdW  Elec       q    Type
REMARK                         _______ _______ _______ _____ _____    ______ ____
ROOT
ATOM      1  S   UNL     1      -4.854 -10.681   9.008  0.00  0.00    +0.000 S 
ATOM      2  N   UNL     1      -3.287 -10.498  11.046  0.00  0.00    +0.000 N 
ATOM      3  N   UNL     1      -4.109 -12.574  10.927  0.00  0.00    +0.000 NA
ATOM      4  C   UNL     1      -2.722 -11.159  12.117  0.00  0.00    +0.000 A 
ATOM      5  C   UNL     1      -3.271 -12.445  12.020  0.00  0.00    +0.000 A 
ATOM      6  C   UNL     1      -4.098 -11.386  10.402  0.00  0.00    +0.000 A 
ATOM      7  C   UNL     1      -3.218  -9.257  10.445  0.00  0.00    +0.000 A 
ATOM      8  C   UNL     1      -4.006  -9.174   9.359  0.00  0.00    +0.000 A 
ENDROOT
BRANCH   5  10
ATOM      9 CL   UNL     1      -2.308 -17.224  15.485  0.00  0.00    +0.000 Cl
ATOM     10  C   UNL     1      -3.029 -13.581  12.901  0.00  0.00    +0.000 A 
ATOM     11  C   UNL     1      -2.198 -14.620  12.456  0.00  0.00    +0.000 A 
ATOM     12  C   UNL     1      -3.646 -13.698  14.154  0.00  0.00    +0.000 A 
ATOM     13  C   UNL     1      -1.970 -15.746  13.253  0.00  0.00    +0.000 A 
ATOM     14  C   UNL     1      -3.414 -14.820  14.956  0.00  0.00    +0.000 A 
ATOM     15  C   UNL     1      -2.577 -15.838  14.502  0.00  0.00    +0.000 A 
ENDBRANCH   5  10
BRANCH   4  17
ATOM     16  N   UNL     1      -1.837 -10.269  14.253  0.00  0.00    +0.000 NA
ATOM     17  C   UNL     1      -1.715 -10.681  13.026  0.00  0.00    +0.000 C 
BRANCH  16  18
ATOM     18  O   UNL     1      -3.127 -10.435  14.763  0.00  0.00    +0.000 OA
BRANCH  18  19
ATOM     19  C   UNL     1      -3.054 -10.645  16.175  0.00  0.00    +0.000 C 
BRANCH  19  22
ATOM     20 CL   UNL     1      -3.720 -11.863  19.006  0.00  0.00    +0.000 Cl
ATOM     21 CL   UNL     1      -8.679  -9.987  18.244  0.00  0.00    +0.000 Cl
ATOM     22  C   UNL     1      -4.460 -10.559  16.710  0.00  0.00    +0.000 A 
ATOM     23  C   UNL     1      -4.831 -11.041  17.974  0.00  0.00    +0.000 A 
ATOM     24  C   UNL     1      -5.420  -9.889  15.934  0.00  0.00    +0.000 A 
ATOM     25  C   UNL     1      -6.137 -10.869  18.446  0.00  0.00    +0.000 A 
ATOM     26  C   UNL     1      -6.726  -9.716  16.404  0.00  0.00    +0.000 A 
ATOM     27  C   UNL     1      -7.074 -10.208  17.658  0.00  0.00    +0.000 A 
ENDBRANCH  19  22
ENDBRANCH  18  19
ENDBRANCH  16  18
ENDBRANCH   4  17
TORSDOF 5
ENDMDL
MODEL 5
REMARK VINA RESULT:      -5.8      3.361      5.237
REMARK  Name = 3632506
REMARK  5 active torsions:
REMARK  status: ('A' for Active; 'I' for Inactive)
REMARK    1  A    between atoms: O_5  and  N_8
REMARK    2  A    between atoms: O_5  and  C_21
REMARK    3  A    between atoms: C_9  and  C_14
REMARK    4  A    between atoms: C_10  and  C_12
REMARK    5  A    between atoms: C_20  and  C_21
REMARK                            x       y       z     vdW  Elec       q    Type
REMARK                         _______ _______ _______ _____ _____    ______ ____
ROOT
ATOM      1  S   UNL     1      15.734  13.128  15.890  0.00  0.00    +0.000 S 
ATOM      2  N   UNL     1      14.359  11.014  16.427  0.00  0.00    +0.000 N 
ATOM      3  N   UNL     1      14.292  12.407  18.174  0.00  0.00    +0.000 NA
ATOM      4  C   UNL     1      13.575  10.367  17.357  0.00  0.00    +0.000 A 
ATOM      5  C   UNL     1      13.569  11.257  18.440  0.00  0.00    +0.000 A 
ATOM      6  C   UNL     1      14.755  12.196  16.979  0.00  0.00    +0.000 A 
ATOM      7  C   UNL     1      14.791  10.826  15.128  0.00  0.00    +0.000 A 
ATOM      8  C   UNL     1      15.552  11.844  14.693  0.00  0.00    +0.000 A 
ENDROOT
BRANCH   5  10
ATOM      9 CL   UNL     1      10.643  10.493  23.600  0.00  0.00    +0.000 Cl
ATOM     10  C   UNL     1      12.892  11.091  19.720  0.00  0.00    +0.000 A 
ATOM     11  C   UNL     1      12.288   9.860  20.014  0.00  0.00    +0.000 A 
ATOM     12  C   UNL     1      12.772  12.140  20.642  0.00  0.00    +0.000 A 
ATOM     13  C   UNL     1      11.595   9.669  21.213  0.00  0.00    +0.000 A 
ATOM     14  C   UNL     1      12.086  11.950  21.846  0.00  0.00    +0.000 A 
ATOM     15  C   UNL     1      11.501  10.716  22.127  0.00  0.00    +0.000 A 
ENDBRANCH   5  10
BRANCH   4  17
ATOM     16  N   UNL     1      13.223   7.914  17.378  0.00  0.00    +0.000 NA
ATOM     17  C   UNL     1      12.836   9.142  17.200  0.00  0.00    +0.000 C 
BRANCH  16  18
ATOM     18  O   UNL     1      14.514   7.815  17.904  0.00  0.00    +0.000 OA
BRANCH  18  19
ATOM     19  C   UNL     1      14.468   7.088  19.134  0.00  0.00    +0.000 C 
BRANCH  19  22
ATOM     20 CL   UNL     1      17.212   5.571  18.804  0.00  0.00    +0.000 Cl
ATOM     21 CL   UNL     1      19.179   9.119  22.302  0.00  0.00    +0.000 Cl
ATOM     22  C   UNL     1      15.660   7.520  19.949  0.00  0.00    +0.000 A 
ATOM     23  C   UNL     1      16.924   6.924  19.835  0.00  0.00    +0.000 A 
ATOM     24  C   UNL     1      15.509   8.626  20.801  0.00  0.00    +0.000 A 
ATOM     25  C   UNL     1      18.011   7.415  20.566  0.00  0.00    +0.000 A 
ATOM     26  C   UNL     1      16.594   9.118  21.534  0.00  0.00    +0.000 A 
ATOM     27  C   UNL     1      17.838   8.508  21.409  0.00  0.00    +0.000 A 
ENDBRANCH  19  22
ENDBRANCH  18  19
ENDBRANCH  16  18
ENDBRANCH   4  17
TORSDOF 5
ENDMDL
MODEL 6
REMARK VINA RESULT:      -5.6      3.574      5.204
REMARK  Name = 3632506
REMARK  5 active torsions:
REMARK  status: ('A' for Active; 'I' for Inactive)
REMARK    1  A    between atoms: O_5  and  N_8
REMARK    2  A    between atoms: O_5  and  C_21
REMARK    3  A    between atoms: C_9  and  C_14
REMARK    4  A    between atoms: C_10  and  C_12
REMARK    5  A    between atoms: C_20  and  C_21
REMARK                            x       y       z     vdW  Elec       q    Type
REMARK                         _______ _______ _______ _____ _____    ______ ____
ROOT
ATOM      1  S   UNL     1      18.364  14.610  19.475  0.00  0.00    +0.000 S 
ATOM      2  N   UNL     1      16.457  13.295  18.345  0.00  0.00    +0.000 N 
ATOM      3  N   UNL     1      16.117  13.344  20.554  0.00  0.00    +0.000 NA
ATOM      4  C   UNL     1      15.283  12.598  18.532  0.00  0.00    +0.000 A 
ATOM      5  C   UNL     1      15.111  12.635  19.923  0.00  0.00    +0.000 A 
ATOM      6  C   UNL     1      16.896  13.691  19.574  0.00  0.00    +0.000 A 
ATOM      7  C   UNL     1      17.247  13.729  17.298  0.00  0.00    +0.000 A 
ATOM      8  C   UNL     1      18.316  14.424  17.721  0.00  0.00    +0.000 A 
ENDROOT
BRANCH   5  10
ATOM      9 CL   UNL     1      10.611  10.404  23.170  0.00  0.00    +0.000 Cl
ATOM     10  C   UNL     1      14.025  12.048  20.697  0.00  0.00    +0.000 A 
ATOM     11  C   UNL     1      12.775  12.685  20.704  0.00  0.00    +0.000 A 
ATOM     12  C   UNL     1      14.204  10.902  21.483  0.00  0.00    +0.000 A 
ATOM     13  C   UNL     1      11.716  12.178  21.464  0.00  0.00    +0.000 A 
ATOM     14  C   UNL     1      13.144  10.389  22.239  0.00  0.00    +0.000 A 
ATOM     15  C   UNL     1      11.906  11.028  22.226  0.00  0.00    +0.000 A 
ENDBRANCH   5  10
BRANCH   4  17
ATOM     16  N   UNL     1      14.104  10.846  17.235  0.00  0.00    +0.000 NA
ATOM     17  C   UNL     1      14.388  12.080  17.532  0.00  0.00    +0.000 C 
BRANCH  16  18
ATOM     18  O   UNL     1      14.686   9.923  18.108  0.00  0.00    +0.000 OA
BRANCH  18  19
ATOM     19  C   UNL     1      14.252   8.605  17.762  0.00  0.00    +0.000 C 
BRANCH  19  22
ATOM     20 CL   UNL     1      15.135   6.471  19.907  0.00  0.00    +0.000 Cl
ATOM     21 CL   UNL     1      10.280   7.163  22.063  0.00  0.00    +0.000 Cl
ATOM     22  C   UNL     1      13.274   8.168  18.822  0.00  0.00    +0.000 A 
ATOM     23  C   UNL     1      13.599   7.252  19.834  0.00  0.00    +0.000 A 
ATOM     24  C   UNL     1      12.006   8.771  18.839  0.00  0.00    +0.000 A 
ATOM     25  C   UNL     1      12.672   6.938  20.833  0.00  0.00    +0.000 A 
ATOM     26  C   UNL     1      11.077   8.458  19.836  0.00  0.00    +0.000 A 
ATOM     27  C   UNL     1      11.419   7.543  20.827  0.00  0.00    +0.000 A 
ENDBRANCH  19  22
ENDBRANCH  18  19
ENDBRANCH  16  18
ENDBRANCH   4  17
TORSDOF 5
ENDMDL
MODEL 7
REMARK VINA RESULT:      -5.5     28.374     30.511
REMARK  Name = 3632506
REMARK  5 active torsions:
REMARK  status: ('A' for Active; 'I' for Inactive)
REMARK    1  A    between atoms: O_5  and  N_8
REMARK    2  A    between atoms: O_5  and  C_21
REMARK    3  A    between atoms: C_9  and  C_14
REMARK    4  A    between atoms: C_10  and  C_12
REMARK    5  A    between atoms: C_20  and  C_21
REMARK                            x       y       z     vdW  Elec       q    Type
REMARK                         _______ _______ _______ _____ _____    ______ ____
ROOT
ATOM      1  S   UNL     1     -10.915 -15.476  16.885  0.00  0.00    +0.000 S 
ATOM      2  N   UNL     1     -10.200 -13.530  18.417  0.00  0.00    +0.000 N 
ATOM      3  N   UNL     1     -11.064 -12.707  16.527  0.00  0.00    +0.000 NA
ATOM      4  C   UNL     1     -10.130 -12.162  18.570  0.00  0.00    +0.000 A 
ATOM      5  C   UNL     1     -10.663 -11.682  17.365  0.00  0.00    +0.000 A 
ATOM      6  C   UNL     1     -10.745 -13.776  17.192  0.00  0.00    +0.000 A 
ATOM      7  C   UNL     1      -9.930 -14.668  19.153  0.00  0.00    +0.000 A 
ATOM      8  C   UNL     1     -10.230 -15.792  18.480  0.00  0.00    +0.000 A 
ENDROOT
BRANCH   5  10
ATOM      9 CL   UNL     1     -11.219  -5.927  15.834  0.00  0.00    +0.000 Cl
ATOM     10  C   UNL     1     -10.835 -10.291  16.964  0.00  0.00    +0.000 A 
ATOM     11  C   UNL     1      -9.705  -9.545  16.599  0.00  0.00    +0.000 A 
ATOM     12  C   UNL     1     -12.085  -9.657  16.990  0.00  0.00    +0.000 A 
ATOM     13  C   UNL     1      -9.819  -8.197  16.246  0.00  0.00    +0.000 A 
ATOM     14  C   UNL     1     -12.203  -8.311  16.630  0.00  0.00    +0.000 A 
ATOM     15  C   UNL     1     -11.071  -7.587  16.259  0.00  0.00    +0.000 A 
ENDBRANCH   5  10
BRANCH   4  17
ATOM     16  N   UNL     1      -8.544 -11.087  20.141  0.00  0.00    +0.000 NA
ATOM     17  C   UNL     1      -9.734 -11.416  19.735  0.00  0.00    +0.000 C 
BRANCH  16  18
ATOM     18  O   UNL     1      -7.539 -11.428  19.232  0.00  0.00    +0.000 OA
BRANCH  18  19
ATOM     19  C   UNL     1      -6.393 -10.606  19.463  0.00  0.00    +0.000 C 
BRANCH  19  22
ATOM     20 CL   UNL     1      -3.620 -12.101  19.358  0.00  0.00    +0.000 Cl
ATOM     21 CL   UNL     1      -3.445 -10.651  14.204  0.00  0.00    +0.000 Cl
ATOM     22  C   UNL     1      -5.590 -10.594  18.188  0.00  0.00    +0.000 A 
ATOM     23  C   UNL     1      -4.366 -11.265  18.046  0.00  0.00    +0.000 A 
ATOM     24  C   UNL     1      -6.140  -9.948  17.069  0.00  0.00    +0.000 A 
ATOM     25  C   UNL     1      -3.700 -11.279  16.816  0.00  0.00    +0.000 A 
ATOM     26  C   UNL     1      -5.475  -9.959  15.838  0.00  0.00    +0.000 A 
ATOM     27  C   UNL     1      -4.260 -10.626  15.722  0.00  0.00    +0.000 A 
ENDBRANCH  19  22
ENDBRANCH  18  19
ENDBRANCH  16  18
ENDBRANCH   4  17
TORSDOF 5
ENDMDL
MODEL 8
REMARK VINA RESULT:      -5.5     21.060     24.217
REMARK  Name = 3632506
REMARK  5 active torsions:
REMARK  status: ('A' for Active; 'I' for Inactive)
REMARK    1  A    between atoms: O_5  and  N_8
REMARK    2  A    between atoms: O_5  and  C_21
REMARK    3  A    between atoms: C_9  and  C_14
REMARK    4  A    between atoms: C_10  and  C_12
REMARK    5  A    between atoms: C_20  and  C_21
REMARK                            x       y       z     vdW  Elec       q    Type
REMARK                         _______ _______ _______ _____ _____    ______ ____
ROOT
ATOM      1  S   UNL     1      -6.797   9.298  40.570  0.00  0.00    +0.000 S 
ATOM      2  N   UNL     1      -5.030   8.938  38.728  0.00  0.00    +0.000 N 
ATOM      3  N   UNL     1      -4.344   7.958  40.616  0.00  0.00    +0.000 NA
ATOM      4  C   UNL     1      -3.813   8.376  38.406  0.00  0.00    +0.000 A 
ATOM      5  C   UNL     1      -3.407   7.789  39.612  0.00  0.00    +0.000 A 
ATOM      6  C   UNL     1      -5.270   8.664  40.042  0.00  0.00    +0.000 A 
ATOM      7  C   UNL     1      -6.050   9.625  38.099  0.00  0.00    +0.000 A 
ATOM      8  C   UNL     1      -7.060   9.916  38.937  0.00  0.00    +0.000 A 
ENDROOT
BRANCH   5  10
ATOM      9 CL   UNL     1       1.729   4.867  40.538  0.00  0.00    +0.000 Cl
ATOM     10  C   UNL     1      -2.179   7.048  39.868  0.00  0.00    +0.000 A 
ATOM     11  C   UNL     1      -0.995   7.759  40.117  0.00  0.00    +0.000 A 
ATOM     12  C   UNL     1      -2.127   5.648  39.813  0.00  0.00    +0.000 A 
ATOM     13  C   UNL     1       0.213   7.089  40.327  0.00  0.00    +0.000 A 
ATOM     14  C   UNL     1      -0.920   4.975  40.031  0.00  0.00    +0.000 A 
ATOM     15  C   UNL     1       0.244   5.698  40.287  0.00  0.00    +0.000 A 
ENDBRANCH   5  10
BRANCH   4  17
ATOM     16  N   UNL     1      -2.266   9.060  36.594  0.00  0.00    +0.000 NA
ATOM     17  C   UNL     1      -3.183   8.299  37.115  0.00  0.00    +0.000 C 
BRANCH  16  18
ATOM     18  O   UNL     1      -1.768  10.010  37.490  0.00  0.00    +0.000 OA
BRANCH  18  19
ATOM     19  C   UNL     1      -0.352  10.120  37.323  0.00  0.00    +0.000 C 
BRANCH  19  22
ATOM     20 CL   UNL     1       0.034  12.897  38.764  0.00  0.00    +0.000 Cl
ATOM     21 CL   UNL     1       0.898  14.904  33.873  0.00  0.00    +0.000 Cl
ATOM     22  C   UNL     1      -0.097  11.355  36.499  0.00  0.00    +0.000 A 
ATOM     23  C   UNL     1       0.122  12.621  37.063  0.00  0.00    +0.000 A 
ATOM     24  C   UNL     1       0.006  11.210  35.107  0.00  0.00    +0.000 A 
ATOM     25  C   UNL     1       0.425  13.719  36.251  0.00  0.00    +0.000 A 
ATOM     26  C   UNL     1       0.307  12.306  34.292  0.00  0.00    +0.000 A 
ATOM     27  C   UNL     1       0.515  13.553  34.873  0.00  0.00    +0.000 A 
ENDBRANCH  19  22
ENDBRANCH  18  19
ENDBRANCH  16  18
ENDBRANCH   4  17
TORSDOF 5
ENDMDL
MODEL 9
REMARK VINA RESULT:      -5.4     27.655     29.863
REMARK  Name = 3632506
REMARK  5 active torsions:
REMARK  status: ('A' for Active; 'I' for Inactive)
REMARK    1  A    between atoms: O_5  and  N_8
REMARK    2  A    between atoms: O_5  and  C_21
REMARK    3  A    between atoms: C_9  and  C_14
REMARK    4  A    between atoms: C_10  and  C_12
REMARK    5  A    between atoms: C_20  and  C_21
REMARK                            x       y       z     vdW  Elec       q    Type
REMARK                         _______ _______ _______ _____ _____    ______ ____
ROOT
ATOM      1  S   UNL     1     -12.704 -13.189  17.509  0.00  0.00    +0.000 S 
ATOM      2  N   UNL     1     -11.083 -11.190  17.362  0.00  0.00    +0.000 N 
ATOM      3  N   UNL     1      -9.980 -12.987  18.109  0.00  0.00    +0.000 NA
ATOM      4  C   UNL     1      -9.789 -10.752  17.548  0.00  0.00    +0.000 A 
ATOM      5  C   UNL     1      -9.134 -11.895  18.030  0.00  0.00    +0.000 A 
ATOM      6  C   UNL     1     -11.123 -12.505  17.724  0.00  0.00    +0.000 A 
ATOM      7  C   UNL     1     -12.281 -10.700  16.882  0.00  0.00    +0.000 A 
ATOM      8  C   UNL     1     -13.257 -11.623  16.911  0.00  0.00    +0.000 A 
ENDROOT
BRANCH   5  10
ATOM      9 CL   UNL     1      -3.362 -12.216  19.565  0.00  0.00    +0.000 Cl
ATOM     10  C   UNL     1      -7.732 -12.020  18.405  0.00  0.00    +0.000 A 
ATOM     11  C   UNL     1      -7.221 -11.187  19.412  0.00  0.00    +0.000 A 
ATOM     12  C   UNL     1      -6.861 -12.904  17.752  0.00  0.00    +0.000 A 
ATOM     13  C   UNL     1      -5.872 -11.247  19.775  0.00  0.00    +0.000 A 
ATOM     14  C   UNL     1      -5.513 -12.970  18.120  0.00  0.00    +0.000 A 
ATOM     15  C   UNL     1      -5.025 -12.143  19.129  0.00  0.00    +0.000 A 
ENDBRANCH   5  10
BRANCH   4  17
ATOM     16  N   UNL     1      -8.329  -9.181  16.306  0.00  0.00    +0.000 NA
ATOM     17  C   UNL     1      -9.224  -9.475  17.203  0.00  0.00    +0.000 C 
BRANCH  16  18
ATOM     18  O   UNL     1      -7.971 -10.272  15.509  0.00  0.00    +0.000 OA
BRANCH  18  19
ATOM     19  C   UNL     1      -7.158  -9.818  14.424  0.00  0.00    +0.000 C 
BRANCH  19  22
ATOM     20 CL   UNL     1      -5.298 -11.007  12.175  0.00  0.00    +0.000 Cl
ATOM     21 CL   UNL     1      -1.426 -10.993  15.876  0.00  0.00    +0.000 Cl
ATOM     22  C   UNL     1      -5.734 -10.184  14.754  0.00  0.00    +0.000 A 
ATOM     23  C   UNL     1      -4.831 -10.683  13.803  0.00  0.00    +0.000 A 
ATOM     24  C   UNL     1      -5.274  -9.934  16.057  0.00  0.00    +0.000 A 
ATOM     25  C   UNL     1      -3.501 -10.938  14.151  0.00  0.00    +0.000 A 
ATOM     26  C   UNL     1      -3.945 -10.189  16.407  0.00  0.00    +0.000 A 
ATOM     27  C   UNL     1      -3.067 -10.688  15.450  0.00  0.00    +0.000 A 
ENDBRANCH  19  22
ENDBRANCH  18  19
ENDBRANCH  16  18
ENDBRANCH   4  17
TORSDOF 5
ENDMDL
MODEL 10
REMARK VINA RESULT:      -5.3     33.538     35.354
REMARK  Name = 3632506
REMARK  5 active torsions:
REMARK  status: ('A' for Active; 'I' for Inactive)
REMARK    1  A    between atoms: O_5  and  N_8
REMARK    2  A    between atoms: O_5  and  C_21
REMARK    3  A    between atoms: C_9  and  C_14
REMARK    4  A    between atoms: C_10  and  C_12
REMARK    5  A    between atoms: C_20  and  C_21
REMARK                            x       y       z     vdW  Elec       q    Type
REMARK                         _______ _______ _______ _____ _____    ______ ____
ROOT
ATOM      1  S   UNL     1       2.281 -13.367  -7.178  0.00  0.00    +0.000 S 
ATOM      2  N   UNL     1       1.574 -13.251  -4.702  0.00  0.00    +0.000 N 
ATOM      3  N   UNL     1       3.471 -14.421  -4.879  0.00  0.00    +0.000 NA
ATOM      4  C   UNL     1       1.884 -13.609  -3.407  0.00  0.00    +0.000 A 
ATOM      5  C   UNL     1       3.063 -14.352  -3.558  0.00  0.00    +0.000 A 
ATOM      6  C   UNL     1       2.540 -13.772  -5.511  0.00  0.00    +0.000 A 
ATOM      7  C   UNL     1       0.627 -12.498  -5.367  0.00  0.00    +0.000 A 
ATOM      8  C   UNL     1       0.838 -12.472  -6.694  0.00  0.00    +0.000 A 
ENDROOT
BRANCH   5  10
ATOM      9 CL   UNL     1       6.149 -17.107   0.762  0.00  0.00    +0.000 Cl
ATOM     10  C   UNL     1       3.849 -14.990  -2.510  0.00  0.00    +0.000 A 
ATOM     11  C   UNL     1       4.016 -16.383  -2.538  0.00  0.00    +0.000 A 
ATOM     12  C   UNL     1       4.393 -14.266  -1.440  0.00  0.00    +0.000 A 
ATOM     13  C   UNL     1       4.728 -17.041  -1.531  0.00  0.00    +0.000 A 
ATOM     14  C   UNL     1       5.113 -14.921  -0.435  0.00  0.00    +0.000 A 
ATOM     15  C   UNL     1       5.278 -16.304  -0.485  0.00  0.00    +0.000 A 
ENDBRANCH   5  10
BRANCH   4  17
ATOM     16  N   UNL     1       0.554 -13.916  -1.339  0.00  0.00    +0.000 NA
ATOM     17  C   UNL     1       1.230 -13.204  -2.192  0.00  0.00    +0.000 C 
BRANCH  16  18
ATOM     18  O   UNL     1       0.585 -15.285  -1.619  0.00  0.00    +0.000 OA
BRANCH  18  19
ATOM     19  C   UNL     1      -0.104 -15.995  -0.587  0.00  0.00    +0.000 C 
BRANCH  19  22
ATOM     20 CL   UNL     1       1.178 -18.870  -0.755  0.00  0.00    +0.000 Cl
ATOM     21 CL   UNL     1       4.178 -17.381   3.426  0.00  0.00    +0.000 Cl
ATOM     22  C   UNL     1       0.928 -16.409   0.431  0.00  0.00    +0.000 A 
ATOM     23  C   UNL     1       1.573 -17.655   0.405  0.00  0.00    +0.000 A 
ATOM     24  C   UNL     1       1.315 -15.468   1.398  0.00  0.00    +0.000 A 
ATOM     25  C   UNL     1       2.574 -17.957   1.333  0.00  0.00    +0.000 A 
ATOM     26  C   UNL     1       2.315 -15.769   2.329  0.00  0.00    +0.000 A 
ATOM     27  C   UNL     1       2.938 -17.012   2.288  0.00  0.00    +0.000 A 
ENDBRANCH  19  22
ENDBRANCH  18  19
ENDBRANCH  16  18
ENDBRANCH   4  17
TORSDOF 5
ENDMDL
