MODEL 1
REMARK VINA RESULT:      -5.5      0.000      0.000
REMARK  Name = 3632506
REMARK  5 active torsions:
REMARK  status: ('A' for Active; 'I' for Inactive)
REMARK    1  A    between atoms: O_5  and  N_8
REMARK    2  A    between atoms: O_5  and  C_21
REMARK    3  A    between atoms: C_9  and  C_14
REMARK    4  A    between atoms: C_10  and  C_12
REMARK    5  A    between atoms: C_20  and  C_21
REMARK                            x       y       z     vdW  Elec       q    Type
REMARK                         _______ _______ _______ _____ _____    ______ ____
ROOT
ATOM      1  S   UNL     1      -4.371   2.156 -31.445  0.00  0.00    +0.000 S 
ATOM      2  N   UNL     1      -5.607   1.377 -33.568  0.00  0.00    +0.000 N 
ATOM      3  N   UNL     1      -7.061   2.356 -32.181  0.00  0.00    +0.000 NA
ATOM      4  C   UNL     1      -6.815   1.314 -34.229  0.00  0.00    +0.000 A 
ATOM      5  C   UNL     1      -7.702   1.918 -33.326  0.00  0.00    +0.000 A 
ATOM      6  C   UNL     1      -5.830   1.988 -32.370  0.00  0.00    +0.000 A 
ATOM      7  C   UNL     1      -4.285   1.053 -33.800  0.00  0.00    +0.000 A 
ATOM      8  C   UNL     1      -3.493   1.378 -32.764  0.00  0.00    +0.000 A 
ENDROOT
BRANCH   5  10
ATOM      9 CL   UNL     1     -13.568   2.693 -34.199  0.00  0.00    +0.000 Cl
ATOM     10  C   UNL     1      -9.133   2.128 -33.497  0.00  0.00    +0.000 A 
ATOM     11  C   UNL     1      -9.924   1.070 -33.971  0.00  0.00    +0.000 A 
ATOM     12  C   UNL     1      -9.739   3.370 -33.260  0.00  0.00    +0.000 A 
ATOM     13  C   UNL     1     -11.294   1.239 -34.186  0.00  0.00    +0.000 A 
ATOM     14  C   UNL     1     -11.112   3.540 -33.468  0.00  0.00    +0.000 A 
ATOM     15  C   UNL     1     -11.883   2.475 -33.929  0.00  0.00    +0.000 A 
ENDBRANCH   5  10
BRANCH   4  17
ATOM     16  N   UNL     1      -7.290   1.552 -36.650  0.00  0.00    +0.000 NA
ATOM     17  C   UNL     1      -7.073   0.860 -35.570  0.00  0.00    +0.000 C 
BRANCH  16  18
ATOM     18  O   UNL     1      -7.131   2.928 -36.462  0.00  0.00    +0.000 OA
BRANCH  18  19
ATOM     19  C   UNL     1      -7.704   3.625 -37.571  0.00  0.00    +0.000 C 
BRANCH  19  22
ATOM     20 CL   UNL     1      -7.244   6.233 -35.860  0.00  0.00    +0.000 Cl
ATOM     21 CL   UNL     1     -12.581   6.679 -35.770  0.00  0.00    +0.000 Cl
ATOM     22  C   UNL     1      -8.892   4.390 -37.047  0.00  0.00    +0.000 A 
ATOM     23  C   UNL     1      -8.775   5.579 -36.311  0.00  0.00    +0.000 A 
ATOM     24  C   UNL     1     -10.174   3.929 -37.386  0.00  0.00    +0.000 A 
ATOM     25  C   UNL     1      -9.915   6.283 -35.912  0.00  0.00    +0.000 A 
ATOM     26  C   UNL     1     -11.316   4.631 -36.988  0.00  0.00    +0.000 A 
ATOM     27  C   UNL     1     -11.176   5.805 -36.254  0.00  0.00    +0.000 A 
ENDBRANCH  19  22
ENDBRANCH  18  19
ENDBRANCH  16  18
ENDBRANCH   4  17
TORSDOF 5
ENDMDL
MODEL 2
REMARK VINA RESULT:      -5.2     17.472     19.917
REMARK  Name = 3632506
REMARK  5 active torsions:
REMARK  status: ('A' for Active; 'I' for Inactive)
REMARK    1  A    between atoms: O_5  and  N_8
REMARK    2  A    between atoms: O_5  and  C_21
REMARK    3  A    between atoms: C_9  and  C_14
REMARK    4  A    between atoms: C_10  and  C_12
REMARK    5  A    between atoms: C_20  and  C_21
REMARK                            x       y       z     vdW  Elec       q    Type
REMARK                         _______ _______ _______ _____ _____    ______ ____
ROOT
ATOM      1  S   UNL     1      -8.016  -1.524 -53.445  0.00  0.00    +0.000 S 
ATOM      2  N   UNL     1      -6.379  -0.003 -52.160  0.00  0.00    +0.000 N 
ATOM      3  N   UNL     1      -6.633   0.771 -54.241  0.00  0.00    +0.000 NA
ATOM      4  C   UNL     1      -5.579   1.118 -52.213  0.00  0.00    +0.000 A 
ATOM      5  C   UNL     1      -5.750   1.565 -53.531  0.00  0.00    +0.000 A 
ATOM      6  C   UNL     1      -6.954  -0.152 -53.387  0.00  0.00    +0.000 A 
ATOM      7  C   UNL     1      -6.780  -0.943 -51.230  0.00  0.00    +0.000 A 
ATOM      8  C   UNL     1      -7.634  -1.841 -51.751  0.00  0.00    +0.000 A 
ENDROOT
BRANCH   5  10
ATOM      9 CL   UNL     1      -3.399   6.407 -56.140  0.00  0.00    +0.000 Cl
ATOM     10  C   UNL     1      -5.134   2.727 -54.160  0.00  0.00    +0.000 A 
ATOM     11  C   UNL     1      -5.591   4.007 -53.815  0.00  0.00    +0.000 A 
ATOM     12  C   UNL     1      -4.141   2.605 -55.141  0.00  0.00    +0.000 A 
ATOM     13  C   UNL     1      -5.056   5.147 -54.422  0.00  0.00    +0.000 A 
ATOM     14  C   UNL     1      -3.598   3.745 -55.745  0.00  0.00    +0.000 A 
ATOM     15  C   UNL     1      -4.057   5.010 -55.383  0.00  0.00    +0.000 A 
ENDBRANCH   5  10
BRANCH   4  17
ATOM     16  N   UNL     1      -3.575   1.805 -50.928  0.00  0.00    +0.000 NA
ATOM     17  C   UNL     1      -4.857   1.748 -51.140  0.00  0.00    +0.000 C 
BRANCH  16  18
ATOM     18  O   UNL     1      -2.820   1.264 -51.972  0.00  0.00    +0.000 OA
BRANCH  18  19
ATOM     19  C   UNL     1      -2.195   0.057 -51.527  0.00  0.00    +0.000 C 
BRANCH  19  22
ATOM     20 CL   UNL     1      -3.226  -2.410 -49.858  0.00  0.00    +0.000 Cl
ATOM     21 CL   UNL     1      -5.120  -4.296 -54.499  0.00  0.00    +0.000 Cl
ATOM     22  C   UNL     1      -2.879  -1.084 -52.233  0.00  0.00    +0.000 A 
ATOM     23  C   UNL     1      -3.400  -2.200 -51.561  0.00  0.00    +0.000 A 
ATOM     24  C   UNL     1      -3.073  -0.980 -53.620  0.00  0.00    +0.000 A 
ATOM     25  C   UNL     1      -4.088  -3.196 -52.262  0.00  0.00    +0.000 A 
ATOM     26  C   UNL     1      -3.760  -1.974 -54.323  0.00  0.00    +0.000 A 
ATOM     27  C   UNL     1      -4.263  -3.075 -53.637  0.00  0.00    +0.000 A 
ENDBRANCH  19  22
ENDBRANCH  18  19
ENDBRANCH  16  18
ENDBRANCH   4  17
TORSDOF 5
ENDMDL
MODEL 3
REMARK VINA RESULT:      -5.1      3.795      6.364
REMARK  Name = 3632506
REMARK  5 active torsions:
REMARK  status: ('A' for Active; 'I' for Inactive)
REMARK    1  A    between atoms: O_5  and  N_8
REMARK    2  A    between atoms: O_5  and  C_21
REMARK    3  A    between atoms: C_9  and  C_14
REMARK    4  A    between atoms: C_10  and  C_12
REMARK    5  A    between atoms: C_20  and  C_21
REMARK                            x       y       z     vdW  Elec       q    Type
REMARK                         _______ _______ _______ _____ _____    ______ ____
ROOT
ATOM      1  S   UNL     1     -12.148   3.145 -30.731  0.00  0.00    +0.000 S 
ATOM      2  N   UNL     1     -12.632   4.278 -32.996  0.00  0.00    +0.000 N 
ATOM      3  N   UNL     1     -11.330   5.612 -31.763  0.00  0.00    +0.000 NA
ATOM      4  C   UNL     1     -12.416   5.383 -33.790  0.00  0.00    +0.000 A 
ATOM      5  C   UNL     1     -11.614   6.201 -32.982  0.00  0.00    +0.000 A 
ATOM      6  C   UNL     1     -11.977   4.487 -31.819  0.00  0.00    +0.000 A 
ATOM      7  C   UNL     1     -13.258   3.049 -33.082  0.00  0.00    +0.000 A 
ATOM      8  C   UNL     1     -13.120   2.328 -31.957  0.00  0.00    +0.000 A 
ENDROOT
BRANCH   5  10
ATOM      9 CL   UNL     1      -9.236  11.542 -34.243  0.00  0.00    +0.000 Cl
ATOM     10  C   UNL     1     -11.076   7.515 -33.309  0.00  0.00    +0.000 A 
ATOM     11  C   UNL     1      -9.798   7.603 -33.882  0.00  0.00    +0.000 A 
ATOM     12  C   UNL     1     -11.766   8.699 -33.014  0.00  0.00    +0.000 A 
ATOM     13  C   UNL     1      -9.227   8.845 -34.175  0.00  0.00    +0.000 A 
ATOM     14  C   UNL     1     -11.200   9.942 -33.314  0.00  0.00    +0.000 A 
ATOM     15  C   UNL     1      -9.935  10.010 -33.893  0.00  0.00    +0.000 A 
ENDBRANCH   5  10
BRANCH   4  17
ATOM     16  N   UNL     1     -12.233   5.172 -36.253  0.00  0.00    +0.000 NA
ATOM     17  C   UNL     1     -12.806   5.584 -35.160  0.00  0.00    +0.000 C 
BRANCH  16  18
ATOM     18  O   UNL     1     -11.150   4.321 -36.018  0.00  0.00    +0.000 OA
BRANCH  18  19
ATOM     19  C   UNL     1      -9.953   4.934 -36.503  0.00  0.00    +0.000 C 
BRANCH  19  22
ATOM     20 CL   UNL     1      -7.186   6.440 -36.606  0.00  0.00    +0.000 Cl
ATOM     21 CL   UNL     1      -5.662   3.152 -32.661  0.00  0.00    +0.000 Cl
ATOM     22  C   UNL     1      -8.830   4.487 -35.604  0.00  0.00    +0.000 A 
ATOM     23  C   UNL     1      -7.581   5.125 -35.562  0.00  0.00    +0.000 A 
ATOM     24  C   UNL     1      -9.080   3.432 -34.712  0.00  0.00    +0.000 A 
ATOM     25  C   UNL     1      -6.600   4.710 -34.655  0.00  0.00    +0.000 A 
ATOM     26  C   UNL     1      -8.100   3.014 -33.805  0.00  0.00    +0.000 A 
ATOM     27  C   UNL     1      -6.867   3.658 -33.784  0.00  0.00    +0.000 A 
ENDBRANCH  19  22
ENDBRANCH  18  19
ENDBRANCH  16  18
ENDBRANCH   4  17
TORSDOF 5
ENDMDL
MODEL 4
REMARK VINA RESULT:      -5.0      5.199      7.053
REMARK  Name = 3632506
REMARK  5 active torsions:
REMARK  status: ('A' for Active; 'I' for Inactive)
REMARK    1  A    between atoms: O_5  and  N_8
REMARK    2  A    between atoms: O_5  and  C_21
REMARK    3  A    between atoms: C_9  and  C_14
REMARK    4  A    between atoms: C_10  and  C_12
REMARK    5  A    between atoms: C_20  and  C_21
REMARK                            x       y       z     vdW  Elec       q    Type
REMARK                         _______ _______ _______ _____ _____    ______ ____
ROOT
ATOM      1  S   UNL     1     -11.725   6.608 -30.194  0.00  0.00    +0.000 S 
ATOM      2  N   UNL     1     -13.209   6.960 -32.272  0.00  0.00    +0.000 N 
ATOM      3  N   UNL     1     -14.066   5.320 -31.017  0.00  0.00    +0.000 NA
ATOM      4  C   UNL     1     -14.341   6.559 -32.949  0.00  0.00    +0.000 A 
ATOM      5  C   UNL     1     -14.839   5.523 -32.146  0.00  0.00    +0.000 A 
ATOM      6  C   UNL     1     -13.104   6.182 -31.157  0.00  0.00    +0.000 A 
ATOM      7  C   UNL     1     -12.227   7.925 -32.380  0.00  0.00    +0.000 A 
ATOM      8  C   UNL     1     -11.343   7.866 -31.371  0.00  0.00    +0.000 A 
ENDROOT
BRANCH   5  10
ATOM      9 CL   UNL     1     -19.663   2.168 -33.265  0.00  0.00    +0.000 Cl
ATOM     10  C   UNL     1     -16.033   4.719 -32.377  0.00  0.00    +0.000 A 
ATOM     11  C   UNL     1     -15.886   3.408 -32.853  0.00  0.00    +0.000 A 
ATOM     12  C   UNL     1     -17.324   5.233 -32.197  0.00  0.00    +0.000 A 
ATOM     13  C   UNL     1     -17.005   2.615 -33.125  0.00  0.00    +0.000 A 
ATOM     14  C   UNL     1     -18.445   4.439 -32.462  0.00  0.00    +0.000 A 
ATOM     15  C   UNL     1     -18.281   3.134 -32.924  0.00  0.00    +0.000 A 
ENDBRANCH   5  10
BRANCH   4  17
ATOM     16  N   UNL     1     -14.508   7.157 -35.348  0.00  0.00    +0.000 NA
ATOM     17  C   UNL     1     -14.933   7.150 -34.119  0.00  0.00    +0.000 C 
BRANCH  16  18
ATOM     18  O   UNL     1     -13.367   6.374 -35.539  0.00  0.00    +0.000 OA
BRANCH  18  19
ATOM     19  C   UNL     1     -12.279   7.211 -35.940  0.00  0.00    +0.000 C 
BRANCH  19  22
ATOM     20 CL   UNL     1      -9.384   7.871 -34.885  0.00  0.00    +0.000 Cl
ATOM     21 CL   UNL     1      -7.864   3.337 -37.297  0.00  0.00    +0.000 Cl
ATOM     22  C   UNL     1     -11.132   6.305 -36.303  0.00  0.00    +0.000 A 
ATOM     23  C   UNL     1      -9.821   6.506 -35.844  0.00  0.00    +0.000 A 
ATOM     24  C   UNL     1     -11.411   5.162 -37.069  0.00  0.00    +0.000 A 
ATOM     25  C   UNL     1      -8.810   5.592 -36.156  0.00  0.00    +0.000 A 
ATOM     26  C   UNL     1     -10.401   4.246 -37.383  0.00  0.00    +0.000 A 
ATOM     27  C   UNL     1      -9.108   4.469 -36.922  0.00  0.00    +0.000 A 
ENDBRANCH  19  22
ENDBRANCH  18  19
ENDBRANCH  16  18
ENDBRANCH   4  17
TORSDOF 5
ENDMDL
MODEL 5
REMARK VINA RESULT:      -4.7     13.916     15.812
REMARK  Name = 3632506
REMARK  5 active torsions:
REMARK  status: ('A' for Active; 'I' for Inactive)
REMARK    1  A    between atoms: O_5  and  N_8
REMARK    2  A    between atoms: O_5  and  C_21
REMARK    3  A    between atoms: C_9  and  C_14
REMARK    4  A    between atoms: C_10  and  C_12
REMARK    5  A    between atoms: C_20  and  C_21
REMARK                            x       y       z     vdW  Elec       q    Type
REMARK                         _______ _______ _______ _____ _____    ______ ____
ROOT
ATOM      1  S   UNL     1      -8.921  -8.182 -43.331  0.00  0.00    +0.000 S 
ATOM      2  N   UNL     1     -11.031  -7.212 -44.452  0.00  0.00    +0.000 N 
ATOM      3  N   UNL     1     -11.469  -9.272 -43.702  0.00  0.00    +0.000 NA
ATOM      4  C   UNL     1     -12.350  -7.431 -44.786  0.00  0.00    +0.000 A 
ATOM      5  C   UNL     1     -12.584  -8.731 -44.318  0.00  0.00    +0.000 A 
ATOM      6  C   UNL     1     -10.576  -8.339 -43.832  0.00  0.00    +0.000 A 
ATOM      7  C   UNL     1     -10.101  -6.193 -44.522  0.00  0.00    +0.000 A 
ATOM      8  C   UNL     1      -8.918  -6.546 -43.993  0.00  0.00    +0.000 A 
ENDROOT
BRANCH   5  10
ATOM      9 CL   UNL     1     -17.565 -12.022 -44.689  0.00  0.00    +0.000 Cl
ATOM     10  C   UNL     1     -13.823  -9.494 -44.402  0.00  0.00    +0.000 A 
ATOM     11  C   UNL     1     -13.925 -10.703 -43.698  0.00  0.00    +0.000 A 
ATOM     12  C   UNL     1     -14.894  -9.090 -45.210  0.00  0.00    +0.000 A 
ATOM     13  C   UNL     1     -15.081 -11.486 -43.781  0.00  0.00    +0.000 A 
ATOM     14  C   UNL     1     -16.054  -9.867 -45.289  0.00  0.00    +0.000 A 
ATOM     15  C   UNL     1     -16.143 -11.061 -44.575  0.00  0.00    +0.000 A 
ENDBRANCH   5  10
BRANCH   4  17
ATOM     16  N   UNL     1     -14.132  -5.708 -44.757  0.00  0.00    +0.000 NA
ATOM     17  C   UNL     1     -13.289  -6.500 -45.353  0.00  0.00    +0.000 C 
BRANCH  16  18
ATOM     18  O   UNL     1     -13.996  -5.708 -43.366  0.00  0.00    +0.000 OA
BRANCH  18  19
ATOM     19  C   UNL     1     -15.201  -6.200 -42.774  0.00  0.00    +0.000 C 
BRANCH  19  22
ATOM     20 CL   UNL     1     -17.230  -8.511 -42.081  0.00  0.00    +0.000 Cl
ATOM     21 CL   UNL     1     -13.345 -10.495 -38.972  0.00  0.00    +0.000 Cl
ATOM     22  C   UNL     1     -14.805  -7.264 -41.783  0.00  0.00    +0.000 A 
ATOM     23  C   UNL     1     -15.633  -8.346 -41.448  0.00  0.00    +0.000 A 
ATOM     24  C   UNL     1     -13.513  -7.208 -41.236  0.00  0.00    +0.000 A 
ATOM     25  C   UNL     1     -15.184  -9.342 -40.575  0.00  0.00    +0.000 A 
ATOM     26  C   UNL     1     -13.062  -8.202 -40.362  0.00  0.00    +0.000 A 
ATOM     27  C   UNL     1     -13.902  -9.263 -40.039  0.00  0.00    +0.000 A 
ENDBRANCH  19  22
ENDBRANCH  18  19
ENDBRANCH  16  18
ENDBRANCH   4  17
TORSDOF 5
ENDMDL
MODEL 6
REMARK VINA RESULT:      -4.7     20.371     23.217
REMARK  Name = 3632506
REMARK  5 active torsions:
REMARK  status: ('A' for Active; 'I' for Inactive)
REMARK    1  A    between atoms: O_5  and  N_8
REMARK    2  A    between atoms: O_5  and  C_21
REMARK    3  A    between atoms: C_9  and  C_14
REMARK    4  A    between atoms: C_10  and  C_12
REMARK    5  A    between atoms: C_20  and  C_21
REMARK                            x       y       z     vdW  Elec       q    Type
REMARK                         _______ _______ _______ _____ _____    ______ ____
ROOT
ATOM      1  S   UNL     1       0.099   4.931 -60.162  0.00  0.00    +0.000 S 
ATOM      2  N   UNL     1      -1.328   6.125 -58.377  0.00  0.00    +0.000 N 
ATOM      3  N   UNL     1       0.825   6.196 -57.776  0.00  0.00    +0.000 NA
ATOM      4  C   UNL     1      -1.323   6.811 -57.182  0.00  0.00    +0.000 A 
ATOM      5  C   UNL     1       0.034   6.822 -56.829  0.00  0.00    +0.000 A 
ATOM      6  C   UNL     1      -0.037   5.784 -58.656  0.00  0.00    +0.000 A 
ATOM      7  C   UNL     1      -2.234   5.751 -59.350  0.00  0.00    +0.000 A 
ATOM      8  C   UNL     1      -1.648   5.086 -60.361  0.00  0.00    +0.000 A 
ENDROOT
BRANCH   5  10
ATOM      9 CL   UNL     1       2.428   9.119 -51.852  0.00  0.00    +0.000 Cl
ATOM     10  C   UNL     1       0.637   7.416 -55.642  0.00  0.00    +0.000 A 
ATOM     11  C   UNL     1       1.295   6.584 -54.725  0.00  0.00    +0.000 A 
ATOM     12  C   UNL     1       0.528   8.784 -55.356  0.00  0.00    +0.000 A 
ATOM     13  C   UNL     1       1.853   7.106 -53.554  0.00  0.00    +0.000 A 
ATOM     14  C   UNL     1       1.091   9.310 -54.189  0.00  0.00    +0.000 A 
ATOM     15  C   UNL     1       1.752   8.470 -53.294  0.00  0.00    +0.000 A 
ENDBRANCH   5  10
BRANCH   4  17
ATOM     16  N   UNL     1      -3.385   6.964 -55.816  0.00  0.00    +0.000 NA
ATOM     17  C   UNL     1      -2.423   7.471 -56.530  0.00  0.00    +0.000 C 
BRANCH  16  18
ATOM     18  O   UNL     1      -3.231   5.596 -55.577  0.00  0.00    +0.000 OA
BRANCH  18  19
ATOM     19  C   UNL     1      -4.195   4.871 -56.344  0.00  0.00    +0.000 C 
BRANCH  19  22
ATOM     20 CL   UNL     1      -3.836   1.895 -57.319  0.00  0.00    +0.000 Cl
ATOM     21 CL   UNL     1      -6.022   0.481 -52.638  0.00  0.00    +0.000 Cl
ATOM     22  C   UNL     1      -4.690   3.741 -55.480  0.00  0.00    +0.000 A 
ATOM     23  C   UNL     1      -4.536   2.389 -55.822  0.00  0.00    +0.000 A 
ATOM     24  C   UNL     1      -5.258   4.062 -54.236  0.00  0.00    +0.000 A 
ATOM     25  C   UNL     1      -4.953   1.381 -54.946  0.00  0.00    +0.000 A 
ATOM     26  C   UNL     1      -5.676   3.056 -53.359  0.00  0.00    +0.000 A 
ATOM     27  C   UNL     1      -5.519   1.722 -53.721  0.00  0.00    +0.000 A 
ENDBRANCH  19  22
ENDBRANCH  18  19
ENDBRANCH  16  18
ENDBRANCH   4  17
TORSDOF 5
ENDMDL
MODEL 7
REMARK VINA RESULT:      -4.6      3.841      6.941
REMARK  Name = 3632506
REMARK  5 active torsions:
REMARK  status: ('A' for Active; 'I' for Inactive)
REMARK    1  A    between atoms: O_5  and  N_8
REMARK    2  A    between atoms: O_5  and  C_21
REMARK    3  A    between atoms: C_9  and  C_14
REMARK    4  A    between atoms: C_10  and  C_12
REMARK    5  A    between atoms: C_20  and  C_21
REMARK                            x       y       z     vdW  Elec       q    Type
REMARK                         _______ _______ _______ _____ _____    ______ ____
ROOT
ATOM      1  S   UNL     1     -13.924   7.430 -32.370  0.00  0.00    +0.000 S 
ATOM      2  N   UNL     1     -13.356   5.183 -33.497  0.00  0.00    +0.000 N 
ATOM      3  N   UNL     1     -11.741   6.665 -33.941  0.00  0.00    +0.000 NA
ATOM      4  C   UNL     1     -12.450   4.490 -34.272  0.00  0.00    +0.000 A 
ATOM      5  C   UNL     1     -11.466   5.451 -34.544  0.00  0.00    +0.000 A 
ATOM      6  C   UNL     1     -12.882   6.454 -33.356  0.00  0.00    +0.000 A 
ATOM      7  C   UNL     1     -14.530   4.939 -32.813  0.00  0.00    +0.000 A 
ATOM      8  C   UNL     1     -14.984   6.032 -32.176  0.00  0.00    +0.000 A 
ENDROOT
BRANCH   5  10
ATOM      9 CL   UNL     1      -6.489   4.932 -37.821  0.00  0.00    +0.000 Cl
ATOM     10  C   UNL     1     -10.253   5.278 -35.333  0.00  0.00    +0.000 A 
ATOM     11  C   UNL     1      -9.196   6.183 -35.161  0.00  0.00    +0.000 A 
ATOM     12  C   UNL     1     -10.131   4.273 -36.303  0.00  0.00    +0.000 A 
ATOM     13  C   UNL     1      -8.030   6.078 -35.925  0.00  0.00    +0.000 A 
ATOM     14  C   UNL     1      -8.962   4.161 -37.063  0.00  0.00    +0.000 A 
ATOM     15  C   UNL     1      -7.917   5.063 -36.871  0.00  0.00    +0.000 A 
ENDBRANCH   5  10
BRANCH   4  17
ATOM     16  N   UNL     1     -11.853   2.099 -34.012  0.00  0.00    +0.000 NA
ATOM     17  C   UNL     1     -12.452   3.090 -34.604  0.00  0.00    +0.000 C 
BRANCH  16  18
ATOM     18  O   UNL     1     -11.220   2.470 -32.824  0.00  0.00    +0.000 OA
BRANCH  18  19
ATOM     19  C   UNL     1     -10.340   1.422 -32.409  0.00  0.00    +0.000 C 
BRANCH  19  22
ATOM     20 CL   UNL     1      -9.372  -1.019 -34.152  0.00  0.00    +0.000 Cl
ATOM     21 CL   UNL     1      -5.422   2.198 -35.809  0.00  0.00    +0.000 Cl
ATOM     22  C   UNL     1      -9.083   1.548 -33.229  0.00  0.00    +0.000 A 
ATOM     23  C   UNL     1      -8.604   0.523 -34.060  0.00  0.00    +0.000 A 
ATOM     24  C   UNL     1      -8.409   2.780 -33.220  0.00  0.00    +0.000 A 
ATOM     25  C   UNL     1      -7.470   0.722 -34.854  0.00  0.00    +0.000 A 
ATOM     26  C   UNL     1      -7.274   2.981 -34.011  0.00  0.00    +0.000 A 
ATOM     27  C   UNL     1      -6.814   1.950 -34.824  0.00  0.00    +0.000 A 
ENDBRANCH  19  22
ENDBRANCH  18  19
ENDBRANCH  16  18
ENDBRANCH   4  17
TORSDOF 5
ENDMDL
MODEL 8
REMARK VINA RESULT:      -4.5     25.353     27.804
REMARK  Name = 3632506
REMARK  5 active torsions:
REMARK  status: ('A' for Active; 'I' for Inactive)
REMARK    1  A    between atoms: O_5  and  N_8
REMARK    2  A    between atoms: O_5  and  C_21
REMARK    3  A    between atoms: C_9  and  C_14
REMARK    4  A    between atoms: C_10  and  C_12
REMARK    5  A    between atoms: C_20  and  C_21
REMARK                            x       y       z     vdW  Elec       q    Type
REMARK                         _______ _______ _______ _____ _____    ______ ____
ROOT
ATOM      1  S   UNL     1      -9.899  16.944 -62.362  0.00  0.00    +0.000 S 
ATOM      2  N   UNL     1     -10.001  14.372 -62.221  0.00  0.00    +0.000 N 
ATOM      3  N   UNL     1     -10.588  15.248 -60.249  0.00  0.00    +0.000 NA
ATOM      4  C   UNL     1     -10.278  13.282 -61.424  0.00  0.00    +0.000 A 
ATOM      5  C   UNL     1     -10.624  13.866 -60.197  0.00  0.00    +0.000 A 
ATOM      6  C   UNL     1     -10.190  15.489 -61.462  0.00  0.00    +0.000 A 
ATOM      7  C   UNL     1      -9.651  14.632 -63.531  0.00  0.00    +0.000 A 
ATOM      8  C   UNL     1      -9.532  15.949 -63.773  0.00  0.00    +0.000 A 
ENDROOT
BRANCH   5  10
ATOM      9 CL   UNL     1     -12.113  11.193 -55.058  0.00  0.00    +0.000 Cl
ATOM     10  C   UNL     1     -11.014  13.184 -58.970  0.00  0.00    +0.000 A 
ATOM     11  C   UNL     1     -11.409  13.950 -57.863  0.00  0.00    +0.000 A 
ATOM     12  C   UNL     1     -10.949  11.790 -58.838  0.00  0.00    +0.000 A 
ATOM     13  C   UNL     1     -11.753  13.339 -56.654  0.00  0.00    +0.000 A 
ATOM     14  C   UNL     1     -11.299  11.176 -57.631  0.00  0.00    +0.000 A 
ATOM     15  C   UNL     1     -11.700  11.952 -56.545  0.00  0.00    +0.000 A 
ENDBRANCH   5  10
BRANCH   4  17
ATOM     16  N   UNL     1     -11.336  11.190 -62.230  0.00  0.00    +0.000 NA
ATOM     17  C   UNL     1     -10.330  11.894 -61.802  0.00  0.00    +0.000 C 
BRANCH  16  18
ATOM     18  O   UNL     1     -12.487  11.953 -62.448  0.00  0.00    +0.000 OA
BRANCH  18  19
ATOM     19  C   UNL     1     -13.614  11.280 -61.881  0.00  0.00    +0.000 C 
BRANCH  19  22
ATOM     20 CL   UNL     1     -14.505   9.954 -59.163  0.00  0.00    +0.000 Cl
ATOM     21 CL   UNL     1     -15.441  14.944 -57.456  0.00  0.00    +0.000 Cl
ATOM     22  C   UNL     1     -14.135  12.149 -60.766  0.00  0.00    +0.000 A 
ATOM     23  C   UNL     1     -14.516  11.643 -59.514  0.00  0.00    +0.000 A 
ATOM     24  C   UNL     1     -14.159  13.538 -60.969  0.00  0.00    +0.000 A 
ATOM     25  C   UNL     1     -14.925  12.507 -58.492  0.00  0.00    +0.000 A 
ATOM     26  C   UNL     1     -14.569  14.404 -59.949  0.00  0.00    +0.000 A 
ATOM     27  C   UNL     1     -14.947  13.880 -58.717  0.00  0.00    +0.000 A 
ENDBRANCH  19  22
ENDBRANCH  18  19
ENDBRANCH  16  18
ENDBRANCH   4  17
TORSDOF 5
ENDMDL
MODEL 9
REMARK VINA RESULT:      -4.5     17.669     19.510
REMARK  Name = 3632506
REMARK  5 active torsions:
REMARK  status: ('A' for Active; 'I' for Inactive)
REMARK    1  A    between atoms: O_5  and  N_8
REMARK    2  A    between atoms: O_5  and  C_21
REMARK    3  A    between atoms: C_9  and  C_14
REMARK    4  A    between atoms: C_10  and  C_12
REMARK    5  A    between atoms: C_20  and  C_21
REMARK                            x       y       z     vdW  Elec       q    Type
REMARK                         _______ _______ _______ _____ _____    ______ ____
ROOT
ATOM      1  S   UNL     1     -19.493  17.968 -42.845  0.00  0.00    +0.000 S 
ATOM      2  N   UNL     1     -17.993  16.362 -44.192  0.00  0.00    +0.000 N 
ATOM      3  N   UNL     1     -16.711  17.806 -43.065  0.00  0.00    +0.000 NA
ATOM      4  C   UNL     1     -16.702  16.004 -44.513  0.00  0.00    +0.000 A 
ATOM      5  C   UNL     1     -15.930  16.937 -43.806  0.00  0.00    +0.000 A 
ATOM      6  C   UNL     1     -17.922  17.433 -43.351  0.00  0.00    +0.000 A 
ATOM      7  C   UNL     1     -19.279  15.920 -44.435  0.00  0.00    +0.000 A 
ATOM      8  C   UNL     1     -20.202  16.674 -43.814  0.00  0.00    +0.000 A 
ENDROOT
BRANCH   5  10
ATOM      9 CL   UNL     1      -9.980  17.548 -43.734  0.00  0.00    +0.000 Cl
ATOM     10  C   UNL     1     -14.477  17.041 -43.773  0.00  0.00    +0.000 A 
ATOM     11  C   UNL     1     -13.890  18.186 -43.212  0.00  0.00    +0.000 A 
ATOM     12  C   UNL     1     -13.646  16.064 -44.337  0.00  0.00    +0.000 A 
ATOM     13  C   UNL     1     -12.502  18.345 -43.195  0.00  0.00    +0.000 A 
ATOM     14  C   UNL     1     -12.255  16.218 -44.315  0.00  0.00    +0.000 A 
ATOM     15  C   UNL     1     -11.689  17.356 -43.744  0.00  0.00    +0.000 A 
ENDBRANCH   5  10
BRANCH   4  17
ATOM     16  N   UNL     1     -16.217  14.705 -46.567  0.00  0.00    +0.000 NA
ATOM     17  C   UNL     1     -16.257  14.870 -45.278  0.00  0.00    +0.000 C 
BRANCH  16  18
ATOM     18  O   UNL     1     -16.556  15.859 -47.279  0.00  0.00    +0.000 OA
BRANCH  18  19
ATOM     19  C   UNL     1     -15.524  16.153 -48.223  0.00  0.00    +0.000 C 
BRANCH  19  22
ATOM     20 CL   UNL     1     -12.378  16.041 -48.396  0.00  0.00    +0.000 Cl
ATOM     21 CL   UNL     1     -12.441  20.875 -46.089  0.00  0.00    +0.000 Cl
ATOM     22  C   UNL     1     -14.707  17.282 -47.650  0.00  0.00    +0.000 A 
ATOM     23  C   UNL     1     -13.307  17.327 -47.718  0.00  0.00    +0.000 A 
ATOM     24  C   UNL     1     -15.392  18.375 -47.095  0.00  0.00    +0.000 A 
ATOM     25  C   UNL     1     -12.606  18.435 -47.232  0.00  0.00    +0.000 A 
ATOM     26  C   UNL     1     -14.693  19.484 -46.606  0.00  0.00    +0.000 A 
ATOM     27  C   UNL     1     -13.304  19.505 -46.680  0.00  0.00    +0.000 A 
ENDBRANCH  19  22
ENDBRANCH  18  19
ENDBRANCH  16  18
ENDBRANCH   4  17
TORSDOF 5
ENDMDL
MODEL 10
REMARK VINA RESULT:      -4.4      6.864      9.181
REMARK  Name = 3632506
REMARK  5 active torsions:
REMARK  status: ('A' for Active; 'I' for Inactive)
REMARK    1  A    between atoms: O_5  and  N_8
REMARK    2  A    between atoms: O_5  and  C_21
REMARK    3  A    between atoms: C_9  and  C_14
REMARK    4  A    between atoms: C_10  and  C_12
REMARK    5  A    between atoms: C_20  and  C_21
REMARK                            x       y       z     vdW  Elec       q    Type
REMARK                         _______ _______ _______ _____ _____    ______ ____
ROOT
ATOM      1  S   UNL     1     -17.974  10.102 -33.934  0.00  0.00    +0.000 S 
ATOM      2  N   UNL     1     -16.080   8.423 -34.421  0.00  0.00    +0.000 N 
ATOM      3  N   UNL     1     -15.647   9.495 -32.508  0.00  0.00    +0.000 NA
ATOM      4  C   UNL     1     -14.886   7.888 -33.985  0.00  0.00    +0.000 A 
ATOM      5  C   UNL     1     -14.639   8.593 -32.798  0.00  0.00    +0.000 A 
ATOM      6  C   UNL     1     -16.459   9.367 -33.513  0.00  0.00    +0.000 A 
ATOM      7  C   UNL     1     -16.982   8.235 -35.450  0.00  0.00    +0.000 A 
ATOM      8  C   UNL     1     -18.037   9.062 -35.359  0.00  0.00    +0.000 A 
ENDROOT
BRANCH   5  10
ATOM      9 CL   UNL     1      -9.907   8.163 -29.166  0.00  0.00    +0.000 Cl
ATOM     10  C   UNL     1     -13.501   8.445 -31.901  0.00  0.00    +0.000 A 
ATOM     11  C   UNL     1     -13.168   9.506 -31.045  0.00  0.00    +0.000 A 
ATOM     12  C   UNL     1     -12.690   7.301 -31.906  0.00  0.00    +0.000 A 
ATOM     13  C   UNL     1     -12.060   9.422 -30.196  0.00  0.00    +0.000 A 
ATOM     14  C   UNL     1     -11.586   7.212 -31.052  0.00  0.00    +0.000 A 
ATOM     15  C   UNL     1     -11.276   8.271 -30.201  0.00  0.00    +0.000 A 
ENDBRANCH   5  10
BRANCH   4  17
ATOM     16  N   UNL     1     -13.271   6.778 -35.502  0.00  0.00    +0.000 NA
ATOM     17  C   UNL     1     -14.149   6.786 -34.543  0.00  0.00    +0.000 C 
BRANCH  16  18
ATOM     18  O   UNL     1     -12.941   8.058 -35.955  0.00  0.00    +0.000 OA
BRANCH  18  19
ATOM     19  C   UNL     1     -11.541   8.112 -36.241  0.00  0.00    +0.000 C 
BRANCH  19  22
ATOM     20 CL   UNL     1      -9.256   6.479 -34.811  0.00  0.00    +0.000 Cl
ATOM     21 CL   UNL     1      -8.782  10.700 -31.547  0.00  0.00    +0.000 Cl
ATOM     22  C   UNL     1     -10.862   8.691 -35.027  0.00  0.00    +0.000 A 
ATOM     23  C   UNL     1      -9.813   8.047 -34.355  0.00  0.00    +0.000 A 
ATOM     24  C   UNL     1     -11.249   9.973 -34.603  0.00  0.00    +0.000 A 
ATOM     25  C   UNL     1      -9.173   8.665 -33.276  0.00  0.00    +0.000 A 
ATOM     26  C   UNL     1     -10.612  10.593 -33.524  0.00  0.00    +0.000 A 
ATOM     27  C   UNL     1      -9.576   9.933 -32.870  0.00  0.00    +0.000 A 
ENDBRANCH  19  22
ENDBRANCH  18  19
ENDBRANCH  16  18
ENDBRANCH   4  17
TORSDOF 5
ENDMDL
