MODEL 1
REMARK VINA RESULT:      -5.8      0.000      0.000
REMARK  Name = 3710775
REMARK  6 active torsions:
REMARK  status: ('A' for Active; 'I' for Inactive)
REMARK    1  A    between atoms: O_4  and  N_7
REMARK    2  A    between atoms: O_4  and  C_22
REMARK    3  A    between atoms: C_8  and  C_10
REMARK    4  A    between atoms: C_9  and  C_15
REMARK    5  A    between atoms: C_16  and  C_20
REMARK    6  A    between atoms: C_21  and  C_22
REMARK                            x       y       z     vdW  Elec       q    Type
REMARK                         _______ _______ _______ _____ _____    ______ ____
ROOT
ATOM      1  S   UNL     1      -5.556 -10.347   9.600  0.00  0.00    +0.000 S 
ATOM      2  N   UNL     1      -3.714 -10.657  11.365  0.00  0.00    +0.000 N 
ATOM      3  N   UNL     1      -5.326 -12.157  11.735  0.00  0.00    +0.000 NA
ATOM      4  C   UNL     1      -4.318 -12.282  12.684  0.00  0.00    +0.000 A 
ATOM      5  C   UNL     1      -3.293 -11.351  12.474  0.00  0.00    +0.000 A 
ATOM      6  C   UNL     1      -4.925 -11.161  11.001  0.00  0.00    +0.000 A 
ATOM      7  C   UNL     1      -3.234  -9.655  10.545  0.00  0.00    +0.000 A 
ATOM      8  C   UNL     1      -4.097  -9.347   9.566  0.00  0.00    +0.000 A 
ENDROOT
BRANCH   4   9
ATOM      9  C   UNL     1      -4.367 -13.301  13.727  0.00  0.00    +0.000 A 
ATOM     10  C   UNL     1      -3.470 -14.375  13.691  0.00  0.00    +0.000 A 
ATOM     11  C   UNL     1      -5.294 -13.236  14.776  0.00  0.00    +0.000 A 
ATOM     12  C   UNL     1      -4.329 -15.215  15.801  0.00  0.00    +0.000 A 
ATOM     13  C   UNL     1      -3.448 -15.326  14.720  0.00  0.00    +0.000 A 
ATOM     14  C   UNL     1      -5.261 -14.175  15.812  0.00  0.00    +0.000 A 
ATOM     15  C   UNL     1      -4.289 -16.183  16.946  0.00  0.00    +0.000 C 
ENDBRANCH   4   9
BRANCH   5  17
ATOM     16  N   UNL     1      -1.845 -10.632  14.321  0.00  0.00    +0.000 NA
ATOM     17  C   UNL     1      -2.039 -11.181  13.158  0.00  0.00    +0.000 C 
BRANCH  16  18
ATOM     18  O   UNL     1      -3.056 -10.340  14.961  0.00  0.00    +0.000 OA
BRANCH  18  19
ATOM     19  C   UNL     1      -2.995 -10.722  16.337  0.00  0.00    +0.000 C 
BRANCH  19  22
ATOM     20 CL   UNL     1      -3.724 -12.003  19.148  0.00  0.00    +0.000 Cl
ATOM     21 CL   UNL     1      -8.662 -10.093  18.312  0.00  0.00    +0.000 Cl
ATOM     22  C   UNL     1      -4.387 -10.571  16.901  0.00  0.00    +0.000 A 
ATOM     23  C   UNL     1      -4.801 -11.125  18.121  0.00  0.00    +0.000 A 
ATOM     24  C   UNL     1      -5.327  -9.847  16.141  0.00  0.00    +0.000 A 
ATOM     25  C   UNL     1      -6.122 -10.973  18.559  0.00  0.00    +0.000 A 
ATOM     26  C   UNL     1      -6.641  -9.689  16.579  0.00  0.00    +0.000 A 
ATOM     27  C   UNL     1      -7.034 -10.262  17.783  0.00  0.00    +0.000 A 
ENDBRANCH  19  22
ENDBRANCH  18  19
ENDBRANCH  16  18
ENDBRANCH   5  17
TORSDOF 5
ENDMDL
MODEL 2
REMARK VINA RESULT:      -5.6      4.164      6.718
REMARK  Name = 3710775
REMARK  6 active torsions:
REMARK  status: ('A' for Active; 'I' for Inactive)
REMARK    1  A    between atoms: O_4  and  N_7
REMARK    2  A    between atoms: O_4  and  C_22
REMARK    3  A    between atoms: C_8  and  C_10
REMARK    4  A    between atoms: C_9  and  C_15
REMARK    5  A    between atoms: C_16  and  C_20
REMARK    6  A    between atoms: C_21  and  C_22
REMARK                            x       y       z     vdW  Elec       q    Type
REMARK                         _______ _______ _______ _____ _____    ______ ____
ROOT
ATOM      1  S   UNL     1     -10.096  -8.319  17.517  0.00  0.00    +0.000 S 
ATOM      2  N   UNL     1      -9.197 -10.251  16.080  0.00  0.00    +0.000 N 
ATOM      3  N   UNL     1      -7.469  -9.141  16.955  0.00  0.00    +0.000 NA
ATOM      4  C   UNL     1      -7.022 -10.184  16.154  0.00  0.00    +0.000 A 
ATOM      5  C   UNL     1      -8.088 -10.898  15.592  0.00  0.00    +0.000 A 
ATOM      6  C   UNL     1      -8.764  -9.214  16.848  0.00  0.00    +0.000 A 
ATOM      7  C   UNL     1     -10.570 -10.395  16.024  0.00  0.00    +0.000 A 
ATOM      8  C   UNL     1     -11.207  -9.437  16.714  0.00  0.00    +0.000 A 
ENDROOT
BRANCH   4   9
ATOM      9  C   UNL     1      -5.601 -10.468  15.986  0.00  0.00    +0.000 A 
ATOM     10  C   UNL     1      -5.041 -10.479  14.703  0.00  0.00    +0.000 A 
ATOM     11  C   UNL     1      -4.768 -10.733  17.083  0.00  0.00    +0.000 A 
ATOM     12  C   UNL     1      -2.830 -10.869  15.626  0.00  0.00    +0.000 A 
ATOM     13  C   UNL     1      -3.667 -10.677  14.521  0.00  0.00    +0.000 A 
ATOM     14  C   UNL     1      -3.393 -10.914  16.903  0.00  0.00    +0.000 A 
ATOM     15  C   UNL     1      -1.347 -11.024  15.467  0.00  0.00    +0.000 C 
ENDBRANCH   4   9
BRANCH   5  17
ATOM     16  N   UNL     1      -8.147 -12.147  13.479  0.00  0.00    +0.000 NA
ATOM     17  C   UNL     1      -8.084 -12.084  14.778  0.00  0.00    +0.000 C 
BRANCH  16  18
ATOM     18  O   UNL     1      -8.057 -10.877  12.897  0.00  0.00    +0.000 OA
BRANCH  18  19
ATOM     19  C   UNL     1      -7.848 -10.990  11.487  0.00  0.00    +0.000 C 
BRANCH  19  22
ATOM     20 CL   UNL     1      -5.588 -13.208  11.281  0.00  0.00    +0.000 Cl
ATOM     21 CL   UNL     1      -2.187  -9.133  10.535  0.00  0.00    +0.000 Cl
ATOM     22  C   UNL     1      -6.417 -10.592  11.218  0.00  0.00    +0.000 A 
ATOM     23  C   UNL     1      -5.354 -11.502  11.136  0.00  0.00    +0.000 A 
ATOM     24  C   UNL     1      -6.138  -9.220  11.061  0.00  0.00    +0.000 A 
ATOM     25  C   UNL     1      -4.046 -11.051  10.920  0.00  0.00    +0.000 A 
ATOM     26  C   UNL     1      -4.838  -8.770  10.839  0.00  0.00    +0.000 A 
ATOM     27  C   UNL     1      -3.796  -9.688  10.780  0.00  0.00    +0.000 A 
ENDBRANCH  19  22
ENDBRANCH  18  19
ENDBRANCH  16  18
ENDBRANCH   5  17
TORSDOF 5
ENDMDL
MODEL 3
REMARK VINA RESULT:      -5.5      4.499      7.181
REMARK  Name = 3710775
REMARK  6 active torsions:
REMARK  status: ('A' for Active; 'I' for Inactive)
REMARK    1  A    between atoms: O_4  and  N_7
REMARK    2  A    between atoms: O_4  and  C_22
REMARK    3  A    between atoms: C_8  and  C_10
REMARK    4  A    between atoms: C_9  and  C_15
REMARK    5  A    between atoms: C_16  and  C_20
REMARK    6  A    between atoms: C_21  and  C_22
REMARK                            x       y       z     vdW  Elec       q    Type
REMARK                         _______ _______ _______ _____ _____    ______ ____
ROOT
ATOM      1  S   UNL     1     -11.132  -6.886  16.124  0.00  0.00    +0.000 S 
ATOM      2  N   UNL     1      -9.820  -8.900  15.214  0.00  0.00    +0.000 N 
ATOM      3  N   UNL     1      -8.906  -8.259  17.148  0.00  0.00    +0.000 NA
ATOM      4  C   UNL     1      -8.210  -9.337  16.614  0.00  0.00    +0.000 A 
ATOM      5  C   UNL     1      -8.764  -9.759  15.398  0.00  0.00    +0.000 A 
ATOM      6  C   UNL     1      -9.828  -8.029  16.260  0.00  0.00    +0.000 A 
ATOM      7  C   UNL     1     -10.845  -8.723  14.305  0.00  0.00    +0.000 A 
ATOM      8  C   UNL     1     -11.626  -7.679  14.622  0.00  0.00    +0.000 A 
ENDROOT
BRANCH   4   9
ATOM      9  C   UNL     1      -7.069  -9.931  17.302  0.00  0.00    +0.000 A 
ATOM     10  C   UNL     1      -7.238 -10.494  18.572  0.00  0.00    +0.000 A 
ATOM     11  C   UNL     1      -5.792  -9.956  16.723  0.00  0.00    +0.000 A 
ATOM     12  C   UNL     1      -4.922 -11.220  18.606  0.00  0.00    +0.000 A 
ATOM     13  C   UNL     1      -6.176 -11.135  19.221  0.00  0.00    +0.000 A 
ATOM     14  C   UNL     1      -4.735 -10.611  17.363  0.00  0.00    +0.000 A 
ATOM     15  C   UNL     1      -3.781 -11.951  19.249  0.00  0.00    +0.000 C 
ENDBRANCH   4   9
BRANCH   5  17
ATOM     16  N   UNL     1      -7.797 -10.832  13.413  0.00  0.00    +0.000 NA
ATOM     17  C   UNL     1      -8.416 -10.873  14.557  0.00  0.00    +0.000 C 
BRANCH  16  18
ATOM     18  O   UNL     1      -7.331  -9.544  13.126  0.00  0.00    +0.000 OA
BRANCH  18  19
ATOM     19  C   UNL     1      -5.942  -9.581  12.793  0.00  0.00    +0.000 C 
BRANCH  19  22
ATOM     20 CL   UNL     1      -3.457 -11.011  11.432  0.00  0.00    +0.000 Cl
ATOM     21 CL   UNL     1      -5.736  -9.693   6.763  0.00  0.00    +0.000 Cl
ATOM     22  C   UNL     1      -5.849  -9.671  11.288  0.00  0.00    +0.000 A 
ATOM     23  C   UNL     1      -4.776 -10.262  10.605  0.00  0.00    +0.000 A 
ATOM     24  C   UNL     1      -6.895  -9.106  10.532  0.00  0.00    +0.000 A 
ATOM     25  C   UNL     1      -4.743 -10.272   9.205  0.00  0.00    +0.000 A 
ATOM     26  C   UNL     1      -6.867  -9.122   9.139  0.00  0.00    +0.000 A 
ATOM     27  C   UNL     1      -5.786  -9.697   8.482  0.00  0.00    +0.000 A 
ENDBRANCH  19  22
ENDBRANCH  18  19
ENDBRANCH  16  18
ENDBRANCH   5  17
TORSDOF 5
ENDMDL
MODEL 4
REMARK VINA RESULT:      -5.4      3.400      5.507
REMARK  Name = 3710775
REMARK  6 active torsions:
REMARK  status: ('A' for Active; 'I' for Inactive)
REMARK    1  A    between atoms: O_4  and  N_7
REMARK    2  A    between atoms: O_4  and  C_22
REMARK    3  A    between atoms: C_8  and  C_10
REMARK    4  A    between atoms: C_9  and  C_15
REMARK    5  A    between atoms: C_16  and  C_20
REMARK    6  A    between atoms: C_21  and  C_22
REMARK                            x       y       z     vdW  Elec       q    Type
REMARK                         _______ _______ _______ _____ _____    ______ ____
ROOT
ATOM      1  S   UNL     1      -8.451 -10.916  16.140  0.00  0.00    +0.000 S 
ATOM      2  N   UNL     1      -5.900 -10.954  16.451  0.00  0.00    +0.000 N 
ATOM      3  N   UNL     1      -6.557 -12.930  15.646  0.00  0.00    +0.000 NA
ATOM      4  C   UNL     1      -5.182 -12.919  15.846  0.00  0.00    +0.000 A 
ATOM      5  C   UNL     1      -4.743 -11.688  16.352  0.00  0.00    +0.000 A 
ATOM      6  C   UNL     1      -6.928 -11.750  16.049  0.00  0.00    +0.000 A 
ATOM      7  C   UNL     1      -6.267  -9.669  16.803  0.00  0.00    +0.000 A 
ATOM      8  C   UNL     1      -7.592  -9.482  16.718  0.00  0.00    +0.000 A 
ENDROOT
BRANCH   4   9
ATOM      9  C   UNL     1      -4.348 -14.070  15.518  0.00  0.00    +0.000 A 
ATOM     10  C   UNL     1      -3.478 -14.010  14.424  0.00  0.00    +0.000 A 
ATOM     11  C   UNL     1      -4.392 -15.249  16.276  0.00  0.00    +0.000 A 
ATOM     12  C   UNL     1      -2.613 -16.219  14.937  0.00  0.00    +0.000 A 
ATOM     13  C   UNL     1      -2.615 -15.074  14.133  0.00  0.00    +0.000 A 
ATOM     14  C   UNL     1      -3.518 -16.305  15.996  0.00  0.00    +0.000 A 
ATOM     15  C   UNL     1      -1.659 -17.350  14.686  0.00  0.00    +0.000 C 
ENDBRANCH   4   9
BRANCH   5  17
ATOM     16  N   UNL     1      -2.568 -10.707  15.775  0.00  0.00    +0.000 NA
ATOM     17  C   UNL     1      -3.412 -11.218  16.625  0.00  0.00    +0.000 C 
BRANCH  16  18
ATOM     18  O   UNL     1      -3.160 -10.498  14.524  0.00  0.00    +0.000 OA
BRANCH  18  19
ATOM     19  C   UNL     1      -2.181 -10.599  13.488  0.00  0.00    +0.000 C 
BRANCH  19  22
ATOM     20 CL   UNL     1      -0.707  -8.976  11.194  0.00  0.00    +0.000 Cl
ATOM     21 CL   UNL     1      -5.261  -9.504   8.416  0.00  0.00    +0.000 Cl
ATOM     22  C   UNL     1      -2.887 -10.321  12.182  0.00  0.00    +0.000 A 
ATOM     23  C   UNL     1      -2.320  -9.592  11.127  0.00  0.00    +0.000 A 
ATOM     24  C   UNL     1      -4.200 -10.808  12.031  0.00  0.00    +0.000 A 
ATOM     25  C   UNL     1      -3.053  -9.342   9.960  0.00  0.00    +0.000 A 
ATOM     26  C   UNL     1      -4.928 -10.567  10.867  0.00  0.00    +0.000 A 
ATOM     27  C   UNL     1      -4.354  -9.827   9.841  0.00  0.00    +0.000 A 
ENDBRANCH  19  22
ENDBRANCH  18  19
ENDBRANCH  16  18
ENDBRANCH   5  17
TORSDOF 5
ENDMDL
MODEL 5
REMARK VINA RESULT:      -5.4     22.628     25.763
REMARK  Name = 3710775
REMARK  6 active torsions:
REMARK  status: ('A' for Active; 'I' for Inactive)
REMARK    1  A    between atoms: O_4  and  N_7
REMARK    2  A    between atoms: O_4  and  C_22
REMARK    3  A    between atoms: C_8  and  C_10
REMARK    4  A    between atoms: C_9  and  C_15
REMARK    5  A    between atoms: C_16  and  C_20
REMARK    6  A    between atoms: C_21  and  C_22
REMARK                            x       y       z     vdW  Elec       q    Type
REMARK                         _______ _______ _______ _____ _____    ______ ____
ROOT
ATOM      1  S   UNL     1     -13.674   0.555  30.172  0.00  0.00    +0.000 S 
ATOM      2  N   UNL     1     -15.427   2.295  30.881  0.00  0.00    +0.000 N 
ATOM      3  N   UNL     1     -13.461   2.846  31.784  0.00  0.00    +0.000 NA
ATOM      4  C   UNL     1     -14.440   3.756  32.161  0.00  0.00    +0.000 A 
ATOM      5  C   UNL     1     -15.687   3.432  31.607  0.00  0.00    +0.000 A 
ATOM      6  C   UNL     1     -14.112   1.991  31.051  0.00  0.00    +0.000 A 
ATOM      7  C   UNL     1     -16.114   1.445  30.036  0.00  0.00    +0.000 A 
ATOM      8  C   UNL     1     -15.339   0.447  29.586  0.00  0.00    +0.000 A 
ENDROOT
BRANCH   4   9
ATOM      9  C   UNL     1     -14.137   4.904  33.007  0.00  0.00    +0.000 A 
ATOM     10  C   UNL     1     -14.169   4.769  34.400  0.00  0.00    +0.000 A 
ATOM     11  C   UNL     1     -13.811   6.154  32.463  0.00  0.00    +0.000 A 
ATOM     12  C   UNL     1     -13.416   7.059  34.681  0.00  0.00    +0.000 A 
ATOM     13  C   UNL     1     -13.810   5.836  35.233  0.00  0.00    +0.000 A 
ATOM     14  C   UNL     1     -13.437   7.215  33.294  0.00  0.00    +0.000 A 
ATOM     15  C   UNL     1     -12.970   8.201  35.546  0.00  0.00    +0.000 C 
ENDBRANCH   4   9
BRANCH   5  17
ATOM     16  N   UNL     1     -17.443   4.926  30.765  0.00  0.00    +0.000 NA
ATOM     17  C   UNL     1     -16.940   4.136  31.668  0.00  0.00    +0.000 C 
BRANCH  16  18
ATOM     18  O   UNL     1     -16.685   4.912  29.588  0.00  0.00    +0.000 OA
BRANCH  18  19
ATOM     19  C   UNL     1     -17.256   5.793  28.618  0.00  0.00    +0.000 C 
BRANCH  19  22
ATOM     20 CL   UNL     1     -18.468   7.160  26.023  0.00  0.00    +0.000 Cl
ATOM     21 CL   UNL     1     -16.756   2.814  23.394  0.00  0.00    +0.000 Cl
ATOM     22  C   UNL     1     -17.134   5.113  27.275  0.00  0.00    +0.000 A 
ATOM     23  C   UNL     1     -17.661   5.633  26.084  0.00  0.00    +0.000 A 
ATOM     24  C   UNL     1     -16.469   3.872  27.227  0.00  0.00    +0.000 A 
ATOM     25  C   UNL     1     -17.541   4.924  24.883  0.00  0.00    +0.000 A 
ATOM     26  C   UNL     1     -16.341   3.168  26.031  0.00  0.00    +0.000 A 
ATOM     27  C   UNL     1     -16.887   3.694  24.866  0.00  0.00    +0.000 A 
ENDBRANCH  19  22
ENDBRANCH  18  19
ENDBRANCH  16  18
ENDBRANCH   5  17
TORSDOF 5
ENDMDL
MODEL 6
REMARK VINA RESULT:      -5.3     15.756     18.613
REMARK  Name = 3710775
REMARK  6 active torsions:
REMARK  status: ('A' for Active; 'I' for Inactive)
REMARK    1  A    between atoms: O_4  and  N_7
REMARK    2  A    between atoms: O_4  and  C_22
REMARK    3  A    between atoms: C_8  and  C_10
REMARK    4  A    between atoms: C_9  and  C_15
REMARK    5  A    between atoms: C_16  and  C_20
REMARK    6  A    between atoms: C_21  and  C_22
REMARK                            x       y       z     vdW  Elec       q    Type
REMARK                         _______ _______ _______ _____ _____    ______ ____
ROOT
ATOM      1  S   UNL     1       1.797 -16.598  -7.250  0.00  0.00    +0.000 S 
ATOM      2  N   UNL     1       1.787 -14.761  -5.453  0.00  0.00    +0.000 N 
ATOM      3  N   UNL     1       3.050 -16.458  -4.741  0.00  0.00    +0.000 NA
ATOM      4  C   UNL     1       3.006 -15.451  -3.785  0.00  0.00    +0.000 A 
ATOM      5  C   UNL     1       2.217 -14.372  -4.208  0.00  0.00    +0.000 A 
ATOM      6  C   UNL     1       2.287 -16.004  -5.691  0.00  0.00    +0.000 A 
ATOM      7  C   UNL     1       1.043 -14.228  -6.488  0.00  0.00    +0.000 A 
ATOM      8  C   UNL     1       0.927 -15.081  -7.517  0.00  0.00    +0.000 A 
ENDROOT
BRANCH   4   9
ATOM      9  C   UNL     1       3.738 -15.552  -2.528  0.00  0.00    +0.000 A 
ATOM     10  C   UNL     1       3.997 -14.397  -1.780  0.00  0.00    +0.000 A 
ATOM     11  C   UNL     1       4.194 -16.784  -2.038  0.00  0.00    +0.000 A 
ATOM     12  C   UNL     1       5.023 -15.718  -0.020  0.00  0.00    +0.000 A 
ATOM     13  C   UNL     1       4.633 -14.476  -0.535  0.00  0.00    +0.000 A 
ATOM     14  C   UNL     1       4.815 -16.865  -0.787  0.00  0.00    +0.000 A 
ATOM     15  C   UNL     1       5.652 -15.840   1.336  0.00  0.00    +0.000 C 
ENDBRANCH   4   9
BRANCH   5  17
ATOM     16  N   UNL     1       1.022 -12.819  -2.729  0.00  0.00    +0.000 NA
ATOM     17  C   UNL     1       1.966 -13.104  -3.579  0.00  0.00    +0.000 C 
BRANCH  16  18
ATOM     18  O   UNL     1       0.321 -13.966  -2.336  0.00  0.00    +0.000 OA
BRANCH  18  19
ATOM     19  C   UNL     1      -0.251 -13.779  -1.040  0.00  0.00    +0.000 C 
BRANCH  19  22
ATOM     20 CL   UNL     1       0.098 -16.887  -1.576  0.00  0.00    +0.000 Cl
ATOM     21 CL   UNL     1       2.850 -16.988   3.022  0.00  0.00    +0.000 Cl
ATOM     22  C   UNL     1       0.541 -14.630  -0.077  0.00  0.00    +0.000 A 
ATOM     23  C   UNL     1       0.724 -16.013  -0.224  0.00  0.00    +0.000 A 
ATOM     24  C   UNL     1       1.110 -13.995   1.044  0.00  0.00    +0.000 A 
ATOM     25  C   UNL     1       1.442 -16.741   0.732  0.00  0.00    +0.000 A 
ATOM     26  C   UNL     1       1.831 -14.717   1.993  0.00  0.00    +0.000 A 
ATOM     27  C   UNL     1       1.985 -16.090   1.837  0.00  0.00    +0.000 A 
ENDBRANCH  19  22
ENDBRANCH  18  19
ENDBRANCH  16  18
ENDBRANCH   5  17
TORSDOF 5
ENDMDL
MODEL 7
REMARK VINA RESULT:      -5.3     29.721     31.665
REMARK  Name = 3710775
REMARK  6 active torsions:
REMARK  status: ('A' for Active; 'I' for Inactive)
REMARK    1  A    between atoms: O_4  and  N_7
REMARK    2  A    between atoms: O_4  and  C_22
REMARK    3  A    between atoms: C_8  and  C_10
REMARK    4  A    between atoms: C_9  and  C_15
REMARK    5  A    between atoms: C_16  and  C_20
REMARK    6  A    between atoms: C_21  and  C_22
REMARK                            x       y       z     vdW  Elec       q    Type
REMARK                         _______ _______ _______ _____ _____    ______ ____
ROOT
ATOM      1  S   UNL     1      -0.350  19.827  25.087  0.00  0.00    +0.000 S 
ATOM      2  N   UNL     1       0.377  17.646  23.936  0.00  0.00    +0.000 N 
ATOM      3  N   UNL     1       2.198  18.738  24.626  0.00  0.00    +0.000 NA
ATOM      4  C   UNL     1       2.553  17.560  23.981  0.00  0.00    +0.000 A 
ATOM      5  C   UNL     1       1.426  16.855  23.536  0.00  0.00    +0.000 A 
ATOM      6  C   UNL     1       0.900  18.747  24.542  0.00  0.00    +0.000 A 
ATOM      7  C   UNL     1      -1.004  17.599  23.914  0.00  0.00    +0.000 A 
ATOM      8  C   UNL     1      -1.555  18.691  24.464  0.00  0.00    +0.000 A 
ENDROOT
BRANCH   4   9
ATOM      9  C   UNL     1       3.945  17.149  23.842  0.00  0.00    +0.000 A 
ATOM     10  C   UNL     1       4.250  15.905  23.280  0.00  0.00    +0.000 A 
ATOM     11  C   UNL     1       5.000  17.973  24.260  0.00  0.00    +0.000 A 
ATOM     12  C   UNL     1       6.627  16.376  23.422  0.00  0.00    +0.000 A 
ATOM     13  C   UNL     1       5.579  15.518  23.069  0.00  0.00    +0.000 A 
ATOM     14  C   UNL     1       6.328  17.594  24.034  0.00  0.00    +0.000 A 
ATOM     15  C   UNL     1       8.058  16.015  23.155  0.00  0.00    +0.000 C 
ENDBRANCH   4   9
BRANCH   5  17
ATOM     16  N   UNL     1       1.292  15.320  21.625  0.00  0.00    +0.000 NA
ATOM     17  C   UNL     1       1.327  15.568  22.902  0.00  0.00    +0.000 C 
BRANCH  16  18
ATOM     18  O   UNL     1       1.530  16.476  20.870  0.00  0.00    +0.000 OA
BRANCH  18  19
ATOM     19  C   UNL     1       2.434  16.192  19.800  0.00  0.00    +0.000 C 
BRANCH  19  22
ATOM     20 CL   UNL     1       5.334  15.108  19.101  0.00  0.00    +0.000 Cl
ATOM     21 CL   UNL     1       7.111  19.876  20.786  0.00  0.00    +0.000 Cl
ATOM     22  C   UNL     1       3.642  17.078  19.994  0.00  0.00    +0.000 A 
ATOM     23  C   UNL     1       4.959  16.672  19.734  0.00  0.00    +0.000 A 
ATOM     24  C   UNL     1       3.427  18.381  20.485  0.00  0.00    +0.000 A 
ATOM     25  C   UNL     1       6.031  17.539  19.975  0.00  0.00    +0.000 A 
ATOM     26  C   UNL     1       4.493  19.248  20.718  0.00  0.00    +0.000 A 
ATOM     27  C   UNL     1       5.792  18.818  20.471  0.00  0.00    +0.000 A 
ENDBRANCH  19  22
ENDBRANCH  18  19
ENDBRANCH  16  18
ENDBRANCH   5  17
TORSDOF 5
ENDMDL
MODEL 8
REMARK VINA RESULT:      -5.2     25.386     27.386
REMARK  Name = 3710775
REMARK  6 active torsions:
REMARK  status: ('A' for Active; 'I' for Inactive)
REMARK    1  A    between atoms: O_4  and  N_7
REMARK    2  A    between atoms: O_4  and  C_22
REMARK    3  A    between atoms: C_8  and  C_10
REMARK    4  A    between atoms: C_9  and  C_15
REMARK    5  A    between atoms: C_16  and  C_20
REMARK    6  A    between atoms: C_21  and  C_22
REMARK                            x       y       z     vdW  Elec       q    Type
REMARK                         _______ _______ _______ _____ _____    ______ ____
ROOT
ATOM      1  S   UNL     1      -5.463 -11.190  40.291  0.00  0.00    +0.000 S 
ATOM      2  N   UNL     1      -5.967  -8.766  39.602  0.00  0.00    +0.000 N 
ATOM      3  N   UNL     1      -4.094  -8.795  40.816  0.00  0.00    +0.000 NA
ATOM      4  C   UNL     1      -4.409  -7.495  40.440  0.00  0.00    +0.000 A 
ATOM      5  C   UNL     1      -5.583  -7.449  39.676  0.00  0.00    +0.000 A 
ATOM      6  C   UNL     1      -5.067  -9.497  40.315  0.00  0.00    +0.000 A 
ATOM      7  C   UNL     1      -6.961  -9.507  38.992  0.00  0.00    +0.000 A 
ATOM      8  C   UNL     1      -6.859 -10.815  39.271  0.00  0.00    +0.000 A 
ENDROOT
BRANCH   4   9
ATOM      9  C   UNL     1      -3.563  -6.364  40.802  0.00  0.00    +0.000 A 
ATOM     10  C   UNL     1      -2.570  -5.927  39.918  0.00  0.00    +0.000 A 
ATOM     11  C   UNL     1      -3.716  -5.691  42.023  0.00  0.00    +0.000 A 
ATOM     12  C   UNL     1      -2.001  -4.089  41.398  0.00  0.00    +0.000 A 
ATOM     13  C   UNL     1      -1.794  -4.799  40.210  0.00  0.00    +0.000 A 
ATOM     14  C   UNL     1      -2.953  -4.554  42.307  0.00  0.00    +0.000 A 
ATOM     15  C   UNL     1      -1.228  -2.843  41.711  0.00  0.00    +0.000 C 
ENDBRANCH   4   9
BRANCH   5  17
ATOM     16  N   UNL     1      -7.269  -5.683  39.426  0.00  0.00    +0.000 NA
ATOM     17  C   UNL     1      -6.221  -6.339  39.021  0.00  0.00    +0.000 C 
BRANCH  16  18
ATOM     18  O   UNL     1      -7.656  -6.075  40.713  0.00  0.00    +0.000 OA
BRANCH  18  19
ATOM     19  C   UNL     1      -7.500  -4.990  41.631  0.00  0.00    +0.000 C 
BRANCH  19  22
ATOM     20 CL   UNL     1      -9.915  -6.216  43.284  0.00  0.00    +0.000 Cl
ATOM     21 CL   UNL     1     -12.725  -1.972  41.606  0.00  0.00    +0.000 Cl
ATOM     22  C   UNL     1      -8.824  -4.266  41.691  0.00  0.00    +0.000 A 
ATOM     23  C   UNL     1      -9.949  -4.747  42.375  0.00  0.00    +0.000 A 
ATOM     24  C   UNL     1      -8.934  -3.045  40.997  0.00  0.00    +0.000 A 
ATOM     25  C   UNL     1     -11.154  -4.036  42.353  0.00  0.00    +0.000 A 
ATOM     26  C   UNL     1     -10.131  -2.331  40.979  0.00  0.00    +0.000 A 
ATOM     27  C   UNL     1     -11.239  -2.836  41.650  0.00  0.00    +0.000 A 
ENDBRANCH  19  22
ENDBRANCH  18  19
ENDBRANCH  16  18
ENDBRANCH   5  17
TORSDOF 5
ENDMDL
MODEL 9
REMARK VINA RESULT:      -5.2     25.655     27.884
REMARK  Name = 3710775
REMARK  6 active torsions:
REMARK  status: ('A' for Active; 'I' for Inactive)
REMARK    1  A    between atoms: O_4  and  N_7
REMARK    2  A    between atoms: O_4  and  C_22
REMARK    3  A    between atoms: C_8  and  C_10
REMARK    4  A    between atoms: C_9  and  C_15
REMARK    5  A    between atoms: C_16  and  C_20
REMARK    6  A    between atoms: C_21  and  C_22
REMARK                            x       y       z     vdW  Elec       q    Type
REMARK                         _______ _______ _______ _____ _____    ______ ____
ROOT
ATOM      1  S   UNL     1      22.770  -9.774  25.314  0.00  0.00    +0.000 S 
ATOM      2  N   UNL     1      21.872  -7.956  23.735  0.00  0.00    +0.000 N 
ATOM      3  N   UNL     1      22.433  -7.010  25.677  0.00  0.00    +0.000 NA
ATOM      4  C   UNL     1      21.924  -6.058  24.802  0.00  0.00    +0.000 A 
ATOM      5  C   UNL     1      21.563  -6.627  23.573  0.00  0.00    +0.000 A 
ATOM      6  C   UNL     1      22.350  -8.116  24.999  0.00  0.00    +0.000 A 
ATOM      7  C   UNL     1      21.857  -9.108  22.972  0.00  0.00    +0.000 A 
ATOM      8  C   UNL     1      22.280 -10.177  23.662  0.00  0.00    +0.000 A 
ENDROOT
BRANCH   4   9
ATOM      9  C   UNL     1      21.832  -4.649  25.167  0.00  0.00    +0.000 A 
ATOM     10  C   UNL     1      22.980  -3.962  25.579  0.00  0.00    +0.000 A 
ATOM     11  C   UNL     1      20.616  -3.954  25.117  0.00  0.00    +0.000 A 
ATOM     12  C   UNL     1      21.729  -1.888  25.743  0.00  0.00    +0.000 A 
ATOM     13  C   UNL     1      22.932  -2.591  25.864  0.00  0.00    +0.000 A 
ATOM     14  C   UNL     1      20.571  -2.582  25.385  0.00  0.00    +0.000 A 
ATOM     15  C   UNL     1      21.658  -0.409  25.984  0.00  0.00    +0.000 C 
ENDBRANCH   4   9
BRANCH   5  17
ATOM     16  N   UNL     1      19.837  -5.828  22.021  0.00  0.00    +0.000 NA
ATOM     17  C   UNL     1      21.079  -6.007  22.369  0.00  0.00    +0.000 C 
BRANCH  16  18
ATOM     18  O   UNL     1      18.958  -6.173  23.055  0.00  0.00    +0.000 OA
BRANCH  18  19
ATOM     19  C   UNL     1      17.632  -5.740  22.744  0.00  0.00    +0.000 C 
BRANCH  19  22
ATOM     20 CL   UNL     1      16.622  -5.321  25.723  0.00  0.00    +0.000 Cl
ATOM     21 CL   UNL     1      16.972  -0.071  24.703  0.00  0.00    +0.000 Cl
ATOM     22  C   UNL     1      17.477  -4.347  23.303  0.00  0.00    +0.000 A 
ATOM     23  C   UNL     1      17.015  -4.070  24.598  0.00  0.00    +0.000 A 
ATOM     24  C   UNL     1      17.799  -3.263  22.462  0.00  0.00    +0.000 A 
ATOM     25  C   UNL     1      16.862  -2.748  25.032  0.00  0.00    +0.000 A 
ATOM     26  C   UNL     1      17.655  -1.947  22.895  0.00  0.00    +0.000 A 
ATOM     27  C   UNL     1      17.178  -1.695  24.176  0.00  0.00    +0.000 A 
ENDBRANCH  19  22
ENDBRANCH  18  19
ENDBRANCH  16  18
ENDBRANCH   5  17
TORSDOF 5
ENDMDL
MODEL 10
REMARK VINA RESULT:      -5.1     21.651     24.385
REMARK  Name = 3710775
REMARK  6 active torsions:
REMARK  status: ('A' for Active; 'I' for Inactive)
REMARK    1  A    between atoms: O_4  and  N_7
REMARK    2  A    between atoms: O_4  and  C_22
REMARK    3  A    between atoms: C_8  and  C_10
REMARK    4  A    between atoms: C_9  and  C_15
REMARK    5  A    between atoms: C_16  and  C_20
REMARK    6  A    between atoms: C_21  and  C_22
REMARK                            x       y       z     vdW  Elec       q    Type
REMARK                         _______ _______ _______ _____ _____    ______ ____
ROOT
ATOM      1  S   UNL     1     -16.411  10.315  18.388  0.00  0.00    +0.000 S 
ATOM      2  N   UNL     1     -14.871   8.746  19.719  0.00  0.00    +0.000 N 
ATOM      3  N   UNL     1     -15.042  10.685  20.812  0.00  0.00    +0.000 NA
ATOM      4  C   UNL     1     -14.200   9.815  21.494  0.00  0.00    +0.000 A 
ATOM      5  C   UNL     1     -14.075   8.589  20.828  0.00  0.00    +0.000 A 
ATOM      6  C   UNL     1     -15.384  10.006  19.757  0.00  0.00    +0.000 A 
ATOM      7  C   UNL     1     -15.292   7.981  18.649  0.00  0.00    +0.000 A 
ATOM      8  C   UNL     1     -16.099   8.667  17.825  0.00  0.00    +0.000 A 
ENDROOT
BRANCH   4   9
ATOM      9  C   UNL     1     -13.578  10.183  22.761  0.00  0.00    +0.000 A 
ATOM     10  C   UNL     1     -12.393  10.928  22.763  0.00  0.00    +0.000 A 
ATOM     11  C   UNL     1     -14.136   9.810  23.991  0.00  0.00    +0.000 A 
ATOM     12  C   UNL     1     -12.418  11.041  25.187  0.00  0.00    +0.000 A 
ATOM     13  C   UNL     1     -11.816  11.356  23.965  0.00  0.00    +0.000 A 
ATOM     14  C   UNL     1     -13.570  10.251  25.192  0.00  0.00    +0.000 A 
ATOM     15  C   UNL     1     -11.857  11.535  26.488  0.00  0.00    +0.000 C 
ENDBRANCH   4   9
BRANCH   5  17
ATOM     16  N   UNL     1     -12.145   7.076  20.945  0.00  0.00    +0.000 NA
ATOM     17  C   UNL     1     -13.380   7.390  21.213  0.00  0.00    +0.000 C 
BRANCH  16  18
ATOM     18  O   UNL     1     -11.462   8.141  20.346  0.00  0.00    +0.000 OA
BRANCH  18  19
ATOM     19  C   UNL     1     -11.176   7.841  18.978  0.00  0.00    +0.000 C 
BRANCH  19  22
ATOM     20 CL   UNL     1     -10.405   7.884  15.900  0.00  0.00    +0.000 Cl
ATOM     21 CL   UNL     1      -9.766  13.169  16.522  0.00  0.00    +0.000 Cl
ATOM     22  C   UNL     1     -10.845   9.147  18.297  0.00  0.00    +0.000 A 
ATOM     23  C   UNL     1     -10.470   9.255  16.950  0.00  0.00    +0.000 A 
ATOM     24  C   UNL     1     -10.896  10.322  19.074  0.00  0.00    +0.000 A 
ATOM     25  C   UNL     1     -10.141  10.499  16.400  0.00  0.00    +0.000 A 
ATOM     26  C   UNL     1     -10.575  11.563  18.526  0.00  0.00    +0.000 A 
ATOM     27  C   UNL     1     -10.190  11.643  17.193  0.00  0.00    +0.000 A 
ENDBRANCH  19  22
ENDBRANCH  18  19
ENDBRANCH  16  18
ENDBRANCH   5  17
TORSDOF 5
ENDMDL
