MODEL 1
REMARK VINA RESULT:      -5.9      0.000      0.000
REMARK  Name = 3710775
REMARK  6 active torsions:
REMARK  status: ('A' for Active; 'I' for Inactive)
REMARK    1  A    between atoms: O_4  and  N_7
REMARK    2  A    between atoms: O_4  and  C_22
REMARK    3  A    between atoms: C_8  and  C_10
REMARK    4  A    between atoms: C_9  and  C_15
REMARK    5  A    between atoms: C_16  and  C_20
REMARK    6  A    between atoms: C_21  and  C_22
REMARK                            x       y       z     vdW  Elec       q    Type
REMARK                         _______ _______ _______ _____ _____    ______ ____
ROOT
ATOM      1  S   UNL     1     -12.099   3.737 -31.563  0.00  0.00    +0.000 S 
ATOM      2  N   UNL     1     -12.236   5.140 -33.712  0.00  0.00    +0.000 N 
ATOM      3  N   UNL     1     -10.116   4.516 -33.393  0.00  0.00    +0.000 NA
ATOM      4  C   UNL     1     -10.227   5.294 -34.539  0.00  0.00    +0.000 A 
ATOM      5  C   UNL     1     -11.549   5.700 -34.762  0.00  0.00    +0.000 A 
ATOM      6  C   UNL     1     -11.333   4.485 -32.933  0.00  0.00    +0.000 A 
ATOM      7  C   UNL     1     -13.546   5.045 -33.284  0.00  0.00    +0.000 A 
ATOM      8  C   UNL     1     -13.654   4.353 -32.140  0.00  0.00    +0.000 A 
ENDROOT
BRANCH   4   9
ATOM      9  C   UNL     1      -9.073   5.589 -35.381  0.00  0.00    +0.000 A 
ATOM     10  C   UNL     1      -8.355   4.542 -35.968  0.00  0.00    +0.000 A 
ATOM     11  C   UNL     1      -8.657   6.906 -35.623  0.00  0.00    +0.000 A 
ATOM     12  C   UNL     1      -6.925   6.120 -37.133  0.00  0.00    +0.000 A 
ATOM     13  C   UNL     1      -7.289   4.802 -36.839  0.00  0.00    +0.000 A 
ATOM     14  C   UNL     1      -7.604   7.167 -36.506  0.00  0.00    +0.000 A 
ATOM     15  C   UNL     1      -5.827   6.431 -38.107  0.00  0.00    +0.000 C 
ENDBRANCH   4   9
BRANCH   5  17
ATOM     16  N   UNL     1     -12.409   7.706 -35.886  0.00  0.00    +0.000 NA
ATOM     17  C   UNL     1     -12.122   6.436 -35.856  0.00  0.00    +0.000 C 
BRANCH  16  18
ATOM     18  O   UNL     1     -11.941   8.366 -34.744  0.00  0.00    +0.000 OA
BRANCH  18  19
ATOM     19  C   UNL     1     -11.220   9.544 -35.111  0.00  0.00    +0.000 C 
BRANCH  19  22
ATOM     20 CL   UNL     1     -10.639  12.613 -34.553  0.00  0.00    +0.000 Cl
ATOM     21 CL   UNL     1      -7.811  10.922 -30.326  0.00  0.00    +0.000 Cl
ATOM     22  C   UNL     1     -10.400   9.955 -33.912  0.00  0.00    +0.000 A 
ATOM     23  C   UNL     1     -10.076  11.284 -33.604  0.00  0.00    +0.000 A 
ATOM     24  C   UNL     1      -9.919   8.936 -33.067  0.00  0.00    +0.000 A 
ATOM     25  C   UNL     1      -9.278  11.583 -32.493  0.00  0.00    +0.000 A 
ATOM     26  C   UNL     1      -9.131   9.232 -31.956  0.00  0.00    +0.000 A 
ATOM     27  C   UNL     1      -8.807  10.555 -31.680  0.00  0.00    +0.000 A 
ENDBRANCH  19  22
ENDBRANCH  18  19
ENDBRANCH  16  18
ENDBRANCH   5  17
TORSDOF 5
ENDMDL
MODEL 2
REMARK VINA RESULT:      -5.4      4.012      7.122
REMARK  Name = 3710775
REMARK  6 active torsions:
REMARK  status: ('A' for Active; 'I' for Inactive)
REMARK    1  A    between atoms: O_4  and  N_7
REMARK    2  A    between atoms: O_4  and  C_22
REMARK    3  A    between atoms: C_8  and  C_10
REMARK    4  A    between atoms: C_9  and  C_15
REMARK    5  A    between atoms: C_16  and  C_20
REMARK    6  A    between atoms: C_21  and  C_22
REMARK                            x       y       z     vdW  Elec       q    Type
REMARK                         _______ _______ _______ _____ _____    ______ ____
ROOT
ATOM      1  S   UNL     1     -15.021   2.261 -32.533  0.00  0.00    +0.000 S 
ATOM      2  N   UNL     1     -14.193   4.689 -32.687  0.00  0.00    +0.000 N 
ATOM      3  N   UNL     1     -16.368   4.636 -33.189  0.00  0.00    +0.000 NA
ATOM      4  C   UNL     1     -15.880   5.934 -33.279  0.00  0.00    +0.000 A 
ATOM      5  C   UNL     1     -14.514   5.995 -32.969  0.00  0.00    +0.000 A 
ATOM      6  C   UNL     1     -15.317   3.942 -32.862  0.00  0.00    +0.000 A 
ATOM      7  C   UNL     1     -13.088   3.980 -32.258  0.00  0.00    +0.000 A 
ATOM      8  C   UNL     1     -13.343   2.668 -32.145  0.00  0.00    +0.000 A 
ENDROOT
BRANCH   4   9
ATOM      9  C   UNL     1     -16.742   7.057 -33.630  0.00  0.00    +0.000 A 
ATOM     10  C   UNL     1     -17.665   7.542 -32.696  0.00  0.00    +0.000 A 
ATOM     11  C   UNL     1     -16.674   7.672 -34.887  0.00  0.00    +0.000 A 
ATOM     12  C   UNL     1     -18.327   9.318 -34.212  0.00  0.00    +0.000 A 
ATOM     13  C   UNL     1     -18.452   8.665 -32.981  0.00  0.00    +0.000 A 
ATOM     14  C   UNL     1     -17.448   8.804 -35.166  0.00  0.00    +0.000 A 
ATOM     15  C   UNL     1     -19.113  10.557 -34.524  0.00  0.00    +0.000 C 
ENDBRANCH   4   9
BRANCH   5  17
ATOM     16  N   UNL     1     -12.808   7.572 -33.760  0.00  0.00    +0.000 NA
ATOM     17  C   UNL     1     -13.637   7.129 -32.860  0.00  0.00    +0.000 C 
BRANCH  16  18
ATOM     18  O   UNL     1     -12.963   6.900 -34.979  0.00  0.00    +0.000 OA
BRANCH  18  19
ATOM     19  C   UNL     1     -12.100   7.462 -35.969  0.00  0.00    +0.000 C 
BRANCH  19  22
ATOM     20 CL   UNL     1      -9.164   7.930 -34.860  0.00  0.00    +0.000 Cl
ATOM     21 CL   UNL     1      -7.915   3.323 -37.299  0.00  0.00    +0.000 Cl
ATOM     22  C   UNL     1     -11.016   6.447 -36.240  0.00  0.00    +0.000 A 
ATOM     23  C   UNL     1      -9.689   6.585 -35.811  0.00  0.00    +0.000 A 
ATOM     24  C   UNL     1     -11.361   5.304 -36.989  0.00  0.00    +0.000 A 
ATOM     25  C   UNL     1      -8.731   5.617 -36.134  0.00  0.00    +0.000 A 
ATOM     26  C   UNL     1     -10.410   4.336 -37.306  0.00  0.00    +0.000 A 
ATOM     27  C   UNL     1      -9.097   4.502 -36.885  0.00  0.00    +0.000 A 
ENDBRANCH  19  22
ENDBRANCH  18  19
ENDBRANCH  16  18
ENDBRANCH   5  17
TORSDOF 5
ENDMDL
MODEL 3
REMARK VINA RESULT:      -5.3      3.851      6.385
REMARK  Name = 3710775
REMARK  6 active torsions:
REMARK  status: ('A' for Active; 'I' for Inactive)
REMARK    1  A    between atoms: O_4  and  N_7
REMARK    2  A    between atoms: O_4  and  C_22
REMARK    3  A    between atoms: C_8  and  C_10
REMARK    4  A    between atoms: C_9  and  C_15
REMARK    5  A    between atoms: C_16  and  C_20
REMARK    6  A    between atoms: C_21  and  C_22
REMARK                            x       y       z     vdW  Elec       q    Type
REMARK                         _______ _______ _______ _____ _____    ______ ____
ROOT
ATOM      1  S   UNL     1      -9.236  13.813 -33.092  0.00  0.00    +0.000 S 
ATOM      2  N   UNL     1      -9.145  11.380 -32.269  0.00  0.00    +0.000 N 
ATOM      3  N   UNL     1      -9.878  11.400 -34.378  0.00  0.00    +0.000 NA
ATOM      4  C   UNL     1      -9.833  10.100 -33.891  0.00  0.00    +0.000 A 
ATOM      5  C   UNL     1      -9.376  10.059 -32.567  0.00  0.00    +0.000 A 
ATOM      6  C   UNL     1      -9.487  12.114 -33.363  0.00  0.00    +0.000 A 
ATOM      7  C   UNL     1      -8.647  12.116 -31.211  0.00  0.00    +0.000 A 
ATOM      8  C   UNL     1      -8.646  13.433 -31.468  0.00  0.00    +0.000 A 
ENDROOT
BRANCH   4   9
ATOM      9  C   UNL     1     -10.201   8.956 -34.719  0.00  0.00    +0.000 A 
ATOM     10  C   UNL     1      -9.362   7.836 -34.769  0.00  0.00    +0.000 A 
ATOM     11  C   UNL     1     -11.382   8.944 -35.474  0.00  0.00    +0.000 A 
ATOM     12  C   UNL     1     -10.943   6.665 -36.191  0.00  0.00    +0.000 A 
ATOM     13  C   UNL     1      -9.729   6.698 -35.497  0.00  0.00    +0.000 A 
ATOM     14  C   UNL     1     -11.756   7.801 -36.188  0.00  0.00    +0.000 A 
ATOM     15  C   UNL     1     -11.390   5.439 -36.931  0.00  0.00    +0.000 C 
ENDBRANCH   4   9
BRANCH   5  17
ATOM     16  N   UNL     1      -9.950   8.283 -30.972  0.00  0.00    +0.000 NA
ATOM     17  C   UNL     1      -9.101   8.934 -31.714  0.00  0.00    +0.000 C 
BRANCH  16  18
ATOM     18  O   UNL     1     -11.265   8.699 -31.209  0.00  0.00    +0.000 OA
BRANCH  18  19
ATOM     19  C   UNL     1     -12.180   7.636 -30.933  0.00  0.00    +0.000 C 
BRANCH  19  22
ATOM     20 CL   UNL     1     -12.062   5.084 -32.816  0.00  0.00    +0.000 Cl
ATOM     21 CL   UNL     1     -15.886   7.498 -35.694  0.00  0.00    +0.000 Cl
ATOM     22  C   UNL     1     -13.105   7.527 -32.122  0.00  0.00    +0.000 A 
ATOM     23  C   UNL     1     -13.102   6.449 -33.018  0.00  0.00    +0.000 A 
ATOM     24  C   UNL     1     -14.006   8.586 -32.350  0.00  0.00    +0.000 A 
ATOM     25  C   UNL     1     -13.965   6.438 -34.121  0.00  0.00    +0.000 A 
ATOM     26  C   UNL     1     -14.871   8.573 -33.443  0.00  0.00    +0.000 A 
ATOM     27  C   UNL     1     -14.839   7.503 -34.328  0.00  0.00    +0.000 A 
ENDBRANCH  19  22
ENDBRANCH  18  19
ENDBRANCH  16  18
ENDBRANCH   5  17
TORSDOF 5
ENDMDL
MODEL 4
REMARK VINA RESULT:      -5.2     23.692     25.753
REMARK  Name = 3710775
REMARK  6 active torsions:
REMARK  status: ('A' for Active; 'I' for Inactive)
REMARK    1  A    between atoms: O_4  and  N_7
REMARK    2  A    between atoms: O_4  and  C_22
REMARK    3  A    between atoms: C_8  and  C_10
REMARK    4  A    between atoms: C_9  and  C_15
REMARK    5  A    between atoms: C_16  and  C_20
REMARK    6  A    between atoms: C_21  and  C_22
REMARK                            x       y       z     vdW  Elec       q    Type
REMARK                         _______ _______ _______ _____ _____    ______ ____
ROOT
ATOM      1  S   UNL     1     -17.469  14.190 -59.826  0.00  0.00    +0.000 S 
ATOM      2  N   UNL     1     -16.082  12.032 -59.657  0.00  0.00    +0.000 N 
ATOM      3  N   UNL     1     -15.097  13.410 -61.112  0.00  0.00    +0.000 NA
ATOM      4  C   UNL     1     -14.384  12.222 -61.007  0.00  0.00    +0.000 A 
ATOM      5  C   UNL     1     -14.982  11.338 -60.100  0.00  0.00    +0.000 A 
ATOM      6  C   UNL     1     -16.105  13.225 -60.311  0.00  0.00    +0.000 A 
ATOM      7  C   UNL     1     -17.100  11.855 -58.740  0.00  0.00    +0.000 A 
ATOM      8  C   UNL     1     -17.944  12.897 -58.715  0.00  0.00    +0.000 A 
ENDROOT
BRANCH   4   9
ATOM      9  C   UNL     1     -13.152  11.997 -61.756  0.00  0.00    +0.000 A 
ATOM     10  C   UNL     1     -13.216  11.565 -63.086  0.00  0.00    +0.000 A 
ATOM     11  C   UNL     1     -11.892  12.202 -61.178  0.00  0.00    +0.000 A 
ATOM     12  C   UNL     1     -10.800  11.688 -63.286  0.00  0.00    +0.000 A 
ATOM     13  C   UNL     1     -12.051  11.412 -63.848  0.00  0.00    +0.000 A 
ATOM     14  C   UNL     1     -10.729  12.066 -61.943  0.00  0.00    +0.000 A 
ATOM     15  C   UNL     1      -9.540  11.591 -64.093  0.00  0.00    +0.000 C 
ENDBRANCH   4   9
BRANCH   5  17
ATOM     16  N   UNL     1     -13.703   9.807 -58.670  0.00  0.00    +0.000 NA
ATOM     17  C   UNL     1     -14.545  10.050 -59.632  0.00  0.00    +0.000 C 
BRANCH  16  18
ATOM     18  O   UNL     1     -13.356  10.976 -57.982  0.00  0.00    +0.000 OA
BRANCH  18  19
ATOM     19  C   UNL     1     -11.958  10.979 -57.681  0.00  0.00    +0.000 C 
BRANCH  19  22
ATOM     20 CL   UNL     1     -11.457  14.074 -58.172  0.00  0.00    +0.000 Cl
ATOM     21 CL   UNL     1     -11.058  14.469 -52.842  0.00  0.00    +0.000 Cl
ATOM     22  C   UNL     1     -11.759  11.910 -56.510  0.00  0.00    +0.000 A 
ATOM     23  C   UNL     1     -11.507  13.284 -56.636  0.00  0.00    +0.000 A 
ATOM     24  C   UNL     1     -11.808  11.355 -55.216  0.00  0.00    +0.000 A 
ATOM     25  C   UNL     1     -11.294  14.076 -55.502  0.00  0.00    +0.000 A 
ATOM     26  C   UNL     1     -11.604  12.143 -54.085  0.00  0.00    +0.000 A 
ATOM     27  C   UNL     1     -11.338  13.499 -54.234  0.00  0.00    +0.000 A 
ENDBRANCH  19  22
ENDBRANCH  18  19
ENDBRANCH  16  18
ENDBRANCH   5  17
TORSDOF 5
ENDMDL
MODEL 5
REMARK VINA RESULT:      -5.2     12.561     14.632
REMARK  Name = 3710775
REMARK  6 active torsions:
REMARK  status: ('A' for Active; 'I' for Inactive)
REMARK    1  A    between atoms: O_4  and  N_7
REMARK    2  A    between atoms: O_4  and  C_22
REMARK    3  A    between atoms: C_8  and  C_10
REMARK    4  A    between atoms: C_9  and  C_15
REMARK    5  A    between atoms: C_16  and  C_20
REMARK    6  A    between atoms: C_21  and  C_22
REMARK                            x       y       z     vdW  Elec       q    Type
REMARK                         _______ _______ _______ _____ _____    ______ ____
ROOT
ATOM      1  S   UNL     1      -7.974  17.938 -43.049  0.00  0.00    +0.000 S 
ATOM      2  N   UNL     1      -6.703  16.432 -44.699  0.00  0.00    +0.000 N 
ATOM      3  N   UNL     1      -6.210  15.796 -42.616  0.00  0.00    +0.000 NA
ATOM      4  C   UNL     1      -5.525  15.014 -43.538  0.00  0.00    +0.000 A 
ATOM      5  C   UNL     1      -5.817  15.394 -44.855  0.00  0.00    +0.000 A 
ATOM      6  C   UNL     1      -6.867  16.634 -43.363  0.00  0.00    +0.000 A 
ATOM      7  C   UNL     1      -7.460  17.258 -45.506  0.00  0.00    +0.000 A 
ATOM      8  C   UNL     1      -8.180  18.138 -44.795  0.00  0.00    +0.000 A 
ENDROOT
BRANCH   4   9
ATOM      9  C   UNL     1      -4.648  13.926 -43.122  0.00  0.00    +0.000 A 
ATOM     10  C   UNL     1      -3.698  14.144 -42.116  0.00  0.00    +0.000 A 
ATOM     11  C   UNL     1      -4.727  12.653 -43.703  0.00  0.00    +0.000 A 
ATOM     12  C   UNL     1      -3.030  11.812 -42.184  0.00  0.00    +0.000 A 
ATOM     13  C   UNL     1      -2.895  13.097 -41.648  0.00  0.00    +0.000 A 
ATOM     14  C   UNL     1      -3.937  11.603 -43.224  0.00  0.00    +0.000 A 
ATOM     15  C   UNL     1      -2.226  10.658 -41.662  0.00  0.00    +0.000 C 
ENDBRANCH   4   9
BRANCH   5  17
ATOM     16  N   UNL     1      -4.257  14.974 -46.703  0.00  0.00    +0.000 NA
ATOM     17  C   UNL     1      -5.400  14.812 -46.103  0.00  0.00    +0.000 C 
BRANCH  16  18
ATOM     18  O   UNL     1      -3.352  15.684 -45.905  0.00  0.00    +0.000 OA
BRANCH  18  19
ATOM     19  C   UNL     1      -2.019  15.517 -46.394  0.00  0.00    +0.000 C 
BRANCH  19  22
ATOM     20 CL   UNL     1      -0.724  16.887 -43.842  0.00  0.00    +0.000 Cl
ATOM     21 CL   UNL     1       1.014  11.981 -42.559  0.00  0.00    +0.000 Cl
ATOM     22  C   UNL     1      -1.276  14.681 -45.381  0.00  0.00    +0.000 A 
ATOM     23  C   UNL     1      -0.653  15.207 -44.239  0.00  0.00    +0.000 A 
ATOM     24  C   UNL     1      -1.188  13.294 -45.612  0.00  0.00    +0.000 A 
ATOM     25  C   UNL     1       0.052  14.371 -43.365  0.00  0.00    +0.000 A 
ATOM     26  C   UNL     1      -0.493  12.460 -44.739  0.00  0.00    +0.000 A 
ATOM     27  C   UNL     1       0.132  13.005 -43.623  0.00  0.00    +0.000 A 
ENDBRANCH  19  22
ENDBRANCH  18  19
ENDBRANCH  16  18
ENDBRANCH   5  17
TORSDOF 5
ENDMDL
MODEL 6
REMARK VINA RESULT:      -5.2     23.850     26.202
REMARK  Name = 3710775
REMARK  6 active torsions:
REMARK  status: ('A' for Active; 'I' for Inactive)
REMARK    1  A    between atoms: O_4  and  N_7
REMARK    2  A    between atoms: O_4  and  C_22
REMARK    3  A    between atoms: C_8  and  C_10
REMARK    4  A    between atoms: C_9  and  C_15
REMARK    5  A    between atoms: C_16  and  C_20
REMARK    6  A    between atoms: C_21  and  C_22
REMARK                            x       y       z     vdW  Elec       q    Type
REMARK                         _______ _______ _______ _____ _____    ______ ____
ROOT
ATOM      1  S   UNL     1     -21.549  14.040 -55.982  0.00  0.00    +0.000 S 
ATOM      2  N   UNL     1     -20.289  11.992 -56.889  0.00  0.00    +0.000 N 
ATOM      3  N   UNL     1     -22.479  11.560 -56.915  0.00  0.00    +0.000 NA
ATOM      4  C   UNL     1     -21.762  10.466 -57.382  0.00  0.00    +0.000 A 
ATOM      5  C   UNL     1     -20.383  10.711 -57.376  0.00  0.00    +0.000 A 
ATOM      6  C   UNL     1     -21.551  12.420 -56.612  0.00  0.00    +0.000 A 
ATOM      7  C   UNL     1     -19.298  12.925 -56.653  0.00  0.00    +0.000 A 
ATOM      8  C   UNL     1     -19.788  14.066 -56.146  0.00  0.00    +0.000 A 
ENDROOT
BRANCH   4   9
ATOM      9  C   UNL     1     -22.426   9.250 -57.838  0.00  0.00    +0.000 A 
ATOM     10  C   UNL     1     -23.694   8.922 -57.342  0.00  0.00    +0.000 A 
ATOM     11  C   UNL     1     -21.828   8.390 -58.770  0.00  0.00    +0.000 A 
ATOM     12  C   UNL     1     -23.810   6.986 -58.802  0.00  0.00    +0.000 A 
ATOM     13  C   UNL     1     -24.383   7.800 -57.819  0.00  0.00    +0.000 A 
ATOM     14  C   UNL     1     -22.523   7.279 -59.259  0.00  0.00    +0.000 A 
ATOM     15  C   UNL     1     -24.547   5.812 -59.375  0.00  0.00    +0.000 C 
ENDBRANCH   4   9
BRANCH   5  17
ATOM     16  N   UNL     1     -18.746   8.886 -57.234  0.00  0.00    +0.000 NA
ATOM     17  C   UNL     1     -19.293   9.898 -57.845  0.00  0.00    +0.000 C 
BRANCH  16  18
ATOM     18  O   UNL     1     -19.455   8.538 -56.078  0.00  0.00    +0.000 OA
BRANCH  18  19
ATOM     19  C   UNL     1     -19.178   7.184 -55.714  0.00  0.00    +0.000 C 
BRANCH  19  22
ATOM     20 CL   UNL     1     -21.704   8.081 -54.015  0.00  0.00    +0.000 Cl
ATOM     21 CL   UNL     1     -24.209   3.893 -56.231  0.00  0.00    +0.000 Cl
ATOM     22  C   UNL     1     -20.476   6.421 -55.824  0.00  0.00    +0.000 A 
ATOM     23  C   UNL     1     -21.632   6.733 -55.093  0.00  0.00    +0.000 A 
ATOM     24  C   UNL     1     -20.516   5.318 -56.700  0.00  0.00    +0.000 A 
ATOM     25  C   UNL     1     -22.787   5.953 -55.222  0.00  0.00    +0.000 A 
ATOM     26  C   UNL     1     -21.668   4.546 -56.835  0.00  0.00    +0.000 A 
ATOM     27  C   UNL     1     -22.796   4.862 -56.087  0.00  0.00    +0.000 A 
ENDBRANCH  19  22
ENDBRANCH  18  19
ENDBRANCH  16  18
ENDBRANCH   5  17
TORSDOF 5
ENDMDL
MODEL 7
REMARK VINA RESULT:      -5.2     14.715     15.988
REMARK  Name = 3710775
REMARK  6 active torsions:
REMARK  status: ('A' for Active; 'I' for Inactive)
REMARK    1  A    between atoms: O_4  and  N_7
REMARK    2  A    between atoms: O_4  and  C_22
REMARK    3  A    between atoms: C_8  and  C_10
REMARK    4  A    between atoms: C_9  and  C_15
REMARK    5  A    between atoms: C_16  and  C_20
REMARK    6  A    between atoms: C_21  and  C_22
REMARK                            x       y       z     vdW  Elec       q    Type
REMARK                         _______ _______ _______ _____ _____    ______ ____
ROOT
ATOM      1  S   UNL     1     -19.753  17.246 -42.710  0.00  0.00    +0.000 S 
ATOM      2  N   UNL     1     -18.124  15.858 -44.133  0.00  0.00    +0.000 N 
ATOM      3  N   UNL     1     -16.959  17.366 -42.970  0.00  0.00    +0.000 NA
ATOM      4  C   UNL     1     -16.112  16.608 -43.768  0.00  0.00    +0.000 A 
ATOM      5  C   UNL     1     -16.819  15.652 -44.510  0.00  0.00    +0.000 A 
ATOM      6  C   UNL     1     -18.138  16.895 -43.252  0.00  0.00    +0.000 A 
ATOM      7  C   UNL     1     -19.359  15.290 -44.378  0.00  0.00    +0.000 A 
ATOM      8  C   UNL     1     -20.344  15.919 -43.720  0.00  0.00    +0.000 A 
ENDROOT
BRANCH   4   9
ATOM      9  C   UNL     1     -14.668  16.810 -43.765  0.00  0.00    +0.000 A 
ATOM     10  C   UNL     1     -13.842  15.944 -44.492  0.00  0.00    +0.000 A 
ATOM     11  C   UNL     1     -14.073  17.858 -43.048  0.00  0.00    +0.000 A 
ATOM     12  C   UNL     1     -11.883  17.251 -43.905  0.00  0.00    +0.000 A 
ATOM     13  C   UNL     1     -12.461  16.161 -44.564  0.00  0.00    +0.000 A 
ATOM     14  C   UNL     1     -12.695  18.085 -43.134  0.00  0.00    +0.000 A 
ATOM     15  C   UNL     1     -10.416  17.543 -44.012  0.00  0.00    +0.000 C 
ENDBRANCH   4   9
BRANCH   5  17
ATOM     16  N   UNL     1     -16.307  14.645 -46.689  0.00  0.00    +0.000 NA
ATOM     17  C   UNL     1     -16.340  14.619 -45.389  0.00  0.00    +0.000 C 
BRANCH  16  18
ATOM     18  O   UNL     1     -16.655  15.906 -47.188  0.00  0.00    +0.000 OA
BRANCH  18  19
ATOM     19  C   UNL     1     -15.804  16.261 -48.281  0.00  0.00    +0.000 C 
BRANCH  19  22
ATOM     20 CL   UNL     1     -12.720  16.042 -48.995  0.00  0.00    +0.000 Cl
ATOM     21 CL   UNL     1     -12.102  20.445 -46.002  0.00  0.00    +0.000 Cl
ATOM     22  C   UNL     1     -14.832  17.296 -47.768  0.00  0.00    +0.000 A 
ATOM     23  C   UNL     1     -13.452  17.262 -48.014  0.00  0.00    +0.000 A 
ATOM     24  C   UNL     1     -15.346  18.343 -46.978  0.00  0.00    +0.000 A 
ATOM     25  C   UNL     1     -12.608  18.238 -47.471  0.00  0.00    +0.000 A 
ATOM     26  C   UNL     1     -14.508  19.320 -46.443  0.00  0.00    +0.000 A 
ATOM     27  C   UNL     1     -13.141  19.257 -46.685  0.00  0.00    +0.000 A 
ENDBRANCH  19  22
ENDBRANCH  18  19
ENDBRANCH  16  18
ENDBRANCH   5  17
TORSDOF 5
ENDMDL
MODEL 8
REMARK VINA RESULT:      -5.2     19.851     21.743
REMARK  Name = 3710775
REMARK  6 active torsions:
REMARK  status: ('A' for Active; 'I' for Inactive)
REMARK    1  A    between atoms: O_4  and  N_7
REMARK    2  A    between atoms: O_4  and  C_22
REMARK    3  A    between atoms: C_8  and  C_10
REMARK    4  A    between atoms: C_9  and  C_15
REMARK    5  A    between atoms: C_16  and  C_20
REMARK    6  A    between atoms: C_21  and  C_22
REMARK                            x       y       z     vdW  Elec       q    Type
REMARK                         _______ _______ _______ _____ _____    ______ ____
ROOT
ATOM      1  S   UNL     1      -4.693  -3.974 -49.780  0.00  0.00    +0.000 S 
ATOM      2  N   UNL     1      -6.500  -2.701 -51.090  0.00  0.00    +0.000 N 
ATOM      3  N   UNL     1      -4.690  -1.406 -50.916  0.00  0.00    +0.000 NA
ATOM      4  C   UNL     1      -5.699  -0.742 -51.605  0.00  0.00    +0.000 A 
ATOM      5  C   UNL     1      -6.848  -1.534 -51.727  0.00  0.00    +0.000 A 
ATOM      6  C   UNL     1      -5.235  -2.548 -50.614  0.00  0.00    +0.000 A 
ATOM      7  C   UNL     1      -7.063  -3.940 -50.851  0.00  0.00    +0.000 A 
ATOM      8  C   UNL     1      -6.247  -4.737 -50.145  0.00  0.00    +0.000 A 
ENDROOT
BRANCH   4   9
ATOM      9  C   UNL     1      -5.509   0.603 -52.136  0.00  0.00    +0.000 A 
ATOM     10  C   UNL     1      -4.911   1.587 -51.341  0.00  0.00    +0.000 A 
ATOM     11  C   UNL     1      -5.912   0.944 -53.435  0.00  0.00    +0.000 A 
ATOM     12  C   UNL     1      -4.992   3.176 -53.174  0.00  0.00    +0.000 A 
ATOM     13  C   UNL     1      -4.652   2.864 -51.853  0.00  0.00    +0.000 A 
ATOM     14  C   UNL     1      -5.638   2.215 -53.952  0.00  0.00    +0.000 A 
ATOM     15  C   UNL     1      -4.673   4.516 -53.769  0.00  0.00    +0.000 C 
ENDBRANCH   4   9
BRANCH   5  17
ATOM     16  N   UNL     1      -8.405  -1.677 -53.620  0.00  0.00    +0.000 NA
ATOM     17  C   UNL     1      -8.080  -1.280 -52.424  0.00  0.00    +0.000 C 
BRANCH  16  18
ATOM     18  O   UNL     1      -7.453  -2.560 -54.145  0.00  0.00    +0.000 OA
BRANCH  18  19
ATOM     19  C   UNL     1      -7.009  -2.107 -55.426  0.00  0.00    +0.000 C 
BRANCH  19  22
ATOM     20 CL   UNL     1      -5.438  -0.226 -57.441  0.00  0.00    +0.000 Cl
ATOM     21 CL   UNL     1      -0.985  -2.057 -55.087  0.00  0.00    +0.000 Cl
ATOM     22  C   UNL     1      -5.503  -2.026 -55.370  0.00  0.00    +0.000 A 
ATOM     23  C   UNL     1      -4.729  -1.241 -56.237  0.00  0.00    +0.000 A 
ATOM     24  C   UNL     1      -4.840  -2.804 -54.400  0.00  0.00    +0.000 A 
ATOM     25  C   UNL     1      -3.332  -1.248 -56.147  0.00  0.00    +0.000 A 
ATOM     26  C   UNL     1      -3.450  -2.806 -54.304  0.00  0.00    +0.000 A 
ATOM     27  C   UNL     1      -2.702  -2.035 -55.185  0.00  0.00    +0.000 A 
ENDBRANCH  19  22
ENDBRANCH  18  19
ENDBRANCH  16  18
ENDBRANCH   5  17
TORSDOF 5
ENDMDL
MODEL 9
REMARK VINA RESULT:      -5.1     23.122     26.740
REMARK  Name = 3710775
REMARK  6 active torsions:
REMARK  status: ('A' for Active; 'I' for Inactive)
REMARK    1  A    between atoms: O_4  and  N_7
REMARK    2  A    between atoms: O_4  and  C_22
REMARK    3  A    between atoms: C_8  and  C_10
REMARK    4  A    between atoms: C_9  and  C_15
REMARK    5  A    between atoms: C_16  and  C_20
REMARK    6  A    between atoms: C_21  and  C_22
REMARK                            x       y       z     vdW  Elec       q    Type
REMARK                         _______ _______ _______ _____ _____    ______ ____
ROOT
ATOM      1  S   UNL     1       1.627   6.085 -59.597  0.00  0.00    +0.000 S 
ATOM      2  N   UNL     1      -0.730   7.105 -59.493  0.00  0.00    +0.000 N 
ATOM      3  N   UNL     1      -0.552   5.539 -57.911  0.00  0.00    +0.000 NA
ATOM      4  C   UNL     1      -1.823   6.101 -57.898  0.00  0.00    +0.000 A 
ATOM      5  C   UNL     1      -1.961   7.088 -58.883  0.00  0.00    +0.000 A 
ATOM      6  C   UNL     1       0.037   6.154 -58.894  0.00  0.00    +0.000 A 
ATOM      7  C   UNL     1      -0.091   7.826 -60.483  0.00  0.00    +0.000 A 
ATOM      8  C   UNL     1       1.165   7.400 -60.686  0.00  0.00    +0.000 A 
ENDROOT
BRANCH   4   9
ATOM      9  C   UNL     1      -2.834   5.692 -56.931  0.00  0.00    +0.000 A 
ATOM     10  C   UNL     1      -3.543   4.501 -57.128  0.00  0.00    +0.000 A 
ATOM     11  C   UNL     1      -3.122   6.462 -55.795  0.00  0.00    +0.000 A 
ATOM     12  C   UNL     1      -4.696   4.787 -55.011  0.00  0.00    +0.000 A 
ATOM     13  C   UNL     1      -4.467   4.049 -56.177  0.00  0.00    +0.000 A 
ATOM     14  C   UNL     1      -4.031   6.003 -54.837  0.00  0.00    +0.000 A 
ATOM     15  C   UNL     1      -5.634   4.300 -53.947  0.00  0.00    +0.000 C 
ENDBRANCH   4   9
BRANCH   5  17
ATOM     16  N   UNL     1      -4.125   7.699 -59.869  0.00  0.00    +0.000 NA
ATOM     17  C   UNL     1      -3.062   7.969 -59.167  0.00  0.00    +0.000 C 
BRANCH  16  18
ATOM     18  O   UNL     1      -4.181   6.345 -60.218  0.00  0.00    +0.000 OA
BRANCH  18  19
ATOM     19  C   UNL     1      -4.832   6.183 -61.480  0.00  0.00    +0.000 C 
BRANCH  19  22
ATOM     20 CL   UNL     1      -5.972   4.959 -64.177  0.00  0.00    +0.000 Cl
ATOM     21 CL   UNL     1      -7.397   0.728 -61.211  0.00  0.00    +0.000 Cl
ATOM     22  C   UNL     1      -5.456   4.808 -61.484  0.00  0.00    +0.000 A 
ATOM     23  C   UNL     1      -6.006   4.203 -62.623  0.00  0.00    +0.000 A 
ATOM     24  C   UNL     1      -5.505   4.107 -60.263  0.00  0.00    +0.000 A 
ATOM     25  C   UNL     1      -6.603   2.939 -62.540  0.00  0.00    +0.000 A 
ATOM     26  C   UNL     1      -6.092   2.846 -60.180  0.00  0.00    +0.000 A 
ATOM     27  C   UNL     1      -6.647   2.272 -61.317  0.00  0.00    +0.000 A 
ENDBRANCH  19  22
ENDBRANCH  18  19
ENDBRANCH  16  18
ENDBRANCH   5  17
TORSDOF 5
ENDMDL
MODEL 10
REMARK VINA RESULT:      -5.1     21.128     23.022
REMARK  Name = 3710775
REMARK  6 active torsions:
REMARK  status: ('A' for Active; 'I' for Inactive)
REMARK    1  A    between atoms: O_4  and  N_7
REMARK    2  A    between atoms: O_4  and  C_22
REMARK    3  A    between atoms: C_8  and  C_10
REMARK    4  A    between atoms: C_9  and  C_15
REMARK    5  A    between atoms: C_16  and  C_20
REMARK    6  A    between atoms: C_21  and  C_22
REMARK                            x       y       z     vdW  Elec       q    Type
REMARK                         _______ _______ _______ _____ _____    ______ ____
ROOT
ATOM      1  S   UNL     1     -11.765  11.516 -60.081  0.00  0.00    +0.000 S 
ATOM      2  N   UNL     1     -11.716  11.389 -57.514  0.00  0.00    +0.000 N 
ATOM      3  N   UNL     1      -9.915  12.507 -58.214  0.00  0.00    +0.000 NA
ATOM      4  C   UNL     1      -9.914  12.402 -56.829  0.00  0.00    +0.000 A 
ATOM      5  C   UNL     1     -11.035  11.702 -56.363  0.00  0.00    +0.000 A 
ATOM      6  C   UNL     1     -10.991  11.864 -58.563  0.00  0.00    +0.000 A 
ATOM      7  C   UNL     1     -12.905  10.777 -57.863  0.00  0.00    +0.000 A 
ATOM      8  C   UNL     1     -13.081  10.736 -59.192  0.00  0.00    +0.000 A 
ENDROOT
BRANCH   4   9
ATOM      9  C   UNL     1      -8.860  12.995 -56.014  0.00  0.00    +0.000 A 
ATOM     10  C   UNL     1      -7.964  13.903 -56.590  0.00  0.00    +0.000 A 
ATOM     11  C   UNL     1      -8.716  12.682 -54.655  0.00  0.00    +0.000 A 
ATOM     12  C   UNL     1      -6.898  14.279 -54.442  0.00  0.00    +0.000 A 
ATOM     13  C   UNL     1      -6.991  14.543 -55.813  0.00  0.00    +0.000 A 
ATOM     14  C   UNL     1      -7.755  13.333 -53.875  0.00  0.00    +0.000 A 
ATOM     15  C   UNL     1      -5.906  14.991 -53.572  0.00  0.00    +0.000 C 
ENDBRANCH   4   9
BRANCH   5  17
ATOM     16  N   UNL     1     -12.040  12.267 -54.195  0.00  0.00    +0.000 NA
ATOM     17  C   UNL     1     -11.470  11.435 -55.018  0.00  0.00    +0.000 C 
BRANCH  16  18
ATOM     18  O   UNL     1     -12.354  13.478 -54.823  0.00  0.00    +0.000 OA
BRANCH  18  19
ATOM     19  C   UNL     1     -11.962  14.580 -54.002  0.00  0.00    +0.000 C 
BRANCH  19  22
ATOM     20 CL   UNL     1      -9.565  16.224 -52.728  0.00  0.00    +0.000 Cl
ATOM     21 CL   UNL     1      -8.883  18.297 -57.624  0.00  0.00    +0.000 Cl
ATOM     22  C   UNL     1     -11.133  15.502 -54.863  0.00  0.00    +0.000 A 
ATOM     23  C   UNL     1     -10.074  16.283 -54.379  0.00  0.00    +0.000 A 
ATOM     24  C   UNL     1     -11.462  15.595 -56.230  0.00  0.00    +0.000 A 
ATOM     25  C   UNL     1      -9.376  17.144 -55.233  0.00  0.00    +0.000 A 
ATOM     26  C   UNL     1     -10.763  16.446 -57.084  0.00  0.00    +0.000 A 
ATOM     27  C   UNL     1      -9.729  17.224 -56.578  0.00  0.00    +0.000 A 
ENDBRANCH  19  22
ENDBRANCH  18  19
ENDBRANCH  16  18
ENDBRANCH   5  17
TORSDOF 5
ENDMDL
