MODEL 1
REMARK VINA RESULT:      -7.4      0.000      0.000
REMARK  Name = 3728080
REMARK  5 active torsions:
REMARK  status: ('A' for Active; 'I' for Inactive)
REMARK    1  A    between atoms: O_4  and  N_7
REMARK    2  A    between atoms: O_4  and  C_20
REMARK    3  A    between atoms: C_8  and  C_13
REMARK    4  A    between atoms: C_9  and  C_11
REMARK    5  A    between atoms: C_17  and  C_20
REMARK                            x       y       z     vdW  Elec       q    Type
REMARK                         _______ _______ _______ _____ _____    ______ ____
ROOT
ATOM      1  S   UNL     1      12.651  11.379  23.112  0.00  0.00    +0.000 S 
ATOM      2  N   UNL     1      12.463   9.056  22.033  0.00  0.00    +0.000 N 
ATOM      3  N   UNL     1      14.582   9.746  21.891  0.00  0.00    +0.000 NA
ATOM      4  C   UNL     1      13.115   8.044  21.369  0.00  0.00    +0.000 A 
ATOM      5  C   UNL     1      14.439   8.498  21.308  0.00  0.00    +0.000 A 
ATOM      6  C   UNL     1      13.372  10.039  22.274  0.00  0.00    +0.000 A 
ATOM      7  C   UNL     1      11.200   9.300  22.534  0.00  0.00    +0.000 A 
ATOM      8  C   UNL     1      11.114  10.507  23.117  0.00  0.00    +0.000 A 
ENDROOT
BRANCH   5   9
ATOM      9  C   UNL     1      15.583   7.770  20.763  0.00  0.00    +0.000 A 
ATOM     10  C   UNL     1      16.819   7.837  21.422  0.00  0.00    +0.000 A 
ATOM     11  C   UNL     1      15.486   6.990  19.602  0.00  0.00    +0.000 A 
ATOM     12  C   UNL     1      17.908   7.083  20.976  0.00  0.00    +0.000 A 
ATOM     13  C   UNL     1      16.570   6.222  19.166  0.00  0.00    +0.000 A 
ATOM     14  C   UNL     1      17.776   6.259  19.861  0.00  0.00    +0.000 A 
ENDBRANCH   5   9
BRANCH   4  16
ATOM     15  N   UNL     1      11.797   6.596  19.889  0.00  0.00    +0.000 NA
ATOM     16  C   UNL     1      12.541   6.799  20.936  0.00  0.00    +0.000 C 
BRANCH  15  17
ATOM     17  O   UNL     1      11.686   7.748  19.096  0.00  0.00    +0.000 OA
BRANCH  17  18
ATOM     18  C   UNL     1      12.383   7.575  17.864  0.00  0.00    +0.000 C 
BRANCH  18  21
ATOM     19 CL   UNL     1      15.439  10.210  14.617  0.00  0.00    +0.000 Cl
ATOM     20 CL   UNL     1      15.244  12.741  16.656  0.00  0.00    +0.000 Cl
ATOM     21  C   UNL     1      13.023   8.886  17.511  0.00  0.00    +0.000 A 
ATOM     22  C   UNL     1      13.800   8.993  16.349  0.00  0.00    +0.000 A 
ATOM     23  C   UNL     1      12.939   9.981  18.381  0.00  0.00    +0.000 A 
ATOM     24  C   UNL     1      14.485  10.173  16.058  0.00  0.00    +0.000 A 
ATOM     25  C   UNL     1      13.623  11.163  18.091  0.00  0.00    +0.000 A 
ATOM     26  C   UNL     1      14.400  11.259  16.933  0.00  0.00    +0.000 A 
ENDBRANCH  18  21
ENDBRANCH  17  18
ENDBRANCH  15  17
ENDBRANCH   4  16
TORSDOF 5
ENDMDL
MODEL 2
REMARK VINA RESULT:      -6.6      3.230      4.905
REMARK  Name = 3728080
REMARK  5 active torsions:
REMARK  status: ('A' for Active; 'I' for Inactive)
REMARK    1  A    between atoms: O_4  and  N_7
REMARK    2  A    between atoms: O_4  and  C_20
REMARK    3  A    between atoms: C_8  and  C_13
REMARK    4  A    between atoms: C_9  and  C_11
REMARK    5  A    between atoms: C_17  and  C_20
REMARK                            x       y       z     vdW  Elec       q    Type
REMARK                         _______ _______ _______ _____ _____    ______ ____
ROOT
ATOM      1  S   UNL     1       9.636  15.634  21.202  0.00  0.00    +0.000 S 
ATOM      2  N   UNL     1      10.569  13.570  22.414  0.00  0.00    +0.000 N 
ATOM      3  N   UNL     1      11.603  13.778  20.445  0.00  0.00    +0.000 NA
ATOM      4  C   UNL     1      11.432  12.501  22.359  0.00  0.00    +0.000 A 
ATOM      5  C   UNL     1      12.073  12.666  21.125  0.00  0.00    +0.000 A 
ATOM      6  C   UNL     1      10.691  14.254  21.244  0.00  0.00    +0.000 A 
ATOM      7  C   UNL     1       9.689  14.126  23.320  0.00  0.00    +0.000 A 
ATOM      8  C   UNL     1       9.082  15.218  22.828  0.00  0.00    +0.000 A 
ENDROOT
BRANCH   5   9
ATOM      9  C   UNL     1      13.151  11.838  20.587  0.00  0.00    +0.000 A 
ATOM     10  C   UNL     1      13.337  11.765  19.199  0.00  0.00    +0.000 A 
ATOM     11  C   UNL     1      14.023  11.118  21.417  0.00  0.00    +0.000 A 
ATOM     12  C   UNL     1      14.412  11.053  18.659  0.00  0.00    +0.000 A 
ATOM     13  C   UNL     1      15.109  10.422  20.878  0.00  0.00    +0.000 A 
ATOM     14  C   UNL     1      15.309  10.400  19.500  0.00  0.00    +0.000 A 
ENDBRANCH   5   9
BRANCH   4  16
ATOM     15  N   UNL     1      11.255  10.281  23.391  0.00  0.00    +0.000 NA
ATOM     16  C   UNL     1      11.644  11.522  23.390  0.00  0.00    +0.000 C 
BRANCH  15  17
ATOM     17  O   UNL     1      10.670   9.916  22.169  0.00  0.00    +0.000 OA
BRANCH  17  18
ATOM     18  C   UNL     1      10.671   8.499  22.018  0.00  0.00    +0.000 C 
BRANCH  18  21
ATOM     19 CL   UNL     1      15.023   6.442  20.106  0.00  0.00    +0.000 Cl
ATOM     20 CL   UNL     1      14.107   7.502  17.167  0.00  0.00    +0.000 Cl
ATOM     21  C   UNL     1      11.488   8.167  20.802  0.00  0.00    +0.000 A 
ATOM     22  C   UNL     1      12.706   7.490  20.944  0.00  0.00    +0.000 A 
ATOM     23  C   UNL     1      11.097   8.615  19.535  0.00  0.00    +0.000 A 
ATOM     24  C   UNL     1      13.526   7.263  19.838  0.00  0.00    +0.000 A 
ATOM     25  C   UNL     1      11.915   8.390  18.426  0.00  0.00    +0.000 A 
ATOM     26  C   UNL     1      13.132   7.718  18.577  0.00  0.00    +0.000 A 
ENDBRANCH  18  21
ENDBRANCH  17  18
ENDBRANCH  15  17
ENDBRANCH   4  16
TORSDOF 5
ENDMDL
MODEL 3
REMARK VINA RESULT:      -6.2      1.823      4.701
REMARK  Name = 3728080
REMARK  5 active torsions:
REMARK  status: ('A' for Active; 'I' for Inactive)
REMARK    1  A    between atoms: O_4  and  N_7
REMARK    2  A    between atoms: O_4  and  C_20
REMARK    3  A    between atoms: C_8  and  C_13
REMARK    4  A    between atoms: C_9  and  C_11
REMARK    5  A    between atoms: C_17  and  C_20
REMARK                            x       y       z     vdW  Elec       q    Type
REMARK                         _______ _______ _______ _____ _____    ______ ____
ROOT
ATOM      1  S   UNL     1      16.507   8.873  21.468  0.00  0.00    +0.000 S 
ATOM      2  N   UNL     1      13.983   8.425  21.621  0.00  0.00    +0.000 N 
ATOM      3  N   UNL     1      14.387  10.511  22.307  0.00  0.00    +0.000 NA
ATOM      4  C   UNL     1      12.750   8.920  21.975  0.00  0.00    +0.000 A 
ATOM      5  C   UNL     1      13.034  10.229  22.386  0.00  0.00    +0.000 A 
ATOM      6  C   UNL     1      14.902   9.395  21.878  0.00  0.00    +0.000 A 
ATOM      7  C   UNL     1      14.497   7.275  21.057  0.00  0.00    +0.000 A 
ATOM      8  C   UNL     1      15.833   7.331  20.930  0.00  0.00    +0.000 A 
ENDROOT
BRANCH   5   9
ATOM      9  C   UNL     1      12.062  11.238  22.804  0.00  0.00    +0.000 A 
ATOM     10  C   UNL     1      11.657  11.291  24.145  0.00  0.00    +0.000 A 
ATOM     11  C   UNL     1      11.526  12.173  21.906  0.00  0.00    +0.000 A 
ATOM     12  C   UNL     1      10.798  12.299  24.592  0.00  0.00    +0.000 A 
ATOM     13  C   UNL     1      10.682  13.192  22.357  0.00  0.00    +0.000 A 
ATOM     14  C   UNL     1      10.329  13.262  23.702  0.00  0.00    +0.000 A 
ENDBRANCH   5   9
BRANCH   4  16
ATOM     15  N   UNL     1      10.632   8.336  20.880  0.00  0.00    +0.000 NA
ATOM     16  C   UNL     1      11.490   8.239  21.853  0.00  0.00    +0.000 C 
BRANCH  15  17
ATOM     17  O   UNL     1      11.123   9.127  19.829  0.00  0.00    +0.000 OA
BRANCH  17  18
ATOM     18  C   UNL     1      11.464   8.312  18.709  0.00  0.00    +0.000 C 
BRANCH  18  21
ATOM     19 CL   UNL     1      15.516  11.535  18.570  0.00  0.00    +0.000 Cl
ATOM     20 CL   UNL     1      15.171  11.660  15.335  0.00  0.00    +0.000 Cl
ATOM     21  C   UNL     1      12.447   9.075  17.869  0.00  0.00    +0.000 A 
ATOM     22  C   UNL     1      13.456   9.827  18.486  0.00  0.00    +0.000 A 
ATOM     23  C   UNL     1      12.307   9.129  16.477  0.00  0.00    +0.000 A 
ATOM     24  C   UNL     1      14.315  10.622  17.727  0.00  0.00    +0.000 A 
ATOM     25  C   UNL     1      13.165   9.924  15.715  0.00  0.00    +0.000 A 
ATOM     26  C   UNL     1      14.166  10.674  16.338  0.00  0.00    +0.000 A 
ENDBRANCH  18  21
ENDBRANCH  17  18
ENDBRANCH  15  17
ENDBRANCH   4  16
TORSDOF 5
ENDMDL
MODEL 4
REMARK VINA RESULT:      -5.5      2.956      5.380
REMARK  Name = 3728080
REMARK  5 active torsions:
REMARK  status: ('A' for Active; 'I' for Inactive)
REMARK    1  A    between atoms: O_4  and  N_7
REMARK    2  A    between atoms: O_4  and  C_20
REMARK    3  A    between atoms: C_8  and  C_13
REMARK    4  A    between atoms: C_9  and  C_11
REMARK    5  A    between atoms: C_17  and  C_20
REMARK                            x       y       z     vdW  Elec       q    Type
REMARK                         _______ _______ _______ _____ _____    ______ ____
ROOT
ATOM      1  S   UNL     1      15.172  12.931  22.252  0.00  0.00    +0.000 S 
ATOM      2  N   UNL     1      14.353  10.562  21.689  0.00  0.00    +0.000 N 
ATOM      3  N   UNL     1      14.344  11.789  19.823  0.00  0.00    +0.000 NA
ATOM      4  C   UNL     1      13.877   9.715  20.718  0.00  0.00    +0.000 A 
ATOM      5  C   UNL     1      13.897  10.505  19.561  0.00  0.00    +0.000 A 
ATOM      6  C   UNL     1      14.569  11.773  21.106  0.00  0.00    +0.000 A 
ATOM      7  C   UNL     1      14.694  10.495  23.025  0.00  0.00    +0.000 A 
ATOM      8  C   UNL     1      15.124  11.677  23.496  0.00  0.00    +0.000 A 
ENDROOT
BRANCH   5   9
ATOM      9  C   UNL     1      13.555  10.074  18.207  0.00  0.00    +0.000 A 
ATOM     10  C   UNL     1      12.343   9.406  17.982  0.00  0.00    +0.000 A 
ATOM     11  C   UNL     1      14.397  10.317  17.112  0.00  0.00    +0.000 A 
ATOM     12  C   UNL     1      11.947   9.059  16.687  0.00  0.00    +0.000 A 
ATOM     13  C   UNL     1      13.994   9.987  15.815  0.00  0.00    +0.000 A 
ATOM     14  C   UNL     1      12.763   9.370  15.602  0.00  0.00    +0.000 A 
ENDBRANCH   5   9
BRANCH   4  16
ATOM     15  N   UNL     1      12.383   7.839  21.243  0.00  0.00    +0.000 NA
ATOM     16  C   UNL     1      13.535   8.329  20.887  0.00  0.00    +0.000 C 
BRANCH  15  17
ATOM     17  O   UNL     1      11.401   8.836  21.343  0.00  0.00    +0.000 OA
BRANCH  17  18
ATOM     18  C   UNL     1      10.989   8.998  22.698  0.00  0.00    +0.000 C 
BRANCH  18  21
ATOM     19 CL   UNL     1      11.260  13.843  20.889  0.00  0.00    +0.000 Cl
ATOM     20 CL   UNL     1      11.390  14.875  23.973  0.00  0.00    +0.000 Cl
ATOM     21  C   UNL     1      10.997  10.467  23.008  0.00  0.00    +0.000 A 
ATOM     22  C   UNL     1      11.057  11.400  21.964  0.00  0.00    +0.000 A 
ATOM     23  C   UNL     1      11.048  10.918  24.333  0.00  0.00    +0.000 A 
ATOM     24  C   UNL     1      11.167  12.763  22.235  0.00  0.00    +0.000 A 
ATOM     25  C   UNL     1      11.158  12.282  24.607  0.00  0.00    +0.000 A 
ATOM     26  C   UNL     1      11.222  13.205  23.560  0.00  0.00    +0.000 A 
ENDBRANCH  18  21
ENDBRANCH  17  18
ENDBRANCH  15  17
ENDBRANCH   4  16
TORSDOF 5
ENDMDL
MODEL 5
REMARK VINA RESULT:      -5.5      3.657      6.869
REMARK  Name = 3728080
REMARK  5 active torsions:
REMARK  status: ('A' for Active; 'I' for Inactive)
REMARK    1  A    between atoms: O_4  and  N_7
REMARK    2  A    between atoms: O_4  and  C_20
REMARK    3  A    between atoms: C_8  and  C_13
REMARK    4  A    between atoms: C_9  and  C_11
REMARK    5  A    between atoms: C_17  and  C_20
REMARK                            x       y       z     vdW  Elec       q    Type
REMARK                         _______ _______ _______ _____ _____    ______ ____
ROOT
ATOM      1  S   UNL     1      15.719  12.915  21.985  0.00  0.00    +0.000 S 
ATOM      2  N   UNL     1      13.677  12.139  23.336  0.00  0.00    +0.000 N 
ATOM      3  N   UNL     1      13.249  14.156  22.479  0.00  0.00    +0.000 NA
ATOM      4  C   UNL     1      12.417  12.450  23.789  0.00  0.00    +0.000 A 
ATOM      5  C   UNL     1      12.172  13.708  23.226  0.00  0.00    +0.000 A 
ATOM      6  C   UNL     1      14.122  13.198  22.608  0.00  0.00    +0.000 A 
ATOM      7  C   UNL     1      14.545  11.067  23.389  0.00  0.00    +0.000 A 
ATOM      8  C   UNL     1      15.696  11.319  22.744  0.00  0.00    +0.000 A 
ENDROOT
BRANCH   5   9
ATOM      9  C   UNL     1      10.935  14.481  23.327  0.00  0.00    +0.000 A 
ATOM     10  C   UNL     1      10.863  15.552  24.228  0.00  0.00    +0.000 A 
ATOM     11  C   UNL     1       9.811  14.195  22.538  0.00  0.00    +0.000 A 
ATOM     12  C   UNL     1       9.727  16.364  24.285  0.00  0.00    +0.000 A 
ATOM     13  C   UNL     1       8.681  15.017  22.582  0.00  0.00    +0.000 A 
ATOM     14  C   UNL     1       8.645  16.108  23.446  0.00  0.00    +0.000 A 
ENDBRANCH   5   9
BRANCH   4  16
ATOM     15  N   UNL     1      10.814  10.629  24.167  0.00  0.00    +0.000 NA
ATOM     16  C   UNL     1      11.563  11.608  24.583  0.00  0.00    +0.000 C 
BRANCH  15  17
ATOM     17  O   UNL     1      11.007  10.368  22.802  0.00  0.00    +0.000 OA
BRANCH  17  18
ATOM     18  C   UNL     1      10.738   8.998  22.513  0.00  0.00    +0.000 C 
BRANCH  18  21
ATOM     19 CL   UNL     1      15.427   7.852  20.635  0.00  0.00    +0.000 Cl
ATOM     20 CL   UNL     1      14.106   7.800  17.660  0.00  0.00    +0.000 Cl
ATOM     21  C   UNL     1      11.565   8.609  21.321  0.00  0.00    +0.000 A 
ATOM     22  C   UNL     1      12.938   8.371  21.472  0.00  0.00    +0.000 A 
ATOM     23  C   UNL     1      11.002   8.580  20.039  0.00  0.00    +0.000 A 
ATOM     24  C   UNL     1      13.740   8.109  20.362  0.00  0.00    +0.000 A 
ATOM     25  C   UNL     1      11.802   8.317  18.926  0.00  0.00    +0.000 A 
ATOM     26  C   UNL     1      13.172   8.086  19.085  0.00  0.00    +0.000 A 
ENDBRANCH  18  21
ENDBRANCH  17  18
ENDBRANCH  15  17
ENDBRANCH   4  16
TORSDOF 5
ENDMDL
MODEL 6
REMARK VINA RESULT:      -5.5     32.491     34.823
REMARK  Name = 3728080
REMARK  5 active torsions:
REMARK  status: ('A' for Active; 'I' for Inactive)
REMARK    1  A    between atoms: O_4  and  N_7
REMARK    2  A    between atoms: O_4  and  C_20
REMARK    3  A    between atoms: C_8  and  C_13
REMARK    4  A    between atoms: C_9  and  C_11
REMARK    5  A    between atoms: C_17  and  C_20
REMARK                            x       y       z     vdW  Elec       q    Type
REMARK                         _______ _______ _______ _____ _____    ______ ____
ROOT
ATOM      1  S   UNL     1       0.709 -18.308  -3.179  0.00  0.00    +0.000 S 
ATOM      2  N   UNL     1       1.402 -16.094  -2.076  0.00  0.00    +0.000 N 
ATOM      3  N   UNL     1       1.308 -15.799  -4.288  0.00  0.00    +0.000 NA
ATOM      4  C   UNL     1       1.773 -14.785  -2.269  0.00  0.00    +0.000 A 
ATOM      5  C   UNL     1       1.692 -14.627  -3.658  0.00  0.00    +0.000 A 
ATOM      6  C   UNL     1       1.183 -16.642  -3.303  0.00  0.00    +0.000 A 
ATOM      7  C   UNL     1       1.163 -16.942  -1.013  0.00  0.00    +0.000 A 
ATOM      8  C   UNL     1       0.810 -18.172  -1.420  0.00  0.00    +0.000 A 
ENDROOT
BRANCH   5   9
ATOM      9  C   UNL     1       1.913 -13.391  -4.407  0.00  0.00    +0.000 A 
ATOM     10  C   UNL     1       2.667 -13.428  -5.588  0.00  0.00    +0.000 A 
ATOM     11  C   UNL     1       1.384 -12.161  -3.990  0.00  0.00    +0.000 A 
ATOM     12  C   UNL     1       2.823 -12.281  -6.373  0.00  0.00    +0.000 A 
ATOM     13  C   UNL     1       1.524 -11.019  -4.783  0.00  0.00    +0.000 A 
ATOM     14  C   UNL     1       2.233 -11.083  -5.981  0.00  0.00    +0.000 A 
ENDBRANCH   5   9
BRANCH   4  16
ATOM     15  N   UNL     1       3.232 -13.628  -0.669  0.00  0.00    +0.000 NA
ATOM     16  C   UNL     1       2.081 -13.826  -1.243  0.00  0.00    +0.000 C 
BRANCH  15  17
ATOM     17  O   UNL     1       4.247 -14.400  -1.254  0.00  0.00    +0.000 OA
BRANCH  17  18
ATOM     18  C   UNL     1       5.354 -14.525  -0.365  0.00  0.00    +0.000 C 
BRANCH  18  21
ATOM     19 CL   UNL     1       4.668 -17.234   3.996  0.00  0.00    +0.000 Cl
ATOM     20 CL   UNL     1       5.380 -19.926   2.311  0.00  0.00    +0.000 Cl
ATOM     21  C   UNL     1       5.269 -15.875   0.288  0.00  0.00    +0.000 A 
ATOM     22  C   UNL     1       4.987 -15.971   1.657  0.00  0.00    +0.000 A 
ATOM     23  C   UNL     1       5.569 -17.037  -0.433  0.00  0.00    +0.000 A 
ATOM     24  C   UNL     1       5.004 -17.208   2.301  0.00  0.00    +0.000 A 
ATOM     25  C   UNL     1       5.587 -18.277   0.209  0.00  0.00    +0.000 A 
ATOM     26  C   UNL     1       5.309 -18.363   1.576  0.00  0.00    +0.000 A 
ENDBRANCH  18  21
ENDBRANCH  17  18
ENDBRANCH  15  17
ENDBRANCH   4  16
TORSDOF 5
ENDMDL
MODEL 7
REMARK VINA RESULT:      -5.3     14.650     17.528
REMARK  Name = 3728080
REMARK  5 active torsions:
REMARK  status: ('A' for Active; 'I' for Inactive)
REMARK    1  A    between atoms: O_4  and  N_7
REMARK    2  A    between atoms: O_4  and  C_20
REMARK    3  A    between atoms: C_8  and  C_13
REMARK    4  A    between atoms: C_9  and  C_11
REMARK    5  A    between atoms: C_17  and  C_20
REMARK                            x       y       z     vdW  Elec       q    Type
REMARK                         _______ _______ _______ _____ _____    ______ ____
ROOT
ATOM      1  S   UNL     1      13.396   8.822   6.613  0.00  0.00    +0.000 S 
ATOM      2  N   UNL     1      11.331   7.361   6.164  0.00  0.00    +0.000 N 
ATOM      3  N   UNL     1      10.966   9.398   5.328  0.00  0.00    +0.000 NA
ATOM      4  C   UNL     1      10.061   7.300   5.642  0.00  0.00    +0.000 A 
ATOM      5  C   UNL     1       9.868   8.583   5.115  0.00  0.00    +0.000 A 
ATOM      6  C   UNL     1      11.788   8.629   5.982  0.00  0.00    +0.000 A 
ATOM      7  C   UNL     1      12.234   6.499   6.755  0.00  0.00    +0.000 A 
ATOM      8  C   UNL     1      13.379   7.119   7.086  0.00  0.00    +0.000 A 
ENDROOT
BRANCH   5   9
ATOM      9  C   UNL     1       8.699   9.050   4.370  0.00  0.00    +0.000 A 
ATOM     10  C   UNL     1       8.582   8.741   3.008  0.00  0.00    +0.000 A 
ATOM     11  C   UNL     1       7.675   9.792   4.978  0.00  0.00    +0.000 A 
ATOM     12  C   UNL     1       7.436   9.097   2.290  0.00  0.00    +0.000 A 
ATOM     13  C   UNL     1       6.522  10.132   4.266  0.00  0.00    +0.000 A 
ATOM     14  C   UNL     1       6.397   9.773   2.926  0.00  0.00    +0.000 A 
ENDBRANCH   5   9
BRANCH   4  16
ATOM     15  N   UNL     1       9.249   5.166   4.742  0.00  0.00    +0.000 NA
ATOM     16  C   UNL     1       9.210   6.142   5.600  0.00  0.00    +0.000 C 
BRANCH  15  17
ATOM     17  O   UNL     1      10.340   5.283   3.867  0.00  0.00    +0.000 OA
BRANCH  17  18
ATOM     18  C   UNL     1      10.895   4.000   3.587  0.00  0.00    +0.000 C 
BRANCH  18  21
ATOM     19 CL   UNL     1       9.871   5.144  -1.359  0.00  0.00    +0.000 Cl
ATOM     20 CL   UNL     1      12.669   3.689  -2.165  0.00  0.00    +0.000 Cl
ATOM     21  C   UNL     1      11.373   4.007   2.164  0.00  0.00    +0.000 A 
ATOM     22  C   UNL     1      10.561   4.549   1.158  0.00  0.00    +0.000 A 
ATOM     23  C   UNL     1      12.578   3.387   1.811  0.00  0.00    +0.000 A 
ATOM     24  C   UNL     1      10.943   4.473  -0.181  0.00  0.00    +0.000 A 
ATOM     25  C   UNL     1      12.963   3.310   0.472  0.00  0.00    +0.000 A 
ATOM     26  C   UNL     1      12.145   3.848  -0.526  0.00  0.00    +0.000 A 
ENDBRANCH  18  21
ENDBRANCH  17  18
ENDBRANCH  15  17
ENDBRANCH   4  16
TORSDOF 5
ENDMDL
MODEL 8
REMARK VINA RESULT:      -5.3     23.729     25.893
REMARK  Name = 3728080
REMARK  5 active torsions:
REMARK  status: ('A' for Active; 'I' for Inactive)
REMARK    1  A    between atoms: O_4  and  N_7
REMARK    2  A    between atoms: O_4  and  C_20
REMARK    3  A    between atoms: C_8  and  C_13
REMARK    4  A    between atoms: C_9  and  C_11
REMARK    5  A    between atoms: C_17  and  C_20
REMARK                            x       y       z     vdW  Elec       q    Type
REMARK                         _______ _______ _______ _____ _____    ______ ____
ROOT
ATOM      1  S   UNL     1     -13.995  13.450  18.583  0.00  0.00    +0.000 S 
ATOM      2  N   UNL     1     -12.726  12.021  16.866  0.00  0.00    +0.000 N 
ATOM      3  N   UNL     1     -11.491  13.813  17.364  0.00  0.00    +0.000 NA
ATOM      4  C   UNL     1     -11.601  11.896  16.086  0.00  0.00    +0.000 A 
ATOM      5  C   UNL     1     -10.843  13.022  16.430  0.00  0.00    +0.000 A 
ATOM      6  C   UNL     1     -12.615  13.186  17.560  0.00  0.00    +0.000 A 
ATOM      7  C   UNL     1     -13.861  11.286  17.146  0.00  0.00    +0.000 A 
ATOM      8  C   UNL     1     -14.663  11.913  18.022  0.00  0.00    +0.000 A 
ENDROOT
BRANCH   5   9
ATOM      9  C   UNL     1      -9.504  13.350  15.944  0.00  0.00    +0.000 A 
ATOM     10  C   UNL     1      -8.400  13.166  16.789  0.00  0.00    +0.000 A 
ATOM     11  C   UNL     1      -9.279  13.835  14.647  0.00  0.00    +0.000 A 
ATOM     12  C   UNL     1      -7.100  13.387  16.325  0.00  0.00    +0.000 A 
ATOM     13  C   UNL     1      -7.978  14.038  14.177  0.00  0.00    +0.000 A 
ATOM     14  C   UNL     1      -6.889  13.802  15.013  0.00  0.00    +0.000 A 
ENDBRANCH   5   9
BRANCH   4  16
ATOM     15  N   UNL     1     -10.509   9.792  15.449  0.00  0.00    +0.000 NA
ATOM     16  C   UNL     1     -11.291  10.803  15.205  0.00  0.00    +0.000 C 
BRANCH  15  17
ATOM     17  O   UNL     1     -10.053   9.793  16.776  0.00  0.00    +0.000 OA
BRANCH  17  18
ATOM     18  C   UNL     1     -10.258   8.516  17.375  0.00  0.00    +0.000 C 
BRANCH  18  21
ATOM     19 CL   UNL     1     -12.868   6.447  21.342  0.00  0.00    +0.000 Cl
ATOM     20 CL   UNL     1     -13.277   9.460  22.507  0.00  0.00    +0.000 Cl
ATOM     21  C   UNL     1     -10.932   8.734  18.700  0.00  0.00    +0.000 A 
ATOM     22  C   UNL     1     -11.483   7.645  19.389  0.00  0.00    +0.000 A 
ATOM     23  C   UNL     1     -11.106  10.027  19.209  0.00  0.00    +0.000 A 
ATOM     24  C   UNL     1     -12.200   7.842  20.569  0.00  0.00    +0.000 A 
ATOM     25  C   UNL     1     -11.823  10.226  20.390  0.00  0.00    +0.000 A 
ATOM     26  C   UNL     1     -12.375   9.135  21.068  0.00  0.00    +0.000 A 
ENDBRANCH  18  21
ENDBRANCH  17  18
ENDBRANCH  15  17
ENDBRANCH   4  16
TORSDOF 5
ENDMDL
MODEL 9
REMARK VINA RESULT:      -5.3     27.319     29.540
REMARK  Name = 3728080
REMARK  5 active torsions:
REMARK  status: ('A' for Active; 'I' for Inactive)
REMARK    1  A    between atoms: O_4  and  N_7
REMARK    2  A    between atoms: O_4  and  C_20
REMARK    3  A    between atoms: C_8  and  C_13
REMARK    4  A    between atoms: C_9  and  C_11
REMARK    5  A    between atoms: C_17  and  C_20
REMARK                            x       y       z     vdW  Elec       q    Type
REMARK                         _______ _______ _______ _____ _____    ______ ____
ROOT
ATOM      1  S   UNL     1      -7.467 -11.690  19.128  0.00  0.00    +0.000 S 
ATOM      2  N   UNL     1      -8.530 -11.383  16.810  0.00  0.00    +0.000 N 
ATOM      3  N   UNL     1      -9.206  -9.719  18.137  0.00  0.00    +0.000 NA
ATOM      4  C   UNL     1      -9.374 -10.634  16.026  0.00  0.00    +0.000 A 
ATOM      5  C   UNL     1      -9.769  -9.594  16.878  0.00  0.00    +0.000 A 
ATOM      6  C   UNL     1      -8.508 -10.815  18.046  0.00  0.00    +0.000 A 
ATOM      7  C   UNL     1      -7.706 -12.481  16.663  0.00  0.00    +0.000 A 
ATOM      8  C   UNL     1      -7.083 -12.801  17.809  0.00  0.00    +0.000 A 
ENDROOT
BRANCH   5   9
ATOM      9  C   UNL     1     -10.620  -8.459  16.528  0.00  0.00    +0.000 A 
ATOM     10  C   UNL     1     -10.028  -7.239  16.170  0.00  0.00    +0.000 A 
ATOM     11  C   UNL     1     -12.019  -8.548  16.524  0.00  0.00    +0.000 A 
ATOM     12  C   UNL     1     -10.811  -6.162  15.746  0.00  0.00    +0.000 A 
ATOM     13  C   UNL     1     -12.802  -7.477  16.083  0.00  0.00    +0.000 A 
ATOM     14  C   UNL     1     -12.196  -6.289  15.681  0.00  0.00    +0.000 A 
ENDBRANCH   5   9
BRANCH   4  16
ATOM     15  N   UNL     1      -9.027 -10.415  13.606  0.00  0.00    +0.000 NA
ATOM     16  C   UNL     1      -9.679 -10.862  14.639  0.00  0.00    +0.000 C 
BRANCH  15  17
ATOM     17  O   UNL     1      -7.854  -9.742  13.979  0.00  0.00    +0.000 OA
BRANCH  17  18
ATOM     18  C   UNL     1      -6.871  -9.845  12.951  0.00  0.00    +0.000 C 
BRANCH  18  21
ATOM     19 CL   UNL     1      -4.255 -10.672  17.344  0.00  0.00    +0.000 Cl
ATOM     20 CL   UNL     1      -1.548 -10.947  15.555  0.00  0.00    +0.000 Cl
ATOM     21  C   UNL     1      -5.566 -10.209  13.599  0.00  0.00    +0.000 A 
ATOM     22  C   UNL     1      -5.489 -10.328  14.993  0.00  0.00    +0.000 A 
ATOM     23  C   UNL     1      -4.399 -10.334  12.834  0.00  0.00    +0.000 A 
ATOM     24  C   UNL     1      -4.265 -10.565  15.618  0.00  0.00    +0.000 A 
ATOM     25  C   UNL     1      -3.174 -10.572  13.458  0.00  0.00    +0.000 A 
ATOM     26  C   UNL     1      -3.104 -10.684  14.850  0.00  0.00    +0.000 A 
ENDBRANCH  18  21
ENDBRANCH  17  18
ENDBRANCH  15  17
ENDBRANCH   4  16
TORSDOF 5
ENDMDL
MODEL 10
REMARK VINA RESULT:      -5.3      4.911      7.084
REMARK  Name = 3728080
REMARK  5 active torsions:
REMARK  status: ('A' for Active; 'I' for Inactive)
REMARK    1  A    between atoms: O_4  and  N_7
REMARK    2  A    between atoms: O_4  and  C_20
REMARK    3  A    between atoms: C_8  and  C_13
REMARK    4  A    between atoms: C_9  and  C_11
REMARK    5  A    between atoms: C_17  and  C_20
REMARK                            x       y       z     vdW  Elec       q    Type
REMARK                         _______ _______ _______ _____ _____    ______ ____
ROOT
ATOM      1  S   UNL     1       7.375  15.753  20.016  0.00  0.00    +0.000 S 
ATOM      2  N   UNL     1       8.719  14.869  22.019  0.00  0.00    +0.000 N 
ATOM      3  N   UNL     1      10.106  15.157  20.292  0.00  0.00    +0.000 NA
ATOM      4  C   UNL     1       9.946  14.464  22.486  0.00  0.00    +0.000 A 
ATOM      5  C   UNL     1      10.794  14.668  21.390  0.00  0.00    +0.000 A 
ATOM      6  C   UNL     1       8.875  15.224  20.715  0.00  0.00    +0.000 A 
ATOM      7  C   UNL     1       7.443  15.042  22.517  0.00  0.00    +0.000 A 
ATOM      8  C   UNL     1       6.591  15.482  21.576  0.00  0.00    +0.000 A 
ENDROOT
BRANCH   5   9
ATOM      9  C   UNL     1      12.241  14.467  21.361  0.00  0.00    +0.000 A 
ATOM     10  C   UNL     1      12.780  13.459  20.547  0.00  0.00    +0.000 A 
ATOM     11  C   UNL     1      13.120  15.260  22.113  0.00  0.00    +0.000 A 
ATOM     12  C   UNL     1      14.163  13.299  20.430  0.00  0.00    +0.000 A 
ATOM     13  C   UNL     1      14.504  15.112  21.981  0.00  0.00    +0.000 A 
ATOM     14  C   UNL     1      15.025  14.140  21.130  0.00  0.00    +0.000 A 
ENDBRANCH   5   9
BRANCH   4  16
ATOM     15  N   UNL     1      10.526  12.810  24.206  0.00  0.00    +0.000 NA
ATOM     16  C   UNL     1      10.247  14.021  23.821  0.00  0.00    +0.000 C 
BRANCH  15  17
ATOM     17  O   UNL     1      10.631  11.928  23.120  0.00  0.00    +0.000 OA
BRANCH  17  18
ATOM     18  C   UNL     1      10.809  10.590  23.579  0.00  0.00    +0.000 C 
BRANCH  18  21
ATOM     19 CL   UNL     1      11.141   5.823  21.583  0.00  0.00    +0.000 Cl
ATOM     20 CL   UNL     1      12.463   7.145  18.918  0.00  0.00    +0.000 Cl
ATOM     21  C   UNL     1      11.133   9.736  22.388  0.00  0.00    +0.000 A 
ATOM     22  C   UNL     1      10.967   8.346  22.460  0.00  0.00    +0.000 A 
ATOM     23  C   UNL     1      11.698  10.299  21.236  0.00  0.00    +0.000 A 
ATOM     24  C   UNL     1      11.359   7.528  21.401  0.00  0.00    +0.000 A 
ATOM     25  C   UNL     1      12.090   9.482  20.175  0.00  0.00    +0.000 A 
ATOM     26  C   UNL     1      11.925   8.096  20.257  0.00  0.00    +0.000 A 
ENDBRANCH  18  21
ENDBRANCH  17  18
ENDBRANCH  15  17
ENDBRANCH   4  16
TORSDOF 5
ENDMDL
