MODEL 1
REMARK VINA RESULT:      -5.1      0.000      0.000
REMARK  Name = 3728080
REMARK  5 active torsions:
REMARK  status: ('A' for Active; 'I' for Inactive)
REMARK    1  A    between atoms: O_4  and  N_7
REMARK    2  A    between atoms: O_4  and  C_20
REMARK    3  A    between atoms: C_8  and  C_13
REMARK    4  A    between atoms: C_9  and  C_11
REMARK    5  A    between atoms: C_17  and  C_20
REMARK                            x       y       z     vdW  Elec       q    Type
REMARK                         _______ _______ _______ _____ _____    ______ ____
ROOT
ATOM      1  S   UNL     1     -25.417   5.238 -53.337  0.00  0.00    +0.000 S 
ATOM      2  N   UNL     1     -23.955   4.550 -55.334  0.00  0.00    +0.000 N 
ATOM      3  N   UNL     1     -22.985   6.270 -54.291  0.00  0.00    +0.000 NA
ATOM      4  C   UNL     1     -22.821   4.808 -56.067  0.00  0.00    +0.000 A 
ATOM      5  C   UNL     1     -22.230   5.878 -55.383  0.00  0.00    +0.000 A 
ATOM      6  C   UNL     1     -24.011   5.469 -54.332  0.00  0.00    +0.000 A 
ATOM      7  C   UNL     1     -24.975   3.620 -55.325  0.00  0.00    +0.000 A 
ATOM      8  C   UNL     1     -25.860   3.854 -54.342  0.00  0.00    +0.000 A 
ENDROOT
BRANCH   5   9
ATOM      9  C   UNL     1     -20.950   6.509 -55.696  0.00  0.00    +0.000 A 
ATOM     10  C   UNL     1     -20.066   5.873 -56.579  0.00  0.00    +0.000 A 
ATOM     11  C   UNL     1     -20.574   7.746 -55.151  0.00  0.00    +0.000 A 
ATOM     12  C   UNL     1     -18.874   6.491 -56.967  0.00  0.00    +0.000 A 
ATOM     13  C   UNL     1     -19.391   8.373 -55.552  0.00  0.00    +0.000 A 
ATOM     14  C   UNL     1     -18.548   7.751 -56.470  0.00  0.00    +0.000 A 
ENDBRANCH   5   9
BRANCH   4  16
ATOM     15  N   UNL     1     -22.593   4.325 -58.463  0.00  0.00    +0.000 NA
ATOM     16  C   UNL     1     -22.357   4.069 -57.210  0.00  0.00    +0.000 C 
BRANCH  15  17
ATOM     17  O   UNL     1     -23.289   5.533 -58.627  0.00  0.00    +0.000 OA
BRANCH  17  18
ATOM     18  C   UNL     1     -22.576   6.406 -59.500  0.00  0.00    +0.000 C 
BRANCH  18  21
ATOM     19 CL   UNL     1     -19.712  10.631 -58.626  0.00  0.00    +0.000 Cl
ATOM     20 CL   UNL     1     -21.971  11.590 -56.487  0.00  0.00    +0.000 Cl
ATOM     21  C   UNL     1     -22.462   7.741 -58.823  0.00  0.00    +0.000 A 
ATOM     22  C   UNL     1     -21.325   8.533 -59.029  0.00  0.00    +0.000 A 
ATOM     23  C   UNL     1     -23.433   8.161 -57.905  0.00  0.00    +0.000 A 
ATOM     24  C   UNL     1     -21.155   9.728 -58.330  0.00  0.00    +0.000 A 
ATOM     25  C   UNL     1     -23.266   9.357 -57.204  0.00  0.00    +0.000 A 
ATOM     26  C   UNL     1     -22.126  10.139 -57.412  0.00  0.00    +0.000 A 
ENDBRANCH  18  21
ENDBRANCH  17  18
ENDBRANCH  15  17
ENDBRANCH   4  16
TORSDOF 5
ENDMDL
MODEL 2
REMARK VINA RESULT:      -5.1     23.616     25.276
REMARK  Name = 3728080
REMARK  5 active torsions:
REMARK  status: ('A' for Active; 'I' for Inactive)
REMARK    1  A    between atoms: O_4  and  N_7
REMARK    2  A    between atoms: O_4  and  C_20
REMARK    3  A    between atoms: C_8  and  C_13
REMARK    4  A    between atoms: C_9  and  C_11
REMARK    5  A    between atoms: C_17  and  C_20
REMARK                            x       y       z     vdW  Elec       q    Type
REMARK                         _______ _______ _______ _____ _____    ______ ____
ROOT
ATOM      1  S   UNL     1     -10.294   1.946 -32.452  0.00  0.00    +0.000 S 
ATOM      2  N   UNL     1     -10.730   3.222 -34.638  0.00  0.00    +0.000 N 
ATOM      3  N   UNL     1      -8.598   3.517 -34.046  0.00  0.00    +0.000 NA
ATOM      4  C   UNL     1     -10.211   4.047 -35.607  0.00  0.00    +0.000 A 
ATOM      5  C   UNL     1      -8.874   4.202 -35.217  0.00  0.00    +0.000 A 
ATOM      6  C   UNL     1      -9.743   2.983 -33.733  0.00  0.00    +0.000 A 
ATOM      7  C   UNL     1     -11.920   2.570 -34.383  0.00  0.00    +0.000 A 
ATOM      8  C   UNL     1     -11.873   1.866 -33.241  0.00  0.00    +0.000 A 
ENDROOT
BRANCH   5   9
ATOM      9  C   UNL     1      -7.837   4.933 -35.941  0.00  0.00    +0.000 A 
ATOM     10  C   UNL     1      -6.752   4.230 -36.487  0.00  0.00    +0.000 A 
ATOM     11  C   UNL     1      -7.892   6.322 -36.124  0.00  0.00    +0.000 A 
ATOM     12  C   UNL     1      -5.791   4.888 -37.259  0.00  0.00    +0.000 A 
ATOM     13  C   UNL     1      -6.941   6.977 -36.912  0.00  0.00    +0.000 A 
ATOM     14  C   UNL     1      -5.898   6.257 -37.489  0.00  0.00    +0.000 A 
ENDBRANCH   5   9
BRANCH   4  16
ATOM     15  N   UNL     1     -11.582   5.641 -36.874  0.00  0.00    +0.000 NA
ATOM     16  C   UNL     1     -10.900   4.538 -36.769  0.00  0.00    +0.000 C 
BRANCH  15  17
ATOM     17  O   UNL     1     -11.488   6.425 -35.714  0.00  0.00    +0.000 OA
BRANCH  17  18
ATOM     18  C   UNL     1     -11.483   7.811 -36.048  0.00  0.00    +0.000 C 
BRANCH  18  21
ATOM     19 CL   UNL     1     -10.949  12.350 -33.611  0.00  0.00    +0.000 Cl
ATOM     20 CL   UNL     1      -8.884  10.887 -31.563  0.00  0.00    +0.000 Cl
ATOM     21  C   UNL     1     -10.911   8.562 -34.880  0.00  0.00    +0.000 A 
ATOM     22  C   UNL     1     -11.182   9.929 -34.730  0.00  0.00    +0.000 A 
ATOM     23  C   UNL     1     -10.027   7.937 -33.992  0.00  0.00    +0.000 A 
ATOM     24  C   UNL     1     -10.579  10.664 -33.710  0.00  0.00    +0.000 A 
ATOM     25  C   UNL     1      -9.422   8.671 -32.970  0.00  0.00    +0.000 A 
ATOM     26  C   UNL     1      -9.693  10.035 -32.830  0.00  0.00    +0.000 A 
ENDBRANCH  18  21
ENDBRANCH  17  18
ENDBRANCH  15  17
ENDBRANCH   4  16
TORSDOF 5
ENDMDL
MODEL 3
REMARK VINA RESULT:      -4.8      2.380      3.928
REMARK  Name = 3728080
REMARK  5 active torsions:
REMARK  status: ('A' for Active; 'I' for Inactive)
REMARK    1  A    between atoms: O_4  and  N_7
REMARK    2  A    between atoms: O_4  and  C_20
REMARK    3  A    between atoms: C_8  and  C_13
REMARK    4  A    between atoms: C_9  and  C_11
REMARK    5  A    between atoms: C_17  and  C_20
REMARK                            x       y       z     vdW  Elec       q    Type
REMARK                         _______ _______ _______ _____ _____    ______ ____
ROOT
ATOM      1  S   UNL     1     -25.445   7.412 -59.457  0.00  0.00    +0.000 S 
ATOM      2  N   UNL     1     -24.549   5.587 -57.887  0.00  0.00    +0.000 N 
ATOM      3  N   UNL     1     -24.467   7.551 -56.828  0.00  0.00    +0.000 NA
ATOM      4  C   UNL     1     -24.006   5.298 -56.658  0.00  0.00    +0.000 A 
ATOM      5  C   UNL     1     -23.980   6.542 -56.015  0.00  0.00    +0.000 A 
ATOM      6  C   UNL     1     -24.759   6.930 -57.935  0.00  0.00    +0.000 A 
ATOM      7  C   UNL     1     -24.959   4.897 -59.010  0.00  0.00    +0.000 A 
ATOM      8  C   UNL     1     -25.437   5.718 -59.959  0.00  0.00    +0.000 A 
ENDROOT
BRANCH   5   9
ATOM      9  C   UNL     1     -23.559   6.801 -54.639  0.00  0.00    +0.000 A 
ATOM     10  C   UNL     1     -22.453   7.630 -54.402  0.00  0.00    +0.000 A 
ATOM     11  C   UNL     1     -24.234   6.256 -53.537  0.00  0.00    +0.000 A 
ATOM     12  C   UNL     1     -22.079   7.967 -53.098  0.00  0.00    +0.000 A 
ATOM     13  C   UNL     1     -23.872   6.608 -52.234  0.00  0.00    +0.000 A 
ATOM     14  C   UNL     1     -22.803   7.474 -52.016  0.00  0.00    +0.000 A 
ENDBRANCH   5   9
BRANCH   4  16
ATOM     15  N   UNL     1     -22.558   3.329 -56.430  0.00  0.00    +0.000 NA
ATOM     16  C   UNL     1     -23.645   3.994 -56.170  0.00  0.00    +0.000 C 
BRANCH  15  17
ATOM     17  O   UNL     1     -21.650   4.086 -57.186  0.00  0.00    +0.000 OA
BRANCH  17  18
ATOM     18  C   UNL     1     -20.532   4.467 -56.388  0.00  0.00    +0.000 C 
BRANCH  18  21
ATOM     19 CL   UNL     1     -21.434   8.611 -59.360  0.00  0.00    +0.000 Cl
ATOM     20 CL   UNL     1     -19.079  10.160 -57.732  0.00  0.00    +0.000 Cl
ATOM     21  C   UNL     1     -20.239   5.913 -56.668  0.00  0.00    +0.000 A 
ATOM     22  C   UNL     1     -20.908   6.571 -57.708  0.00  0.00    +0.000 A 
ATOM     23  C   UNL     1     -19.231   6.587 -55.967  0.00  0.00    +0.000 A 
ATOM     24  C   UNL     1     -20.577   7.883 -58.048  0.00  0.00    +0.000 A 
ATOM     25  C   UNL     1     -18.897   7.899 -56.306  0.00  0.00    +0.000 A 
ATOM     26  C   UNL     1     -19.566   8.547 -57.348  0.00  0.00    +0.000 A 
ENDBRANCH  18  21
ENDBRANCH  17  18
ENDBRANCH  15  17
ENDBRANCH   4  16
TORSDOF 5
ENDMDL
MODEL 4
REMARK VINA RESULT:      -4.8     17.134     19.306
REMARK  Name = 3728080
REMARK  5 active torsions:
REMARK  status: ('A' for Active; 'I' for Inactive)
REMARK    1  A    between atoms: O_4  and  N_7
REMARK    2  A    between atoms: O_4  and  C_20
REMARK    3  A    between atoms: C_8  and  C_13
REMARK    4  A    between atoms: C_9  and  C_11
REMARK    5  A    between atoms: C_17  and  C_20
REMARK                            x       y       z     vdW  Elec       q    Type
REMARK                         _______ _______ _______ _____ _____    ______ ____
ROOT
ATOM      1  S   UNL     1      -0.874  -1.181 -53.919  0.00  0.00    +0.000 S 
ATOM      2  N   UNL     1      -2.647   0.155 -52.626  0.00  0.00    +0.000 N 
ATOM      3  N   UNL     1      -3.679  -1.294 -53.976  0.00  0.00    +0.000 NA
ATOM      4  C   UNL     1      -3.986   0.384 -52.423  0.00  0.00    +0.000 A 
ATOM      5  C   UNL     1      -4.605  -0.545 -53.269  0.00  0.00    +0.000 A 
ATOM      6  C   UNL     1      -2.537  -0.812 -53.577  0.00  0.00    +0.000 A 
ATOM      7  C   UNL     1      -1.445   0.597 -52.109  0.00  0.00    +0.000 A 
ATOM      8  C   UNL     1      -0.394   0.010 -52.704  0.00  0.00    +0.000 A 
ENDROOT
BRANCH   5   9
ATOM      9  C   UNL     1      -6.042  -0.785 -53.394  0.00  0.00    +0.000 A 
ATOM     10  C   UNL     1      -6.624  -1.856 -52.701  0.00  0.00    +0.000 A 
ATOM     11  C   UNL     1      -6.869   0.032 -54.179  0.00  0.00    +0.000 A 
ATOM     12  C   UNL     1      -8.007  -2.059 -52.730  0.00  0.00    +0.000 A 
ATOM     13  C   UNL     1      -8.253  -0.159 -54.193  0.00  0.00    +0.000 A 
ATOM     14  C   UNL     1      -8.823  -1.197 -53.459  0.00  0.00    +0.000 A 
ENDBRANCH   5   9
BRANCH   4  16
ATOM     15  N   UNL     1      -4.654   2.604 -51.616  0.00  0.00    +0.000 NA
ATOM     16  C   UNL     1      -4.561   1.313 -51.488  0.00  0.00    +0.000 C 
BRANCH  15  17
ATOM     17  O   UNL     1      -4.221   3.036 -52.879  0.00  0.00    +0.000 OA
BRANCH  17  18
ATOM     18  C   UNL     1      -5.307   3.599 -53.612  0.00  0.00    +0.000 C 
BRANCH  18  21
ATOM     19 CL   UNL     1      -3.553   4.529 -58.396  0.00  0.00    +0.000 Cl
ATOM     20 CL   UNL     1      -2.685   7.500 -57.386  0.00  0.00    +0.000 Cl
ATOM     21  C   UNL     1      -4.738   4.595 -54.581  0.00  0.00    +0.000 A 
ATOM     22  C   UNL     1      -4.479   4.211 -55.904  0.00  0.00    +0.000 A 
ATOM     23  C   UNL     1      -4.367   5.876 -54.155  0.00  0.00    +0.000 A 
ATOM     24  C   UNL     1      -3.858   5.091 -56.790  0.00  0.00    +0.000 A 
ATOM     25  C   UNL     1      -3.745   6.759 -55.040  0.00  0.00    +0.000 A 
ATOM     26  C   UNL     1      -3.486   6.366 -56.356  0.00  0.00    +0.000 A 
ENDBRANCH  18  21
ENDBRANCH  17  18
ENDBRANCH  15  17
ENDBRANCH   4  16
TORSDOF 5
ENDMDL
MODEL 5
REMARK VINA RESULT:      -4.7      1.819      2.517
REMARK  Name = 3728080
REMARK  5 active torsions:
REMARK  status: ('A' for Active; 'I' for Inactive)
REMARK    1  A    between atoms: O_4  and  N_7
REMARK    2  A    between atoms: O_4  and  C_20
REMARK    3  A    between atoms: C_8  and  C_13
REMARK    4  A    between atoms: C_9  and  C_11
REMARK    5  A    between atoms: C_17  and  C_20
REMARK                            x       y       z     vdW  Elec       q    Type
REMARK                         _______ _______ _______ _____ _____    ______ ____
ROOT
ATOM      1  S   UNL     1     -23.309   8.062 -51.028  0.00  0.00    +0.000 S 
ATOM      2  N   UNL     1     -23.477   6.659 -53.174  0.00  0.00    +0.000 N 
ATOM      3  N   UNL     1     -21.654   7.943 -53.294  0.00  0.00    +0.000 NA
ATOM      4  C   UNL     1     -22.929   6.372 -54.401  0.00  0.00    +0.000 A 
ATOM      5  C   UNL     1     -21.785   7.179 -54.442  0.00  0.00    +0.000 A 
ATOM      6  C   UNL     1     -22.703   7.616 -52.595  0.00  0.00    +0.000 A 
ATOM      7  C   UNL     1     -24.529   6.218 -52.397  0.00  0.00    +0.000 A 
ATOM      8  C   UNL     1     -24.605   6.878 -51.230  0.00  0.00    +0.000 A 
ENDROOT
BRANCH   5   9
ATOM      9  C   UNL     1     -20.783   7.214 -55.505  0.00  0.00    +0.000 A 
ATOM     10  C   UNL     1     -19.752   8.163 -55.449  0.00  0.00    +0.000 A 
ATOM     11  C   UNL     1     -20.808   6.318 -56.584  0.00  0.00    +0.000 A 
ATOM     12  C   UNL     1     -18.731   8.166 -56.403  0.00  0.00    +0.000 A 
ATOM     13  C   UNL     1     -19.777   6.308 -57.527  0.00  0.00    +0.000 A 
ATOM     14  C   UNL     1     -18.732   7.224 -57.429  0.00  0.00    +0.000 A 
ENDBRANCH   5   9
BRANCH   4  16
ATOM     15  N   UNL     1     -24.383   5.549 -56.200  0.00  0.00    +0.000 NA
ATOM     16  C   UNL     1     -23.413   5.402 -55.346  0.00  0.00    +0.000 C 
BRANCH  15  17
ATOM     17  O   UNL     1     -24.878   6.862 -56.206  0.00  0.00    +0.000 OA
BRANCH  17  18
ATOM     18  C   UNL     1     -24.754   7.436 -57.506  0.00  0.00    +0.000 C 
BRANCH  18  21
ATOM     19 CL   UNL     1     -20.536   9.673 -59.513  0.00  0.00    +0.000 Cl
ATOM     20 CL   UNL     1     -20.512  11.682 -56.951  0.00  0.00    +0.000 Cl
ATOM     21  C   UNL     1     -23.749   8.548 -57.422  0.00  0.00    +0.000 A 
ATOM     22  C   UNL     1     -22.748   8.658 -58.396  0.00  0.00    +0.000 A 
ATOM     23  C   UNL     1     -23.736   9.420 -56.325  0.00  0.00    +0.000 A 
ATOM     24  C   UNL     1     -21.746   9.622 -58.280  0.00  0.00    +0.000 A 
ATOM     25  C   UNL     1     -22.735  10.385 -56.207  0.00  0.00    +0.000 A 
ATOM     26  C   UNL     1     -21.737  10.485 -57.180  0.00  0.00    +0.000 A 
ENDBRANCH  18  21
ENDBRANCH  17  18
ENDBRANCH  15  17
ENDBRANCH   4  16
TORSDOF 5
ENDMDL
MODEL 6
REMARK VINA RESULT:      -4.6     23.341     25.004
REMARK  Name = 3728080
REMARK  5 active torsions:
REMARK  status: ('A' for Active; 'I' for Inactive)
REMARK    1  A    between atoms: O_4  and  N_7
REMARK    2  A    between atoms: O_4  and  C_20
REMARK    3  A    between atoms: C_8  and  C_13
REMARK    4  A    between atoms: C_9  and  C_11
REMARK    5  A    between atoms: C_17  and  C_20
REMARK                            x       y       z     vdW  Elec       q    Type
REMARK                         _______ _______ _______ _____ _____    ______ ____
ROOT
ATOM      1  S   UNL     1     -15.265   5.869 -30.179  0.00  0.00    +0.000 S 
ATOM      2  N   UNL     1     -14.843   6.614 -32.601  0.00  0.00    +0.000 N 
ATOM      3  N   UNL     1     -13.158   7.332 -31.322  0.00  0.00    +0.000 NA
ATOM      4  C   UNL     1     -14.021   7.301 -33.461  0.00  0.00    +0.000 A 
ATOM      5  C   UNL     1     -12.971   7.725 -32.637  0.00  0.00    +0.000 A 
ATOM      6  C   UNL     1     -14.300   6.705 -31.357  0.00  0.00    +0.000 A 
ATOM      7  C   UNL     1     -15.994   5.856 -32.675  0.00  0.00    +0.000 A 
ATOM      8  C   UNL     1     -16.378   5.403 -31.471  0.00  0.00    +0.000 A 
ENDROOT
BRANCH   5   9
ATOM      9  C   UNL     1     -11.771   8.446 -33.058  0.00  0.00    +0.000 A 
ATOM     10  C   UNL     1     -11.893   9.535 -33.933  0.00  0.00    +0.000 A 
ATOM     11  C   UNL     1     -10.491   8.093 -32.604  0.00  0.00    +0.000 A 
ATOM     12  C   UNL     1     -10.776  10.298 -34.284  0.00  0.00    +0.000 A 
ATOM     13  C   UNL     1      -9.377   8.867 -32.941  0.00  0.00    +0.000 A 
ATOM     14  C   UNL     1      -9.522   9.977 -33.770  0.00  0.00    +0.000 A 
ENDBRANCH   5   9
BRANCH   4  16
ATOM     15  N   UNL     1     -13.543   6.844 -35.826  0.00  0.00    +0.000 NA
ATOM     16  C   UNL     1     -14.202   7.448 -34.880  0.00  0.00    +0.000 C 
BRANCH  15  17
ATOM     17  O   UNL     1     -12.657   5.884 -35.313  0.00  0.00    +0.000 OA
BRANCH  17  18
ATOM     18  C   UNL     1     -12.130   5.079 -36.365  0.00  0.00    +0.000 C 
BRANCH  18  21
ATOM     19 CL   UNL     1      -7.416   3.271 -37.520  0.00  0.00    +0.000 Cl
ATOM     20 CL   UNL     1      -6.184   6.065 -36.389  0.00  0.00    +0.000 Cl
ATOM     21  C   UNL     1     -10.657   5.352 -36.459  0.00  0.00    +0.000 A 
ATOM     22  C   UNL     1      -9.792   4.359 -36.937  0.00  0.00    +0.000 A 
ATOM     23  C   UNL     1     -10.121   6.554 -35.979  0.00  0.00    +0.000 A 
ATOM     24  C   UNL     1      -8.411   4.558 -36.936  0.00  0.00    +0.000 A 
ATOM     25  C   UNL     1      -8.740   6.756 -35.978  0.00  0.00    +0.000 A 
ATOM     26  C   UNL     1      -7.884   5.758 -36.451  0.00  0.00    +0.000 A 
ENDBRANCH  18  21
ENDBRANCH  17  18
ENDBRANCH  15  17
ENDBRANCH   4  16
TORSDOF 5
ENDMDL
MODEL 7
REMARK VINA RESULT:      -4.6     24.181     25.925
REMARK  Name = 3728080
REMARK  5 active torsions:
REMARK  status: ('A' for Active; 'I' for Inactive)
REMARK    1  A    between atoms: O_4  and  N_7
REMARK    2  A    between atoms: O_4  and  C_20
REMARK    3  A    between atoms: C_8  and  C_13
REMARK    4  A    between atoms: C_9  and  C_11
REMARK    5  A    between atoms: C_17  and  C_20
REMARK                            x       y       z     vdW  Elec       q    Type
REMARK                         _______ _______ _______ _____ _____    ______ ____
ROOT
ATOM      1  S   UNL     1     -12.060   4.583 -31.586  0.00  0.00    +0.000 S 
ATOM      2  N   UNL     1     -12.017   5.885 -33.799  0.00  0.00    +0.000 N 
ATOM      3  N   UNL     1     -10.109   4.743 -33.599  0.00  0.00    +0.000 NA
ATOM      4  C   UNL     1     -11.298   6.208 -34.925  0.00  0.00    +0.000 A 
ATOM      5  C   UNL     1     -10.118   5.469 -34.778  0.00  0.00    +0.000 A 
ATOM      6  C   UNL     1     -11.246   5.055 -33.046  0.00  0.00    +0.000 A 
ATOM      7  C   UNL     1     -13.273   6.136 -33.283  0.00  0.00    +0.000 A 
ATOM      8  C   UNL     1     -13.455   5.542 -32.093  0.00  0.00    +0.000 A 
ENDROOT
BRANCH   5   9
ATOM      9  C   UNL     1      -9.019   5.385 -35.739  0.00  0.00    +0.000 A 
ATOM     10  C   UNL     1      -8.080   6.424 -35.804  0.00  0.00    +0.000 A 
ATOM     11  C   UNL     1      -8.861   4.287 -36.597  0.00  0.00    +0.000 A 
ATOM     12  C   UNL     1      -6.970   6.332 -36.649  0.00  0.00    +0.000 A 
ATOM     13  C   UNL     1      -7.742   4.186 -37.428  0.00  0.00    +0.000 A 
ATOM     14  C   UNL     1      -6.791   5.203 -37.444  0.00  0.00    +0.000 A 
ENDBRANCH   5   9
BRANCH   4  16
ATOM     15  N   UNL     1     -11.557   8.329 -36.134  0.00  0.00    +0.000 NA
ATOM     16  C   UNL     1     -11.738   7.047 -36.007  0.00  0.00    +0.000 C 
BRANCH  15  17
ATOM     17  O   UNL     1     -10.742   8.845 -35.115  0.00  0.00    +0.000 OA
BRANCH  17  18
ATOM     18  C   UNL     1     -11.233  10.108 -34.674  0.00  0.00    +0.000 C 
BRANCH  18  21
ATOM     19 CL   UNL     1      -8.151   9.227 -30.605  0.00  0.00    +0.000 Cl
ATOM     20 CL   UNL     1      -7.561  12.427 -30.493  0.00  0.00    +0.000 Cl
ATOM     21  C   UNL     1     -10.247  10.665 -33.687  0.00  0.00    +0.000 A 
ATOM     22  C   UNL     1      -9.657   9.820 -32.738  0.00  0.00    +0.000 A 
ATOM     23  C   UNL     1      -9.985  12.040 -33.637  0.00  0.00    +0.000 A 
ATOM     24  C   UNL     1      -8.817  10.336 -31.751  0.00  0.00    +0.000 A 
ATOM     25  C   UNL     1      -9.145  12.559 -32.650  0.00  0.00    +0.000 A 
ATOM     26  C   UNL     1      -8.564  11.710 -31.704  0.00  0.00    +0.000 A 
ENDBRANCH  18  21
ENDBRANCH  17  18
ENDBRANCH  15  17
ENDBRANCH   4  16
TORSDOF 5
ENDMDL
MODEL 8
REMARK VINA RESULT:      -4.5     23.537     25.930
REMARK  Name = 3728080
REMARK  5 active torsions:
REMARK  status: ('A' for Active; 'I' for Inactive)
REMARK    1  A    between atoms: O_4  and  N_7
REMARK    2  A    between atoms: O_4  and  C_20
REMARK    3  A    between atoms: C_8  and  C_13
REMARK    4  A    between atoms: C_9  and  C_11
REMARK    5  A    between atoms: C_17  and  C_20
REMARK                            x       y       z     vdW  Elec       q    Type
REMARK                         _______ _______ _______ _____ _____    ______ ____
ROOT
ATOM      1  S   UNL     1       2.001   7.157 -46.310  0.00  0.00    +0.000 S 
ATOM      2  N   UNL     1       1.560   8.717 -44.317  0.00  0.00    +0.000 N 
ATOM      3  N   UNL     1       0.667   6.718 -43.878  0.00  0.00    +0.000 NA
ATOM      4  C   UNL     1       0.976   8.860 -43.081  0.00  0.00    +0.000 A 
ATOM      5  C   UNL     1       0.439   7.591 -42.829  0.00  0.00    +0.000 A 
ATOM      6  C   UNL     1       1.307   7.450 -44.745  0.00  0.00    +0.000 A 
ATOM      7  C   UNL     1       2.336   9.472 -45.174  0.00  0.00    +0.000 A 
ATOM      8  C   UNL     1       2.639   8.805 -46.299  0.00  0.00    +0.000 A 
ENDROOT
BRANCH   5   9
ATOM      9  C   UNL     1      -0.238   7.162 -41.606  0.00  0.00    +0.000 A 
ATOM     10  C   UNL     1       0.522   6.863 -40.467  0.00  0.00    +0.000 A 
ATOM     11  C   UNL     1      -1.634   7.048 -41.527  0.00  0.00    +0.000 A 
ATOM     12  C   UNL     1      -0.100   6.535 -39.258  0.00  0.00    +0.000 A 
ATOM     13  C   UNL     1      -2.257   6.738 -40.315  0.00  0.00    +0.000 A 
ATOM     14  C   UNL     1      -1.490   6.494 -39.178  0.00  0.00    +0.000 A 
ENDBRANCH   5   9
BRANCH   4  16
ATOM     15  N   UNL     1       0.048  10.885 -42.049  0.00  0.00    +0.000 NA
ATOM     16  C   UNL     1       1.011  10.034 -42.252  0.00  0.00    +0.000 C 
BRANCH  15  17
ATOM     17  O   UNL     1      -1.148  10.474 -42.656  0.00  0.00    +0.000 OA
BRANCH  17  18
ATOM     18  C   UNL     1      -2.251  10.681 -41.776  0.00  0.00    +0.000 C 
BRANCH  18  21
ATOM     19 CL   UNL     1      -5.293  14.777 -40.886  0.00  0.00    +0.000 Cl
ATOM     20 CL   UNL     1      -5.941  14.855 -44.076  0.00  0.00    +0.000 Cl
ATOM     21  C   UNL     1      -3.098  11.779 -42.353  0.00  0.00    +0.000 A 
ATOM     22  C   UNL     1      -3.701  12.714 -41.502  0.00  0.00    +0.000 A 
ATOM     23  C   UNL     1      -3.377  11.821 -43.725  0.00  0.00    +0.000 A 
ATOM     24  C   UNL     1      -4.572  13.678 -42.009  0.00  0.00    +0.000 A 
ATOM     25  C   UNL     1      -4.248  12.785 -44.235  0.00  0.00    +0.000 A 
ATOM     26  C   UNL     1      -4.850  13.711 -43.378  0.00  0.00    +0.000 A 
ENDBRANCH  18  21
ENDBRANCH  17  18
ENDBRANCH  15  17
ENDBRANCH   4  16
TORSDOF 5
ENDMDL
MODEL 9
REMARK VINA RESULT:      -4.5     22.943     24.771
REMARK  Name = 3728080
REMARK  5 active torsions:
REMARK  status: ('A' for Active; 'I' for Inactive)
REMARK    1  A    between atoms: O_4  and  N_7
REMARK    2  A    between atoms: O_4  and  C_20
REMARK    3  A    between atoms: C_8  and  C_13
REMARK    4  A    between atoms: C_9  and  C_11
REMARK    5  A    between atoms: C_17  and  C_20
REMARK                            x       y       z     vdW  Elec       q    Type
REMARK                         _______ _______ _______ _____ _____    ______ ____
ROOT
ATOM      1  S   UNL     1      -9.764  10.066 -31.392  0.00  0.00    +0.000 S 
ATOM      2  N   UNL     1     -10.884   9.461 -33.623  0.00  0.00    +0.000 N 
ATOM      3  N   UNL     1      -9.102   8.148 -33.334  0.00  0.00    +0.000 NA
ATOM      4  C   UNL     1     -10.843   8.677 -34.751  0.00  0.00    +0.000 A 
ATOM      5  C   UNL     1      -9.727   7.858 -34.535  0.00  0.00    +0.000 A 
ATOM      6  C   UNL     1      -9.813   9.127 -32.854  0.00  0.00    +0.000 A 
ATOM      7  C   UNL     1     -11.715  10.419 -33.076  0.00  0.00    +0.000 A 
ATOM      8  C   UNL     1     -11.253  10.872 -31.899  0.00  0.00    +0.000 A 
ENDROOT
BRANCH   5   9
ATOM      9  C   UNL     1      -9.262   6.776 -35.401  0.00  0.00    +0.000 A 
ATOM     10  C   UNL     1      -8.028   6.901 -36.056  0.00  0.00    +0.000 A 
ATOM     11  C   UNL     1     -10.004   5.602 -35.591  0.00  0.00    +0.000 A 
ATOM     12  C   UNL     1      -7.515   5.848 -36.819  0.00  0.00    +0.000 A 
ATOM     13  C   UNL     1      -9.483   4.542 -36.339  0.00  0.00    +0.000 A 
ATOM     14  C   UNL     1      -8.233   4.661 -36.943  0.00  0.00    +0.000 A 
ENDBRANCH   5   9
BRANCH   4  16
ATOM     15  N   UNL     1     -12.924   8.040 -35.886  0.00  0.00    +0.000 NA
ATOM     16  C   UNL     1     -11.794   8.682 -35.830  0.00  0.00    +0.000 C 
BRANCH  15  17
ATOM     17  O   UNL     1     -13.215   7.388 -34.678  0.00  0.00    +0.000 OA
BRANCH  17  18
ATOM     18  C   UNL     1     -14.534   6.846 -34.709  0.00  0.00    +0.000 C 
BRANCH  18  21
ATOM     19 CL   UNL     1     -16.232  10.836 -31.877  0.00  0.00    +0.000 Cl
ATOM     20 CL   UNL     1     -18.656  11.189 -34.021  0.00  0.00    +0.000 Cl
ATOM     21  C   UNL     1     -15.502   7.986 -34.580  0.00  0.00    +0.000 A 
ATOM     22  C   UNL     1     -15.429   8.841 -33.472  0.00  0.00    +0.000 A 
ATOM     23  C   UNL     1     -16.544   8.147 -35.502  0.00  0.00    +0.000 A 
ATOM     24  C   UNL     1     -16.382   9.842 -33.283  0.00  0.00    +0.000 A 
ATOM     25  C   UNL     1     -17.499   9.148 -35.315  0.00  0.00    +0.000 A 
ATOM     26  C   UNL     1     -17.422   9.993 -34.204  0.00  0.00    +0.000 A 
ENDBRANCH  18  21
ENDBRANCH  17  18
ENDBRANCH  15  17
ENDBRANCH   4  16
TORSDOF 5
ENDMDL
MODEL 10
REMARK VINA RESULT:      -4.4     21.098     22.704
REMARK  Name = 3728080
REMARK  5 active torsions:
REMARK  status: ('A' for Active; 'I' for Inactive)
REMARK    1  A    between atoms: O_4  and  N_7
REMARK    2  A    between atoms: O_4  and  C_20
REMARK    3  A    between atoms: C_8  and  C_13
REMARK    4  A    between atoms: C_9  and  C_11
REMARK    5  A    between atoms: C_17  and  C_20
REMARK                            x       y       z     vdW  Elec       q    Type
REMARK                         _______ _______ _______ _____ _____    ______ ____
ROOT
ATOM      1  S   UNL     1      -9.128  -7.864 -42.281  0.00  0.00    +0.000 S 
ATOM      2  N   UNL     1     -10.940  -7.099 -43.933  0.00  0.00    +0.000 N 
ATOM      3  N   UNL     1     -11.514  -9.093 -43.107  0.00  0.00    +0.000 NA
ATOM      4  C   UNL     1     -12.124  -7.408 -44.560  0.00  0.00    +0.000 A 
ATOM      5  C   UNL     1     -12.464  -8.652 -44.013  0.00  0.00    +0.000 A 
ATOM      6  C   UNL     1     -10.619  -8.146 -43.126  0.00  0.00    +0.000 A 
ATOM      7  C   UNL     1     -10.061  -6.036 -43.879  0.00  0.00    +0.000 A 
ATOM      8  C   UNL     1      -9.020  -6.284 -43.067  0.00  0.00    +0.000 A 
ENDROOT
BRANCH   5   9
ATOM      9  C   UNL     1     -13.682  -9.415 -44.279  0.00  0.00    +0.000 A 
ATOM     10  C   UNL     1     -14.385  -9.195 -45.472  0.00  0.00    +0.000 A 
ATOM     11  C   UNL     1     -14.170 -10.377 -43.383  0.00  0.00    +0.000 A 
ATOM     12  C   UNL     1     -15.503  -9.970 -45.795  0.00  0.00    +0.000 A 
ATOM     13  C   UNL     1     -15.276 -11.164 -43.714  0.00  0.00    +0.000 A 
ATOM     14  C   UNL     1     -15.934 -10.969 -44.926  0.00  0.00    +0.000 A 
ENDBRANCH   5   9
BRANCH   4  16
ATOM     15  N   UNL     1     -13.821  -5.763 -45.221  0.00  0.00    +0.000 NA
ATOM     16  C   UNL     1     -12.841  -6.576 -45.487  0.00  0.00    +0.000 C 
BRANCH  15  17
ATOM     17  O   UNL     1     -14.063  -5.670 -43.842  0.00  0.00    +0.000 OA
BRANCH  17  18
ATOM     18  C   UNL     1     -15.399  -6.068 -43.542  0.00  0.00    +0.000 C 
BRANCH  18  21
ATOM     19 CL   UNL     1     -12.613  -7.879 -39.569  0.00  0.00    +0.000 Cl
ATOM     20 CL   UNL     1     -15.120  -9.823 -38.835  0.00  0.00    +0.000 Cl
ATOM     21  C   UNL     1     -15.356  -6.933 -42.315  0.00  0.00    +0.000 A 
ATOM     22  C   UNL     1     -14.190  -6.986 -41.540  0.00  0.00    +0.000 A 
ATOM     23  C   UNL     1     -16.433  -7.767 -41.991  0.00  0.00    +0.000 A 
ATOM     24  C   UNL     1     -14.097  -7.860 -40.456  0.00  0.00    +0.000 A 
ATOM     25  C   UNL     1     -16.342  -8.642 -40.907  0.00  0.00    +0.000 A 
ATOM     26  C   UNL     1     -15.173  -8.693 -40.142  0.00  0.00    +0.000 A 
ENDBRANCH  18  21
ENDBRANCH  17  18
ENDBRANCH  15  17
ENDBRANCH   4  16
TORSDOF 5
ENDMDL
