MODEL 1
REMARK VINA RESULT:      -6.1      0.000      0.000
REMARK  Name = 3751173
REMARK  5 active torsions:
REMARK  status: ('A' for Active; 'I' for Inactive)
REMARK    1  A    between atoms: O_5  and  N_8
REMARK    2  A    between atoms: O_5  and  C_21
REMARK    3  A    between atoms: C_9  and  C_14
REMARK    4  A    between atoms: C_10  and  C_12
REMARK    5  A    between atoms: C_20  and  C_21
REMARK                            x       y       z     vdW  Elec       q    Type
REMARK                         _______ _______ _______ _____ _____    ______ ____
ROOT
ATOM      1  S   UNL     1       7.275   9.509   2.043  0.00  0.00    +0.000 S 
ATOM      2  N   UNL     1       9.525   9.085   3.230  0.00  0.00    +0.000 N 
ATOM      3  N   UNL     1       7.891   8.018   4.326  0.00  0.00    +0.000 NA
ATOM      4  C   UNL     1      10.163   8.441   4.271  0.00  0.00    +0.000 A 
ATOM      5  C   UNL     1       9.109   7.807   4.946  0.00  0.00    +0.000 A 
ATOM      6  C   UNL     1       8.194   8.795   3.330  0.00  0.00    +0.000 A 
ATOM      7  C   UNL     1       9.852   9.859   2.133  0.00  0.00    +0.000 A 
ATOM      8  C   UNL     1       8.774  10.188   1.403  0.00  0.00    +0.000 A 
ENDROOT
BRANCH   5  10
ATOM      9 CL   UNL     1       9.537   4.545   9.941  0.00  0.00    +0.000 Cl
ATOM     10  C   UNL     1       9.194   6.979   6.141  0.00  0.00    +0.000 A 
ATOM     11  C   UNL     1       8.843   7.532   7.382  0.00  0.00    +0.000 A 
ATOM     12  C   UNL     1       9.674   5.662   6.103  0.00  0.00    +0.000 A 
ATOM     13  C   UNL     1       8.945   6.783   8.557  0.00  0.00    +0.000 A 
ATOM     14  C   UNL     1       9.770   4.908   7.277  0.00  0.00    +0.000 A 
ATOM     15  C   UNL     1       9.405   5.472   8.498  0.00  0.00    +0.000 A 
ENDBRANCH   5  10
BRANCH   4  17
ATOM     16  N   UNL     1      12.468   7.588   3.938  0.00  0.00    +0.000 NA
ATOM     17  C   UNL     1      11.576   8.335   4.521  0.00  0.00    +0.000 C 
BRANCH  16  18
ATOM     18  O   UNL     1      11.958   6.888   2.843  0.00  0.00    +0.000 OA
BRANCH  18  19
ATOM     19  C   UNL     1      11.988   5.485   3.122  0.00  0.00    +0.000 C 
BRANCH  19  22
ATOM     20 CL   UNL     1      10.062   4.814  -1.677  0.00  0.00    +0.000 Cl
ATOM     21 CL   UNL     1      12.400   2.606  -2.173  0.00  0.00    +0.000 Cl
ATOM     22  C   UNL     1      12.042   4.769   1.796  0.00  0.00    +0.000 A 
ATOM     23  C   UNL     1      11.127   5.055   0.774  0.00  0.00    +0.000 A 
ATOM     24  C   UNL     1      13.036   3.807   1.572  0.00  0.00    +0.000 A 
ATOM     25  C   UNL     1      11.217   4.397  -0.460  0.00  0.00    +0.000 A 
ATOM     26  C   UNL     1      13.129   3.153   0.346  0.00  0.00    +0.000 A 
ATOM     27  C   UNL     1      12.222   3.447  -0.675  0.00  0.00    +0.000 A 
ENDBRANCH  19  22
ENDBRANCH  18  19
ENDBRANCH  16  18
ENDBRANCH   4  17
TORSDOF 5
ENDMDL
MODEL 2
REMARK VINA RESULT:      -6.1     19.817     22.125
REMARK  Name = 3751173
REMARK  5 active torsions:
REMARK  status: ('A' for Active; 'I' for Inactive)
REMARK    1  A    between atoms: O_5  and  N_8
REMARK    2  A    between atoms: O_5  and  C_21
REMARK    3  A    between atoms: C_9  and  C_14
REMARK    4  A    between atoms: C_10  and  C_12
REMARK    5  A    between atoms: C_20  and  C_21
REMARK                            x       y       z     vdW  Elec       q    Type
REMARK                         _______ _______ _______ _____ _____    ______ ____
ROOT
ATOM      1  S   UNL     1      10.583  13.829  22.160  0.00  0.00    +0.000 S 
ATOM      2  N   UNL     1       9.026  15.596  21.107  0.00  0.00    +0.000 N 
ATOM      3  N   UNL     1       8.197  14.956  23.085  0.00  0.00    +0.000 NA
ATOM      4  C   UNL     1       7.881  16.348  21.266  0.00  0.00    +0.000 A 
ATOM      5  C   UNL     1       7.378  15.904  22.499  0.00  0.00    +0.000 A 
ATOM      6  C   UNL     1       9.145  14.800  22.210  0.00  0.00    +0.000 A 
ATOM      7  C   UNL     1      10.069  15.472  20.208  0.00  0.00    +0.000 A 
ATOM      8  C   UNL     1      10.976  14.564  20.604  0.00  0.00    +0.000 A 
ENDROOT
BRANCH   5  10
ATOM      9 CL   UNL     1       2.508  17.769  25.428  0.00  0.00    +0.000 Cl
ATOM     10  C   UNL     1       6.168  16.351  23.175  0.00  0.00    +0.000 A 
ATOM     11  C   UNL     1       6.213  17.514  23.959  0.00  0.00    +0.000 A 
ATOM     12  C   UNL     1       4.971  15.623  23.120  0.00  0.00    +0.000 A 
ATOM     13  C   UNL     1       5.085  17.956  24.654  0.00  0.00    +0.000 A 
ATOM     14  C   UNL     1       3.838  16.068  23.808  0.00  0.00    +0.000 A 
ATOM     15  C   UNL     1       3.901  17.232  24.572  0.00  0.00    +0.000 A 
ENDBRANCH   5  10
BRANCH   4  17
ATOM     16  N   UNL     1       6.383  17.444  19.620  0.00  0.00    +0.000 NA
ATOM     17  C   UNL     1       7.395  17.420  20.438  0.00  0.00    +0.000 C 
BRANCH  16  18
ATOM     18  O   UNL     1       5.621  16.275  19.666  0.00  0.00    +0.000 OA
BRANCH  18  19
ATOM     19  C   UNL     1       4.459  16.433  18.846  0.00  0.00    +0.000 C 
BRANCH  19  22
ATOM     20 CL   UNL     1       0.249  14.209  20.971  0.00  0.00    +0.000 Cl
ATOM     21 CL   UNL     1      -0.191  16.950  22.668  0.00  0.00    +0.000 Cl
ATOM     22  C   UNL     1       3.273  16.533  19.770  0.00  0.00    +0.000 A 
ATOM     23  C   UNL     1       2.378  15.466  19.930  0.00  0.00    +0.000 A 
ATOM     24  C   UNL     1       3.064  17.712  20.499  0.00  0.00    +0.000 A 
ATOM     25  C   UNL     1       1.300  15.573  20.817  0.00  0.00    +0.000 A 
ATOM     26  C   UNL     1       1.993  17.821  21.383  0.00  0.00    +0.000 A 
ATOM     27  C   UNL     1       1.109  16.752  21.548  0.00  0.00    +0.000 A 
ENDBRANCH  19  22
ENDBRANCH  18  19
ENDBRANCH  16  18
ENDBRANCH   4  17
TORSDOF 5
ENDMDL
MODEL 3
REMARK VINA RESULT:      -6.0     36.848     38.269
REMARK  Name = 3751173
REMARK  5 active torsions:
REMARK  status: ('A' for Active; 'I' for Inactive)
REMARK    1  A    between atoms: O_5  and  N_8
REMARK    2  A    between atoms: O_5  and  C_21
REMARK    3  A    between atoms: C_9  and  C_14
REMARK    4  A    between atoms: C_10  and  C_12
REMARK    5  A    between atoms: C_20  and  C_21
REMARK                            x       y       z     vdW  Elec       q    Type
REMARK                         _______ _______ _______ _____ _____    ______ ____
ROOT
ATOM      1  S   UNL     1     -18.808   7.471  33.127  0.00  0.00    +0.000 S 
ATOM      2  N   UNL     1     -16.671   6.114  33.625  0.00  0.00    +0.000 N 
ATOM      3  N   UNL     1     -16.114   8.218  33.103  0.00  0.00    +0.000 NA
ATOM      4  C   UNL     1     -15.296   6.148  33.729  0.00  0.00    +0.000 A 
ATOM      5  C   UNL     1     -14.983   7.468  33.372  0.00  0.00    +0.000 A 
ATOM      6  C   UNL     1     -17.080   7.362  33.249  0.00  0.00    +0.000 A 
ATOM      7  C   UNL     1     -17.707   5.224  33.840  0.00  0.00    +0.000 A 
ATOM      8  C   UNL     1     -18.909   5.775  33.606  0.00  0.00    +0.000 A 
ENDROOT
BRANCH   5  10
ATOM      9 CL   UNL     1      -9.624  10.117  33.149  0.00  0.00    +0.000 Cl
ATOM     10  C   UNL     1     -13.662   8.076  33.300  0.00  0.00    +0.000 A 
ATOM     11  C   UNL     1     -13.169   8.777  34.411  0.00  0.00    +0.000 A 
ATOM     12  C   UNL     1     -12.887   8.038  32.131  0.00  0.00    +0.000 A 
ATOM     13  C   UNL     1     -11.923   9.406  34.369  0.00  0.00    +0.000 A 
ATOM     14  C   UNL     1     -11.636   8.661  32.090  0.00  0.00    +0.000 A 
ATOM     15  C   UNL     1     -11.160   9.341  33.209  0.00  0.00    +0.000 A 
ENDBRANCH   5  10
BRANCH   4  17
ATOM     16  N   UNL     1     -13.840   4.146  33.572  0.00  0.00    +0.000 NA
ATOM     17  C   UNL     1     -14.413   5.121  34.216  0.00  0.00    +0.000 C 
BRANCH  16  18
ATOM     18  O   UNL     1     -14.051   4.208  32.193  0.00  0.00    +0.000 OA
BRANCH  18  19
ATOM     19  C   UNL     1     -13.407   3.096  31.564  0.00  0.00    +0.000 C 
BRANCH  19  22
ATOM     20 CL   UNL     1     -16.528   4.152  27.522  0.00  0.00    +0.000 Cl
ATOM     21 CL   UNL     1     -17.005   0.948  27.212  0.00  0.00    +0.000 Cl
ATOM     22  C   UNL     1     -14.333   2.600  30.482  0.00  0.00    +0.000 A 
ATOM     23  C   UNL     1     -14.964   3.486  29.598  0.00  0.00    +0.000 A 
ATOM     24  C   UNL     1     -14.557   1.224  30.343  0.00  0.00    +0.000 A 
ATOM     25  C   UNL     1     -15.796   2.999  28.582  0.00  0.00    +0.000 A 
ATOM     26  C   UNL     1     -15.383   0.736  29.333  0.00  0.00    +0.000 A 
ATOM     27  C   UNL     1     -16.003   1.620  28.448  0.00  0.00    +0.000 A 
ENDBRANCH  19  22
ENDBRANCH  18  19
ENDBRANCH  16  18
ENDBRANCH   4  17
TORSDOF 5
ENDMDL
MODEL 4
REMARK VINA RESULT:      -6.0     36.314     38.148
REMARK  Name = 3751173
REMARK  5 active torsions:
REMARK  status: ('A' for Active; 'I' for Inactive)
REMARK    1  A    between atoms: O_5  and  N_8
REMARK    2  A    between atoms: O_5  and  C_21
REMARK    3  A    between atoms: C_9  and  C_14
REMARK    4  A    between atoms: C_10  and  C_12
REMARK    5  A    between atoms: C_20  and  C_21
REMARK                            x       y       z     vdW  Elec       q    Type
REMARK                         _______ _______ _______ _____ _____    ______ ____
ROOT
ATOM      1  S   UNL     1     -13.938   0.844  30.829  0.00  0.00    +0.000 S 
ATOM      2  N   UNL     1     -15.086   2.492  29.210  0.00  0.00    +0.000 N 
ATOM      3  N   UNL     1     -15.805   0.414  28.794  0.00  0.00    +0.000 NA
ATOM      4  C   UNL     1     -15.998   2.636  28.185  0.00  0.00    +0.000 A 
ATOM      5  C   UNL     1     -16.406   1.317  27.935  0.00  0.00    +0.000 A 
ATOM      6  C   UNL     1     -15.022   1.162  29.511  0.00  0.00    +0.000 A 
ATOM      7  C   UNL     1     -14.298   3.291  30.018  0.00  0.00    +0.000 A 
ATOM      8  C   UNL     1     -13.609   2.577  30.922  0.00  0.00    +0.000 A 
ENDROOT
BRANCH   5  10
ATOM      9 CL   UNL     1     -20.386  -0.701  23.952  0.00  0.00    +0.000 Cl
ATOM     10  C   UNL     1     -17.366   0.860  26.940  0.00  0.00    +0.000 A 
ATOM     11  C   UNL     1     -18.634   0.430  27.359  0.00  0.00    +0.000 A 
ATOM     12  C   UNL     1     -17.043   0.778  25.577  0.00  0.00    +0.000 A 
ATOM     13  C   UNL     1     -19.569  -0.051  26.440  0.00  0.00    +0.000 A 
ATOM     14  C   UNL     1     -17.981   0.304  24.655  0.00  0.00    +0.000 A 
ATOM     15  C   UNL     1     -19.240  -0.107  25.090  0.00  0.00    +0.000 A 
ENDBRANCH   5  10
BRANCH   4  17
ATOM     16  N   UNL     1     -17.394   4.683  28.068  0.00  0.00    +0.000 NA
ATOM     17  C   UNL     1     -16.505   3.852  27.606  0.00  0.00    +0.000 C 
BRANCH  16  18
ATOM     18  O   UNL     1     -17.807   4.370  29.364  0.00  0.00    +0.000 OA
BRANCH  18  19
ATOM     19  C   UNL     1     -17.846   5.564  30.152  0.00  0.00    +0.000 C 
BRANCH  19  22
ATOM     20 CL   UNL     1     -13.600   7.112  32.751  0.00  0.00    +0.000 Cl
ATOM     21 CL   UNL     1     -14.178   4.717  34.876  0.00  0.00    +0.000 Cl
ATOM     22  C   UNL     1     -16.893   5.369  31.303  0.00  0.00    +0.000 A 
ATOM     23  C   UNL     1     -15.787   6.209  31.488  0.00  0.00    +0.000 A 
ATOM     24  C   UNL     1     -17.123   4.334  32.220  0.00  0.00    +0.000 A 
ATOM     25  C   UNL     1     -14.933   6.025  32.583  0.00  0.00    +0.000 A 
ATOM     26  C   UNL     1     -16.276   4.149  33.311  0.00  0.00    +0.000 A 
ATOM     27  C   UNL     1     -15.180   4.995  33.498  0.00  0.00    +0.000 A 
ENDBRANCH  19  22
ENDBRANCH  18  19
ENDBRANCH  16  18
ENDBRANCH   4  17
TORSDOF 5
ENDMDL
MODEL 5
REMARK VINA RESULT:      -5.9     17.797     20.594
REMARK  Name = 3751173
REMARK  5 active torsions:
REMARK  status: ('A' for Active; 'I' for Inactive)
REMARK    1  A    between atoms: O_5  and  N_8
REMARK    2  A    between atoms: O_5  and  C_21
REMARK    3  A    between atoms: C_9  and  C_14
REMARK    4  A    between atoms: C_10  and  C_12
REMARK    5  A    between atoms: C_20  and  C_21
REMARK                            x       y       z     vdW  Elec       q    Type
REMARK                         _______ _______ _______ _____ _____    ______ ____
ROOT
ATOM      1  S   UNL     1      14.208  16.280  22.396  0.00  0.00    +0.000 S 
ATOM      2  N   UNL     1      12.402  15.098  23.810  0.00  0.00    +0.000 N 
ATOM      3  N   UNL     1      11.425  16.222  22.139  0.00  0.00    +0.000 NA
ATOM      4  C   UNL     1      11.055  14.843  23.958  0.00  0.00    +0.000 A 
ATOM      5  C   UNL     1      10.475  15.580  22.914  0.00  0.00    +0.000 A 
ATOM      6  C   UNL     1      12.543  15.917  22.726  0.00  0.00    +0.000 A 
ATOM      7  C   UNL     1      13.599  14.726  24.393  0.00  0.00    +0.000 A 
ATOM      8  C   UNL     1      14.658  15.277  23.778  0.00  0.00    +0.000 A 
ENDROOT
BRANCH   5  10
ATOM      9 CL   UNL     1       4.625  15.992  21.738  0.00  0.00    +0.000 Cl
ATOM     10  C   UNL     1       9.061  15.690  22.585  0.00  0.00    +0.000 A 
ATOM     11  C   UNL     1       8.214  16.414  23.438  0.00  0.00    +0.000 A 
ATOM     12  C   UNL     1       8.501  15.041  21.474  0.00  0.00    +0.000 A 
ATOM     13  C   UNL     1       6.845  16.512  23.179  0.00  0.00    +0.000 A 
ATOM     14  C   UNL     1       7.133  15.144  21.209  0.00  0.00    +0.000 A 
ATOM     15  C   UNL     1       6.311  15.879  22.062  0.00  0.00    +0.000 A 
ENDBRANCH   5  10
BRANCH   4  17
ATOM     16  N   UNL     1      10.218  12.654  24.770  0.00  0.00    +0.000 NA
ATOM     17  C   UNL     1      10.414  13.936  24.873  0.00  0.00    +0.000 C 
BRANCH  16  18
ATOM     18  O   UNL     1      10.832  12.100  23.646  0.00  0.00    +0.000 OA
BRANCH  18  19
ATOM     19  C   UNL     1      10.905  10.679  23.796  0.00  0.00    +0.000 C 
BRANCH  19  22
ATOM     20 CL   UNL     1      13.067  11.116  19.071  0.00  0.00    +0.000 Cl
ATOM     21 CL   UNL     1      11.866   8.171  18.385  0.00  0.00    +0.000 Cl
ATOM     22  C   UNL     1      11.144  10.098  22.426  0.00  0.00    +0.000 A 
ATOM     23  C   UNL     1      11.890  10.787  21.460  0.00  0.00    +0.000 A 
ATOM     24  C   UNL     1      10.624   8.835  22.112  0.00  0.00    +0.000 A 
ATOM     25  C   UNL     1      12.124  10.212  20.204  0.00  0.00    +0.000 A 
ATOM     26  C   UNL     1      10.855   8.261  20.864  0.00  0.00    +0.000 A 
ATOM     27  C   UNL     1      11.608   8.945  19.907  0.00  0.00    +0.000 A 
ENDBRANCH  19  22
ENDBRANCH  18  19
ENDBRANCH  16  18
ENDBRANCH   4  17
TORSDOF 5
ENDMDL
MODEL 6
REMARK VINA RESULT:      -5.9     23.352     25.183
REMARK  Name = 3751173
REMARK  5 active torsions:
REMARK  status: ('A' for Active; 'I' for Inactive)
REMARK    1  A    between atoms: O_5  and  N_8
REMARK    2  A    between atoms: O_5  and  C_21
REMARK    3  A    between atoms: C_9  and  C_14
REMARK    4  A    between atoms: C_10  and  C_12
REMARK    5  A    between atoms: C_20  and  C_21
REMARK                            x       y       z     vdW  Elec       q    Type
REMARK                         _______ _______ _______ _____ _____    ______ ____
ROOT
ATOM      1  S   UNL     1      -5.599 -11.521   5.792  0.00  0.00    +0.000 S 
ATOM      2  N   UNL     1      -5.617 -10.025   7.893  0.00  0.00    +0.000 N 
ATOM      3  N   UNL     1      -4.272 -11.780   8.239  0.00  0.00    +0.000 NA
ATOM      4  C   UNL     1      -5.115  -9.836   9.164  0.00  0.00    +0.000 A 
ATOM      5  C   UNL     1      -4.300 -10.962   9.354  0.00  0.00    +0.000 A 
ATOM      6  C   UNL     1      -5.082 -11.187   7.415  0.00  0.00    +0.000 A 
ATOM      7  C   UNL     1      -6.430  -9.366   6.990  0.00  0.00    +0.000 A 
ATOM      8  C   UNL     1      -6.543 -10.030   5.828  0.00  0.00    +0.000 A 
ENDROOT
BRANCH   5  10
ATOM      9 CL   UNL     1      -1.221 -12.407  14.275  0.00  0.00    +0.000 Cl
ATOM     10  C   UNL     1      -3.514 -11.298  10.533  0.00  0.00    +0.000 A 
ATOM     11  C   UNL     1      -3.680 -12.557  11.130  0.00  0.00    +0.000 A 
ATOM     12  C   UNL     1      -2.637 -10.380  11.131  0.00  0.00    +0.000 A 
ATOM     13  C   UNL     1      -2.972 -12.904  12.284  0.00  0.00    +0.000 A 
ATOM     14  C   UNL     1      -1.923 -10.728  12.281  0.00  0.00    +0.000 A 
ATOM     15  C   UNL     1      -2.093 -11.988  12.852  0.00  0.00    +0.000 A 
ENDBRANCH   5  10
BRANCH   4  17
ATOM     16  N   UNL     1      -5.876  -8.610  11.181  0.00  0.00    +0.000 NA
ATOM     17  C   UNL     1      -5.279  -8.697  10.028  0.00  0.00    +0.000 C 
BRANCH  16  18
ATOM     18  O   UNL     1      -6.307  -9.846  11.664  0.00  0.00    +0.000 OA
BRANCH  18  19
ATOM     19  C   UNL     1      -7.267  -9.641  12.705  0.00  0.00    +0.000 C 
BRANCH  19  22
ATOM     20 CL   UNL     1      -7.476  -9.919  17.908  0.00  0.00    +0.000 Cl
ATOM     21 CL   UNL     1      -4.412 -11.012  17.849  0.00  0.00    +0.000 Cl
ATOM     22  C   UNL     1      -6.580  -9.947  14.011  0.00  0.00    +0.000 A 
ATOM     23  C   UNL     1      -7.241  -9.796  15.238  0.00  0.00    +0.000 A 
ATOM     24  C   UNL     1      -5.257 -10.408  14.002  0.00  0.00    +0.000 A 
ATOM     25  C   UNL     1      -6.590 -10.117  16.436  0.00  0.00    +0.000 A 
ATOM     26  C   UNL     1      -4.607 -10.728  15.192  0.00  0.00    +0.000 A 
ATOM     27  C   UNL     1      -5.271 -10.587  16.412  0.00  0.00    +0.000 A 
ENDBRANCH  19  22
ENDBRANCH  18  19
ENDBRANCH  16  18
ENDBRANCH   4  17
TORSDOF 5
ENDMDL
MODEL 7
REMARK VINA RESULT:      -5.7     19.276     21.958
REMARK  Name = 3751173
REMARK  5 active torsions:
REMARK  status: ('A' for Active; 'I' for Inactive)
REMARK    1  A    between atoms: O_5  and  N_8
REMARK    2  A    between atoms: O_5  and  C_21
REMARK    3  A    between atoms: C_9  and  C_14
REMARK    4  A    between atoms: C_10  and  C_12
REMARK    5  A    between atoms: C_20  and  C_21
REMARK                            x       y       z     vdW  Elec       q    Type
REMARK                         _______ _______ _______ _____ _____    ______ ____
ROOT
ATOM      1  S   UNL     1       6.289  19.732  16.712  0.00  0.00    +0.000 S 
ATOM      2  N   UNL     1       6.253  17.459  17.932  0.00  0.00    +0.000 N 
ATOM      3  N   UNL     1       4.283  18.483  18.207  0.00  0.00    +0.000 NA
ATOM      4  C   UNL     1       5.503  16.578  18.682  0.00  0.00    +0.000 A 
ATOM      5  C   UNL     1       4.289  17.261  18.855  0.00  0.00    +0.000 A 
ATOM      6  C   UNL     1       5.474  18.555  17.696  0.00  0.00    +0.000 A 
ATOM      7  C   UNL     1       7.498  17.513  17.333  0.00  0.00    +0.000 A 
ATOM      8  C   UNL     1       7.689  18.658  16.658  0.00  0.00    +0.000 A 
ENDROOT
BRANCH   5  10
ATOM      9 CL   UNL     1      -0.464  15.433  21.992  0.00  0.00    +0.000 Cl
ATOM     10  C   UNL     1       3.112  16.806  19.581  0.00  0.00    +0.000 A 
ATOM     11  C   UNL     1       2.613  17.587  20.633  0.00  0.00    +0.000 A 
ATOM     12  C   UNL     1       2.493  15.578  19.302  0.00  0.00    +0.000 A 
ATOM     13  C   UNL     1       1.508  17.168  21.379  0.00  0.00    +0.000 A 
ATOM     14  C   UNL     1       1.383  15.161  20.042  0.00  0.00    +0.000 A 
ATOM     15  C   UNL     1       0.896  15.957  21.076  0.00  0.00    +0.000 A 
ENDBRANCH   5  10
BRANCH   4  17
ATOM     16  N   UNL     1       6.431  14.805  20.148  0.00  0.00    +0.000 NA
ATOM     17  C   UNL     1       5.833  15.233  19.074  0.00  0.00    +0.000 C 
BRANCH  16  18
ATOM     18  O   UNL     1       6.670  15.820  21.077  0.00  0.00    +0.000 OA
BRANCH  18  19
ATOM     19  C   UNL     1       6.700  15.260  22.393  0.00  0.00    +0.000 C 
BRANCH  19  22
ATOM     20 CL   UNL     1       5.428  19.347  25.372  0.00  0.00    +0.000 Cl
ATOM     21 CL   UNL     1       2.417  18.127  25.545  0.00  0.00    +0.000 Cl
ATOM     22  C   UNL     1       5.665  15.991  23.211  0.00  0.00    +0.000 A 
ATOM     23  C   UNL     1       5.969  17.190  23.871  0.00  0.00    +0.000 A 
ATOM     24  C   UNL     1       4.367  15.472  23.304  0.00  0.00    +0.000 A 
ATOM     25  C   UNL     1       4.982  17.866  24.600  0.00  0.00    +0.000 A 
ATOM     26  C   UNL     1       3.383  16.143  24.028  0.00  0.00    +0.000 A 
ATOM     27  C   UNL     1       3.686  17.342  24.675  0.00  0.00    +0.000 A 
ENDBRANCH  19  22
ENDBRANCH  18  19
ENDBRANCH  16  18
ENDBRANCH   4  17
TORSDOF 5
ENDMDL
MODEL 8
REMARK VINA RESULT:      -5.6     38.458     41.211
REMARK  Name = 3751173
REMARK  5 active torsions:
REMARK  status: ('A' for Active; 'I' for Inactive)
REMARK    1  A    between atoms: O_5  and  N_8
REMARK    2  A    between atoms: O_5  and  C_21
REMARK    3  A    between atoms: C_9  and  C_14
REMARK    4  A    between atoms: C_10  and  C_12
REMARK    5  A    between atoms: C_20  and  C_21
REMARK                            x       y       z     vdW  Elec       q    Type
REMARK                         _______ _______ _______ _____ _____    ______ ____
ROOT
ATOM      1  S   UNL     1      -6.616   4.437  44.600  0.00  0.00    +0.000 S 
ATOM      2  N   UNL     1      -5.564   6.698  43.939  0.00  0.00    +0.000 N 
ATOM      3  N   UNL     1      -4.812   5.097  42.568  0.00  0.00    +0.000 NA
ATOM      4  C   UNL     1      -4.729   7.355  43.059  0.00  0.00    +0.000 A 
ATOM      5  C   UNL     1      -4.260   6.321  42.235  0.00  0.00    +0.000 A 
ATOM      6  C   UNL     1      -5.559   5.377  43.593  0.00  0.00    +0.000 A 
ATOM      7  C   UNL     1      -6.408   7.002  44.991  0.00  0.00    +0.000 A 
ATOM      8  C   UNL     1      -7.034   5.915  45.471  0.00  0.00    +0.000 A 
ENDROOT
BRANCH   5  10
ATOM      9 CL   UNL     1      -0.583   6.824  37.544  0.00  0.00    +0.000 Cl
ATOM     10  C   UNL     1      -3.331   6.430  41.118  0.00  0.00    +0.000 A 
ATOM     11  C   UNL     1      -3.378   7.567  40.298  0.00  0.00    +0.000 A 
ATOM     12  C   UNL     1      -2.428   5.405  40.797  0.00  0.00    +0.000 A 
ATOM     13  C   UNL     1      -2.531   7.693  39.195  0.00  0.00    +0.000 A 
ATOM     14  C   UNL     1      -1.573   5.533  39.698  0.00  0.00    +0.000 A 
ATOM     15  C   UNL     1      -1.628   6.676  38.903  0.00  0.00    +0.000 A 
ENDBRANCH   5  10
BRANCH   4  17
ATOM     16  N   UNL     1      -3.446   9.471  43.226  0.00  0.00    +0.000 NA
ATOM     17  C   UNL     1      -4.502   8.770  42.932  0.00  0.00    +0.000 C 
BRANCH  16  18
ATOM     18  O   UNL     1      -2.362   8.682  43.613  0.00  0.00    +0.000 OA
BRANCH  18  19
ATOM     19  C   UNL     1      -1.168   9.182  43.003  0.00  0.00    +0.000 C 
BRANCH  19  22
ATOM     20 CL   UNL     1       0.251   4.271  44.032  0.00  0.00    +0.000 Cl
ATOM     21 CL   UNL     1       2.292   4.461  41.505  0.00  0.00    +0.000 Cl
ATOM     22  C   UNL     1      -0.303   7.991  42.677  0.00  0.00    +0.000 A 
ATOM     23  C   UNL     1      -0.380   6.806  43.420  0.00  0.00    +0.000 A 
ATOM     24  C   UNL     1       0.590   8.063  41.598  0.00  0.00    +0.000 A 
ATOM     25  C   UNL     1       0.413   5.703  43.078  0.00  0.00    +0.000 A 
ATOM     26  C   UNL     1       1.379   6.967  41.255  0.00  0.00    +0.000 A 
ATOM     27  C   UNL     1       1.293   5.784  41.991  0.00  0.00    +0.000 A 
ENDBRANCH  19  22
ENDBRANCH  18  19
ENDBRANCH  16  18
ENDBRANCH   4  17
TORSDOF 5
ENDMDL
MODEL 9
REMARK VINA RESULT:      -5.5     21.496     23.221
REMARK  Name = 3751173
REMARK  5 active torsions:
REMARK  status: ('A' for Active; 'I' for Inactive)
REMARK    1  A    between atoms: O_5  and  N_8
REMARK    2  A    between atoms: O_5  and  C_21
REMARK    3  A    between atoms: C_9  and  C_14
REMARK    4  A    between atoms: C_10  and  C_12
REMARK    5  A    between atoms: C_20  and  C_21
REMARK                            x       y       z     vdW  Elec       q    Type
REMARK                         _______ _______ _______ _____ _____    ______ ____
ROOT
ATOM      1  S   UNL     1       2.116  20.764  24.015  0.00  0.00    +0.000 S 
ATOM      2  N   UNL     1       2.263  18.191  24.136  0.00  0.00    +0.000 N 
ATOM      3  N   UNL     1       4.256  19.025  23.550  0.00  0.00    +0.000 NA
ATOM      4  C   UNL     1       3.081  17.088  24.010  0.00  0.00    +0.000 A 
ATOM      5  C   UNL     1       4.309  17.645  23.620  0.00  0.00    +0.000 A 
ATOM      6  C   UNL     1       3.019  19.291  23.846  0.00  0.00    +0.000 A 
ATOM      7  C   UNL     1       0.965  18.483  24.512  0.00  0.00    +0.000 A 
ATOM      8  C   UNL     1       0.712  19.802  24.487  0.00  0.00    +0.000 A 
ENDROOT
BRANCH   5  10
ATOM      9 CL   UNL     1       9.493  14.911  22.427  0.00  0.00    +0.000 Cl
ATOM     10  C   UNL     1       5.551  16.940  23.334  0.00  0.00    +0.000 A 
ATOM     11  C   UNL     1       6.737  17.370  23.947  0.00  0.00    +0.000 A 
ATOM     12  C   UNL     1       5.612  15.880  22.417  0.00  0.00    +0.000 A 
ATOM     13  C   UNL     1       7.956  16.745  23.671  0.00  0.00    +0.000 A 
ATOM     14  C   UNL     1       6.829  15.248  22.146  0.00  0.00    +0.000 A 
ATOM     15  C   UNL     1       7.995  15.684  22.774  0.00  0.00    +0.000 A 
ENDBRANCH   5  10
BRANCH   4  17
ATOM     16  N   UNL     1       2.127  14.827  23.648  0.00  0.00    +0.000 NA
ATOM     17  C   UNL     1       2.786  15.716  24.332  0.00  0.00    +0.000 C 
BRANCH  16  18
ATOM     18  O   UNL     1       1.769  15.277  22.376  0.00  0.00    +0.000 OA
BRANCH  18  19
ATOM     19  C   UNL     1       0.616  14.558  21.926  0.00  0.00    +0.000 C 
BRANCH  19  22
ATOM     20 CL   UNL     1      -3.265  15.951  18.734  0.00  0.00    +0.000 Cl
ATOM     21 CL   UNL     1      -1.019  17.243  16.767  0.00  0.00    +0.000 Cl
ATOM     22  C   UNL     1       0.170  15.197  20.635  0.00  0.00    +0.000 A 
ATOM     23  C   UNL     1      -1.185  15.266  20.283  0.00  0.00    +0.000 A 
ATOM     24  C   UNL     1       1.128  15.748  19.772  0.00  0.00    +0.000 A 
ATOM     25  C   UNL     1      -1.575  15.891  19.092  0.00  0.00    +0.000 A 
ATOM     26  C   UNL     1       0.742  16.371  18.587  0.00  0.00    +0.000 A 
ATOM     27  C   UNL     1      -0.609  16.448  18.244  0.00  0.00    +0.000 A 
ENDBRANCH  19  22
ENDBRANCH  18  19
ENDBRANCH  16  18
ENDBRANCH   4  17
TORSDOF 5
ENDMDL
MODEL 10
REMARK VINA RESULT:      -5.5      3.451      6.081
REMARK  Name = 3751173
REMARK  5 active torsions:
REMARK  status: ('A' for Active; 'I' for Inactive)
REMARK    1  A    between atoms: O_5  and  N_8
REMARK    2  A    between atoms: O_5  and  C_21
REMARK    3  A    between atoms: C_9  and  C_14
REMARK    4  A    between atoms: C_10  and  C_12
REMARK    5  A    between atoms: C_20  and  C_21
REMARK                            x       y       z     vdW  Elec       q    Type
REMARK                         _______ _______ _______ _____ _____    ______ ____
ROOT
ATOM      1  S   UNL     1       8.444   9.851   3.074  0.00  0.00    +0.000 S 
ATOM      2  N   UNL     1       9.061   7.640   4.251  0.00  0.00    +0.000 N 
ATOM      3  N   UNL     1      10.446   7.978   2.525  0.00  0.00    +0.000 NA
ATOM      4  C   UNL     1       9.923   6.563   4.277  0.00  0.00    +0.000 A 
ATOM      5  C   UNL     1      10.756   6.795   3.172  0.00  0.00    +0.000 A 
ATOM      6  C   UNL     1       9.426   8.424   3.194  0.00  0.00    +0.000 A 
ATOM      7  C   UNL     1       8.015   8.151   4.997  0.00  0.00    +0.000 A 
ATOM      8  C   UNL     1       7.557   9.312   4.503  0.00  0.00    +0.000 A 
ENDROOT
BRANCH   5  10
ATOM      9 CL   UNL     1      15.344   3.535   1.149  0.00  0.00    +0.000 Cl
ATOM     10  C   UNL     1      11.860   5.969   2.705  0.00  0.00    +0.000 A 
ATOM     11  C   UNL     1      13.143   6.528   2.615  0.00  0.00    +0.000 A 
ATOM     12  C   UNL     1      11.672   4.643   2.284  0.00  0.00    +0.000 A 
ATOM     13  C   UNL     1      14.221   5.780   2.137  0.00  0.00    +0.000 A 
ATOM     14  C   UNL     1      12.752   3.891   1.813  0.00  0.00    +0.000 A 
ATOM     15  C   UNL     1      14.021   4.462   1.741  0.00  0.00    +0.000 A 
ENDBRANCH   5  10
BRANCH   4  17
ATOM     16  N   UNL     1      10.627   5.546   6.427  0.00  0.00    +0.000 NA
ATOM     17  C   UNL     1      10.028   5.529   5.272  0.00  0.00    +0.000 C 
BRANCH  16  18
ATOM     18  O   UNL     1      11.134   6.804   6.757  0.00  0.00    +0.000 OA
BRANCH  18  19
ATOM     19  C   UNL     1      12.523   6.687   7.080  0.00  0.00    +0.000 C 
BRANCH  19  22
ATOM     20 CL   UNL     1      16.991   8.161   4.832  0.00  0.00    +0.000 Cl
ATOM     21 CL   UNL     1      15.345  10.602   3.446  0.00  0.00    +0.000 Cl
ATOM     22  C   UNL     1      13.268   7.658   6.200  0.00  0.00    +0.000 A 
ATOM     23  C   UNL     1      14.639   7.514   5.950  0.00  0.00    +0.000 A 
ATOM     24  C   UNL     1      12.574   8.721   5.605  0.00  0.00    +0.000 A 
ATOM     25  C   UNL     1      15.302   8.413   5.104  0.00  0.00    +0.000 A 
ATOM     26  C   UNL     1      13.231   9.616   4.763  0.00  0.00    +0.000 A 
ATOM     27  C   UNL     1      14.595   9.464   4.508  0.00  0.00    +0.000 A 
ENDBRANCH  19  22
ENDBRANCH  18  19
ENDBRANCH  16  18
ENDBRANCH   4  17
TORSDOF 5
ENDMDL
