MODEL 1
REMARK VINA RESULT:      -5.3      0.000      0.000
REMARK  Name = 3751173
REMARK  5 active torsions:
REMARK  status: ('A' for Active; 'I' for Inactive)
REMARK    1  A    between atoms: O_5  and  N_8
REMARK    2  A    between atoms: O_5  and  C_21
REMARK    3  A    between atoms: C_9  and  C_14
REMARK    4  A    between atoms: C_10  and  C_12
REMARK    5  A    between atoms: C_20  and  C_21
REMARK                            x       y       z     vdW  Elec       q    Type
REMARK                         _______ _______ _______ _____ _____    ______ ____
ROOT
ATOM      1  S   UNL     1     -22.587   9.845 -59.899  0.00  0.00    +0.000 S 
ATOM      2  N   UNL     1     -20.989   9.482 -57.906  0.00  0.00    +0.000 N 
ATOM      3  N   UNL     1     -23.034   8.750 -57.365  0.00  0.00    +0.000 NA
ATOM      4  C   UNL     1     -20.858   8.993 -56.623  0.00  0.00    +0.000 A 
ATOM      5  C   UNL     1     -22.159   8.568 -56.310  0.00  0.00    +0.000 A 
ATOM      6  C   UNL     1     -22.293   9.310 -58.273  0.00  0.00    +0.000 A 
ATOM      7  C   UNL     1     -20.191  10.020 -58.898  0.00  0.00    +0.000 A 
ATOM      8  C   UNL     1     -20.882  10.288 -60.018  0.00  0.00    +0.000 A 
ENDROOT
BRANCH   5  10
ATOM      9 CL   UNL     1     -23.883   6.115 -51.135  0.00  0.00    +0.000 Cl
ATOM     10  C   UNL     1     -22.619   7.966 -55.067  0.00  0.00    +0.000 A 
ATOM     11  C   UNL     1     -22.260   8.558 -53.846  0.00  0.00    +0.000 A 
ATOM     12  C   UNL     1     -23.361   6.776 -55.045  0.00  0.00    +0.000 A 
ATOM     13  C   UNL     1     -22.650   7.990 -52.630  0.00  0.00    +0.000 A 
ATOM     14  C   UNL     1     -23.759   6.211 -53.830  0.00  0.00    +0.000 A 
ATOM     15  C   UNL     1     -23.401   6.821 -52.629  0.00  0.00    +0.000 A 
ENDBRANCH   5  10
BRANCH   4  17
ATOM     16  N   UNL     1     -18.804   7.850 -55.831  0.00  0.00    +0.000 NA
ATOM     17  C   UNL     1     -19.656   8.833 -55.847  0.00  0.00    +0.000 C 
BRANCH  16  18
ATOM     18  O   UNL     1     -19.073   6.883 -56.801  0.00  0.00    +0.000 OA
BRANCH  18  19
ATOM     19  C   UNL     1     -19.399   5.646 -56.160  0.00  0.00    +0.000 C 
BRANCH  19  22
ATOM     20 CL   UNL     1     -23.359   2.252 -56.185  0.00  0.00    +0.000 Cl
ATOM     21 CL   UNL     1     -24.408   3.685 -58.912  0.00  0.00    +0.000 Cl
ATOM     22  C   UNL     1     -20.639   5.111 -56.831  0.00  0.00    +0.000 A 
ATOM     23  C   UNL     1     -21.355   4.034 -56.292  0.00  0.00    +0.000 A 
ATOM     24  C   UNL     1     -21.097   5.711 -58.013  0.00  0.00    +0.000 A 
ATOM     25  C   UNL     1     -22.521   3.575 -56.919  0.00  0.00    +0.000 A 
ATOM     26  C   UNL     1     -22.256   5.257 -58.637  0.00  0.00    +0.000 A 
ATOM     27  C   UNL     1     -22.974   4.190 -58.092  0.00  0.00    +0.000 A 
ENDBRANCH  19  22
ENDBRANCH  18  19
ENDBRANCH  16  18
ENDBRANCH   4  17
TORSDOF 5
ENDMDL
MODEL 2
REMARK VINA RESULT:      -5.2     22.509     24.785
REMARK  Name = 3751173
REMARK  5 active torsions:
REMARK  status: ('A' for Active; 'I' for Inactive)
REMARK    1  A    between atoms: O_5  and  N_8
REMARK    2  A    between atoms: O_5  and  C_21
REMARK    3  A    between atoms: C_9  and  C_14
REMARK    4  A    between atoms: C_10  and  C_12
REMARK    5  A    between atoms: C_20  and  C_21
REMARK                            x       y       z     vdW  Elec       q    Type
REMARK                         _______ _______ _______ _____ _____    ______ ____
ROOT
ATOM      1  S   UNL     1     -10.618   1.815 -31.889  0.00  0.00    +0.000 S 
ATOM      2  N   UNL     1     -11.311   3.131 -33.997  0.00  0.00    +0.000 N 
ATOM      3  N   UNL     1      -9.087   3.218 -33.761  0.00  0.00    +0.000 NA
ATOM      4  C   UNL     1     -10.873   3.865 -35.080  0.00  0.00    +0.000 A 
ATOM      5  C   UNL     1      -9.484   3.920 -34.885  0.00  0.00    +0.000 A 
ATOM      6  C   UNL     1     -10.209   2.790 -33.266  0.00  0.00    +0.000 A 
ATOM      7  C   UNL     1     -12.496   2.620 -33.501  0.00  0.00    +0.000 A 
ATOM      8  C   UNL     1     -12.312   1.910 -32.376  0.00  0.00    +0.000 A 
ENDROOT
BRANCH   5  10
ATOM      9 CL   UNL     1      -5.549   6.766 -38.377  0.00  0.00    +0.000 Cl
ATOM     10  C   UNL     1      -8.497   4.580 -35.728  0.00  0.00    +0.000 A 
ATOM     11  C   UNL     1      -8.283   5.959 -35.579  0.00  0.00    +0.000 A 
ATOM     12  C   UNL     1      -7.794   3.894 -36.730  0.00  0.00    +0.000 A 
ATOM     13  C   UNL     1      -7.372   6.637 -36.393  0.00  0.00    +0.000 A 
ATOM     14  C   UNL     1      -6.877   4.570 -37.540  0.00  0.00    +0.000 A 
ATOM     15  C   UNL     1      -6.670   5.937 -37.368  0.00  0.00    +0.000 A 
ENDBRANCH   5  10
BRANCH   4  17
ATOM     16  N   UNL     1     -12.278   5.463 -36.355  0.00  0.00    +0.000 NA
ATOM     17  C   UNL     1     -11.637   4.341 -36.203  0.00  0.00    +0.000 C 
BRANCH  16  18
ATOM     18  O   UNL     1     -12.077   6.351 -35.296  0.00  0.00    +0.000 OA
BRANCH  18  19
ATOM     19  C   UNL     1     -12.800   7.560 -35.546  0.00  0.00    +0.000 C 
BRANCH  19  22
ATOM     20 CL   UNL     1     -17.927   8.505 -35.670  0.00  0.00    +0.000 Cl
ATOM     21 CL   UNL     1     -18.189   6.762 -32.935  0.00  0.00    +0.000 Cl
ATOM     22  C   UNL     1     -14.158   7.405 -34.911  0.00  0.00    +0.000 A 
ATOM     23  C   UNL     1     -15.304   7.972 -35.486  0.00  0.00    +0.000 A 
ATOM     24  C   UNL     1     -14.285   6.667 -33.726  0.00  0.00    +0.000 A 
ATOM     25  C   UNL     1     -16.559   7.789 -34.892  0.00  0.00    +0.000 A 
ATOM     26  C   UNL     1     -15.533   6.482 -33.134  0.00  0.00    +0.000 A 
ATOM     27  C   UNL     1     -16.673   7.039 -33.715  0.00  0.00    +0.000 A 
ENDBRANCH  19  22
ENDBRANCH  18  19
ENDBRANCH  16  18
ENDBRANCH   4  17
TORSDOF 5
ENDMDL
MODEL 3
REMARK VINA RESULT:      -5.0     17.271     19.689
REMARK  Name = 3751173
REMARK  5 active torsions:
REMARK  status: ('A' for Active; 'I' for Inactive)
REMARK    1  A    between atoms: O_5  and  N_8
REMARK    2  A    between atoms: O_5  and  C_21
REMARK    3  A    between atoms: C_9  and  C_14
REMARK    4  A    between atoms: C_10  and  C_12
REMARK    5  A    between atoms: C_20  and  C_21
REMARK                            x       y       z     vdW  Elec       q    Type
REMARK                         _______ _______ _______ _____ _____    ______ ____
ROOT
ATOM      1  S   UNL     1       0.065  -1.126 -51.944  0.00  0.00    +0.000 S 
ATOM      2  N   UNL     1      -1.717   0.656 -51.389  0.00  0.00    +0.000 N 
ATOM      3  N   UNL     1      -2.664  -1.013 -52.541  0.00  0.00    +0.000 NA
ATOM      4  C   UNL     1      -3.047   1.009 -51.487  0.00  0.00    +0.000 A 
ATOM      5  C   UNL     1      -3.601  -0.043 -52.233  0.00  0.00    +0.000 A 
ATOM      6  C   UNL     1      -1.566  -0.539 -52.034  0.00  0.00    +0.000 A 
ATOM      7  C   UNL     1      -0.559   1.126 -50.797  0.00  0.00    +0.000 A 
ATOM      8  C   UNL     1       0.487   0.310 -51.007  0.00  0.00    +0.000 A 
ENDROOT
BRANCH   5  10
ATOM      9 CL   UNL     1      -9.299  -0.507 -53.992  0.00  0.00    +0.000 Cl
ATOM     10  C   UNL     1      -4.987  -0.198 -52.650  0.00  0.00    +0.000 A 
ATOM     11  C   UNL     1      -5.402   0.362 -53.868  0.00  0.00    +0.000 A 
ATOM     12  C   UNL     1      -5.940  -0.840 -51.845  0.00  0.00    +0.000 A 
ATOM     13  C   UNL     1      -6.732   0.267 -54.286  0.00  0.00    +0.000 A 
ATOM     14  C   UNL     1      -7.269  -0.942 -52.266  0.00  0.00    +0.000 A 
ATOM     15  C   UNL     1      -7.658  -0.389 -53.484  0.00  0.00    +0.000 A 
ENDBRANCH   5  10
BRANCH   4  17
ATOM     16  N   UNL     1      -4.123   3.241 -51.376  0.00  0.00    +0.000 NA
ATOM     17  C   UNL     1      -3.725   2.114 -50.862  0.00  0.00    +0.000 C 
BRANCH  16  18
ATOM     18  O   UNL     1      -3.947   3.298 -52.760  0.00  0.00    +0.000 OA
BRANCH  18  19
ATOM     19  C   UNL     1      -5.026   4.033 -53.346  0.00  0.00    +0.000 C 
BRANCH  19  22
ATOM     20 CL   UNL     1      -2.925   7.567 -56.554  0.00  0.00    +0.000 Cl
ATOM     21 CL   UNL     1      -3.254   5.399 -58.958  0.00  0.00    +0.000 Cl
ATOM     22  C   UNL     1      -4.596   4.421 -54.738  0.00  0.00    +0.000 A 
ATOM     23  C   UNL     1      -4.038   5.678 -55.007  0.00  0.00    +0.000 A 
ATOM     24  C   UNL     1      -4.742   3.501 -55.786  0.00  0.00    +0.000 A 
ATOM     25  C   UNL     1      -3.618   6.003 -56.303  0.00  0.00    +0.000 A 
ATOM     26  C   UNL     1      -4.325   3.822 -57.076  0.00  0.00    +0.000 A 
ATOM     27  C   UNL     1      -3.760   5.071 -57.339  0.00  0.00    +0.000 A 
ENDBRANCH  19  22
ENDBRANCH  18  19
ENDBRANCH  16  18
ENDBRANCH   4  17
TORSDOF 5
ENDMDL
MODEL 4
REMARK VINA RESULT:      -4.9     23.202     25.225
REMARK  Name = 3751173
REMARK  5 active torsions:
REMARK  status: ('A' for Active; 'I' for Inactive)
REMARK    1  A    between atoms: O_5  and  N_8
REMARK    2  A    between atoms: O_5  and  C_21
REMARK    3  A    between atoms: C_9  and  C_14
REMARK    4  A    between atoms: C_10  and  C_12
REMARK    5  A    between atoms: C_20  and  C_21
REMARK                            x       y       z     vdW  Elec       q    Type
REMARK                         _______ _______ _______ _____ _____    ______ ____
ROOT
ATOM      1  S   UNL     1     -16.723   9.771 -33.374  0.00  0.00    +0.000 S 
ATOM      2  N   UNL     1     -14.990   7.859 -33.364  0.00  0.00    +0.000 N 
ATOM      3  N   UNL     1     -14.050   9.722 -32.554  0.00  0.00    +0.000 NA
ATOM      4  C   UNL     1     -13.702   7.488 -33.039  0.00  0.00    +0.000 A 
ATOM      5  C   UNL     1     -13.139   8.681 -32.560  0.00  0.00    +0.000 A 
ATOM      6  C   UNL     1     -15.120   9.183 -33.056  0.00  0.00    +0.000 A 
ATOM      7  C   UNL     1     -16.150   7.275 -33.839  0.00  0.00    +0.000 A 
ATOM      8  C   UNL     1     -17.164   8.152 -33.924  0.00  0.00    +0.000 A 
ENDROOT
BRANCH   5  10
ATOM      9 CL   UNL     1      -7.509   9.390 -30.670  0.00  0.00    +0.000 Cl
ATOM     10  C   UNL     1     -11.781   8.888 -32.076  0.00  0.00    +0.000 A 
ATOM     11  C   UNL     1     -10.716   8.853 -32.988  0.00  0.00    +0.000 A 
ATOM     12  C   UNL     1     -11.495   9.062 -30.713  0.00  0.00    +0.000 A 
ATOM     13  C   UNL     1      -9.396   9.009 -32.559  0.00  0.00    +0.000 A 
ATOM     14  C   UNL     1     -10.175   9.227 -30.282  0.00  0.00    +0.000 A 
ATOM     15  C   UNL     1      -9.133   9.200 -31.207  0.00  0.00    +0.000 A 
ENDBRANCH   5  10
BRANCH   4  17
ATOM     16  N   UNL     1     -12.568   5.523 -34.041  0.00  0.00    +0.000 NA
ATOM     17  C   UNL     1     -13.121   6.172 -33.058  0.00  0.00    +0.000 C 
BRANCH  16  18
ATOM     18  O   UNL     1     -12.442   6.295 -35.198  0.00  0.00    +0.000 OA
BRANCH  18  19
ATOM     19  C   UNL     1     -12.002   5.465 -36.277  0.00  0.00    +0.000 C 
BRANCH  19  22
ATOM     20 CL   UNL     1      -7.412   3.331 -37.532  0.00  0.00    +0.000 Cl
ATOM     21 CL   UNL     1      -5.999   6.091 -36.546  0.00  0.00    +0.000 Cl
ATOM     22  C   UNL     1     -10.499   5.573 -36.335  0.00  0.00    +0.000 A 
ATOM     23  C   UNL     1      -9.709   4.524 -36.827  0.00  0.00    +0.000 A 
ATOM     24  C   UNL     1      -9.875   6.751 -35.904  0.00  0.00    +0.000 A 
ATOM     25  C   UNL     1      -8.317   4.661 -36.899  0.00  0.00    +0.000 A 
ATOM     26  C   UNL     1      -8.491   6.890 -35.975  0.00  0.00    +0.000 A 
ATOM     27  C   UNL     1      -7.707   5.848 -36.475  0.00  0.00    +0.000 A 
ENDBRANCH  19  22
ENDBRANCH  18  19
ENDBRANCH  16  18
ENDBRANCH   4  17
TORSDOF 5
ENDMDL
MODEL 5
REMARK VINA RESULT:      -4.8     31.369     33.702
REMARK  Name = 3751173
REMARK  5 active torsions:
REMARK  status: ('A' for Active; 'I' for Inactive)
REMARK    1  A    between atoms: O_5  and  N_8
REMARK    2  A    between atoms: O_5  and  C_21
REMARK    3  A    between atoms: C_9  and  C_14
REMARK    4  A    between atoms: C_10  and  C_12
REMARK    5  A    between atoms: C_20  and  C_21
REMARK                            x       y       z     vdW  Elec       q    Type
REMARK                         _______ _______ _______ _____ _____    ______ ____
ROOT
ATOM      1  S   UNL     1      -2.449  15.588 -35.069  0.00  0.00    +0.000 S 
ATOM      2  N   UNL     1      -2.342  15.196 -32.522  0.00  0.00    +0.000 N 
ATOM      3  N   UNL     1      -0.305  14.916 -33.406  0.00  0.00    +0.000 NA
ATOM      4  C   UNL     1      -1.530  14.901 -31.445  0.00  0.00    +0.000 A 
ATOM      5  C   UNL     1      -0.273  14.709 -32.039  0.00  0.00    +0.000 A 
ATOM      6  C   UNL     1      -1.555  15.182 -33.638  0.00  0.00    +0.000 A 
ATOM      7  C   UNL     1      -3.658  15.540 -32.765  0.00  0.00    +0.000 A 
ATOM      8  C   UNL     1      -3.892  15.767 -34.068  0.00  0.00    +0.000 A 
ENDROOT
BRANCH   5  10
ATOM      9 CL   UNL     1       4.949  13.345 -29.461  0.00  0.00    +0.000 Cl
ATOM     10  C   UNL     1       0.977  14.365 -31.374  0.00  0.00    +0.000 A 
ATOM     11  C   UNL     1       2.070  15.238 -31.480  0.00  0.00    +0.000 A 
ATOM     12  C   UNL     1       1.144  13.158 -30.680  0.00  0.00    +0.000 A 
ATOM     13  C   UNL     1       3.297  14.928 -30.890  0.00  0.00    +0.000 A 
ATOM     14  C   UNL     1       2.369  12.849 -30.082  0.00  0.00    +0.000 A 
ATOM     15  C   UNL     1       3.439  13.735 -30.189  0.00  0.00    +0.000 A 
ENDBRANCH   5  10
BRANCH   4  17
ATOM     16  N   UNL     1      -2.507  14.041 -29.334  0.00  0.00    +0.000 NA
ATOM     17  C   UNL     1      -1.863  14.920 -30.046  0.00  0.00    +0.000 C 
BRANCH  16  18
ATOM     18  O   UNL     1      -2.801  12.877 -30.045  0.00  0.00    +0.000 OA
BRANCH  18  19
ATOM     19  C   UNL     1      -2.110  11.772 -29.455  0.00  0.00    +0.000 C 
BRANCH  19  22
ATOM     20 CL   UNL     1      -6.637   9.254 -30.054  0.00  0.00    +0.000 Cl
ATOM     21 CL   UNL     1      -6.157   7.946 -27.114  0.00  0.00    +0.000 Cl
ATOM     22  C   UNL     1      -3.156  10.842 -28.894  0.00  0.00    +0.000 A 
ATOM     23  C   UNL     1      -4.308  10.513 -29.622  0.00  0.00    +0.000 A 
ATOM     24  C   UNL     1      -2.968  10.280 -27.624  0.00  0.00    +0.000 A 
ATOM     25  C   UNL     1      -5.250   9.623 -29.091  0.00  0.00    +0.000 A 
ATOM     26  C   UNL     1      -3.903   9.393 -27.094  0.00  0.00    +0.000 A 
ATOM     27  C   UNL     1      -5.045   9.060 -27.825  0.00  0.00    +0.000 A 
ENDBRANCH  19  22
ENDBRANCH  18  19
ENDBRANCH  16  18
ENDBRANCH   4  17
TORSDOF 5
ENDMDL
MODEL 6
REMARK VINA RESULT:      -4.8      3.098      4.192
REMARK  Name = 3751173
REMARK  5 active torsions:
REMARK  status: ('A' for Active; 'I' for Inactive)
REMARK    1  A    between atoms: O_5  and  N_8
REMARK    2  A    between atoms: O_5  and  C_21
REMARK    3  A    between atoms: C_9  and  C_14
REMARK    4  A    between atoms: C_10  and  C_12
REMARK    5  A    between atoms: C_20  and  C_21
REMARK                            x       y       z     vdW  Elec       q    Type
REMARK                         _______ _______ _______ _____ _____    ______ ____
ROOT
ATOM      1  S   UNL     1     -24.500   7.680 -58.248  0.00  0.00    +0.000 S 
ATOM      2  N   UNL     1     -22.044   8.465 -58.339  0.00  0.00    +0.000 N 
ATOM      3  N   UNL     1     -23.237   9.891 -57.093  0.00  0.00    +0.000 NA
ATOM      4  C   UNL     1     -21.130   9.406 -57.912  0.00  0.00    +0.000 A 
ATOM      5  C   UNL     1     -21.915  10.292 -57.159  0.00  0.00    +0.000 A 
ATOM      6  C   UNL     1     -23.259   8.817 -57.823  0.00  0.00    +0.000 A 
ATOM      7  C   UNL     1     -22.060   7.287 -59.063  0.00  0.00    +0.000 A 
ATOM      8  C   UNL     1     -23.287   6.746 -59.128  0.00  0.00    +0.000 A 
ENDROOT
BRANCH   5  10
ATOM      9 CL   UNL     1     -20.276  15.298 -54.325  0.00  0.00    +0.000 Cl
ATOM     10  C   UNL     1     -21.475  11.495 -56.465  0.00  0.00    +0.000 A 
ATOM     11  C   UNL     1     -22.276  12.027 -55.443  0.00  0.00    +0.000 A 
ATOM     12  C   UNL     1     -20.304  12.177 -56.826  0.00  0.00    +0.000 A 
ATOM     13  C   UNL     1     -21.909  13.199 -54.779  0.00  0.00    +0.000 A 
ATOM     14  C   UNL     1     -19.930  13.346 -56.157  0.00  0.00    +0.000 A 
ATOM     15  C   UNL     1     -20.734  13.852 -55.137  0.00  0.00    +0.000 A 
ENDBRANCH   5  10
BRANCH   4  17
ATOM     16  N   UNL     1     -18.766   9.045 -57.253  0.00  0.00    +0.000 NA
ATOM     17  C   UNL     1     -19.702   9.404 -58.084  0.00  0.00    +0.000 C 
BRANCH  16  18
ATOM     18  O   UNL     1     -19.270   8.481 -56.080  0.00  0.00    +0.000 OA
BRANCH  18  19
ATOM     19  C   UNL     1     -19.111   7.060 -56.128  0.00  0.00    +0.000 C 
BRANCH  19  22
ATOM     20 CL   UNL     1     -22.420   3.074 -56.721  0.00  0.00    +0.000 Cl
ATOM     21 CL   UNL     1     -24.529   4.709 -54.860  0.00  0.00    +0.000 Cl
ATOM     22  C   UNL     1     -20.463   6.452 -55.856  0.00  0.00    +0.000 A 
ATOM     23  C   UNL     1     -20.814   5.193 -56.364  0.00  0.00    +0.000 A 
ATOM     24  C   UNL     1     -21.386   7.149 -55.065  0.00  0.00    +0.000 A 
ATOM     25  C   UNL     1     -22.065   4.636 -56.071  0.00  0.00    +0.000 A 
ATOM     26  C   UNL     1     -22.631   6.597 -54.772  0.00  0.00    +0.000 A 
ATOM     27  C   UNL     1     -22.974   5.339 -55.271  0.00  0.00    +0.000 A 
ENDBRANCH  19  22
ENDBRANCH  18  19
ENDBRANCH  16  18
ENDBRANCH   4  17
TORSDOF 5
ENDMDL
MODEL 7
REMARK VINA RESULT:      -4.8      3.974      6.463
REMARK  Name = 3751173
REMARK  5 active torsions:
REMARK  status: ('A' for Active; 'I' for Inactive)
REMARK    1  A    between atoms: O_5  and  N_8
REMARK    2  A    between atoms: O_5  and  C_21
REMARK    3  A    between atoms: C_9  and  C_14
REMARK    4  A    between atoms: C_10  and  C_12
REMARK    5  A    between atoms: C_20  and  C_21
REMARK                            x       y       z     vdW  Elec       q    Type
REMARK                         _______ _______ _______ _____ _____    ______ ____
ROOT
ATOM      1  S   UNL     1     -24.741   1.945 -60.861  0.00  0.00    +0.000 S 
ATOM      2  N   UNL     1     -24.339   2.344 -58.344  0.00  0.00    +0.000 N 
ATOM      3  N   UNL     1     -22.944   3.628 -59.534  0.00  0.00    +0.000 NA
ATOM      4  C   UNL     1     -23.623   3.052 -57.400  0.00  0.00    +0.000 A 
ATOM      5  C   UNL     1     -22.746   3.823 -58.179  0.00  0.00    +0.000 A 
ATOM      6  C   UNL     1     -23.883   2.731 -59.572  0.00  0.00    +0.000 A 
ATOM      7  C   UNL     1     -25.380   1.437 -58.390  0.00  0.00    +0.000 A 
ATOM      8  C   UNL     1     -25.710   1.104 -59.649  0.00  0.00    +0.000 A 
ENDROOT
BRANCH   5  10
ATOM      9 CL   UNL     1     -18.547   7.701 -56.419  0.00  0.00    +0.000 Cl
ATOM     10  C   UNL     1     -21.741   4.767 -57.710  0.00  0.00    +0.000 A 
ATOM     11  C   UNL     1     -21.441   5.891 -58.493  0.00  0.00    +0.000 A 
ATOM     12  C   UNL     1     -21.017   4.557 -56.527  0.00  0.00    +0.000 A 
ATOM     13  C   UNL     1     -20.457   6.800 -58.097  0.00  0.00    +0.000 A 
ATOM     14  C   UNL     1     -20.038   5.470 -56.125  0.00  0.00    +0.000 A 
ATOM     15  C   UNL     1     -19.762   6.587 -56.912  0.00  0.00    +0.000 A 
ENDBRANCH   5  10
BRANCH   4  17
ATOM     16  N   UNL     1     -24.370   4.010 -55.238  0.00  0.00    +0.000 NA
ATOM     17  C   UNL     1     -23.820   3.090 -55.976  0.00  0.00    +0.000 C 
BRANCH  16  18
ATOM     18  O   UNL     1     -24.938   5.040 -55.991  0.00  0.00    +0.000 OA
BRANCH  18  19
ATOM     19  C   UNL     1     -25.146   6.181 -55.152  0.00  0.00    +0.000 C 
BRANCH  19  22
ATOM     20 CL   UNL     1     -23.497   9.749 -58.580  0.00  0.00    +0.000 Cl
ATOM     21 CL   UNL     1     -21.029  10.375 -56.554  0.00  0.00    +0.000 Cl
ATOM     22  C   UNL     1     -24.125   7.217 -55.550  0.00  0.00    +0.000 A 
ATOM     23  C   UNL     1     -24.233   7.926 -56.753  0.00  0.00    +0.000 A 
ATOM     24  C   UNL     1     -23.050   7.489 -54.693  0.00  0.00    +0.000 A 
ATOM     25  C   UNL     1     -23.288   8.905 -57.086  0.00  0.00    +0.000 A 
ATOM     26  C   UNL     1     -22.108   8.462 -55.020  0.00  0.00    +0.000 A 
ATOM     27  C   UNL     1     -22.225   9.175 -56.215  0.00  0.00    +0.000 A 
ENDBRANCH  19  22
ENDBRANCH  18  19
ENDBRANCH  16  18
ENDBRANCH   4  17
TORSDOF 5
ENDMDL
MODEL 8
REMARK VINA RESULT:      -4.8     23.438     26.001
REMARK  Name = 3751173
REMARK  5 active torsions:
REMARK  status: ('A' for Active; 'I' for Inactive)
REMARK    1  A    between atoms: O_5  and  N_8
REMARK    2  A    between atoms: O_5  and  C_21
REMARK    3  A    between atoms: C_9  and  C_14
REMARK    4  A    between atoms: C_10  and  C_12
REMARK    5  A    between atoms: C_20  and  C_21
REMARK                            x       y       z     vdW  Elec       q    Type
REMARK                         _______ _______ _______ _____ _____    ______ ____
ROOT
ATOM      1  S   UNL     1     -12.097   3.720 -31.798  0.00  0.00    +0.000 S 
ATOM      2  N   UNL     1     -12.207   5.287 -33.844  0.00  0.00    +0.000 N 
ATOM      3  N   UNL     1     -10.147   4.428 -33.674  0.00  0.00    +0.000 NA
ATOM      4  C   UNL     1     -11.518   5.813 -34.918  0.00  0.00    +0.000 A 
ATOM      5  C   UNL     1     -10.231   5.275 -34.764  0.00  0.00    +0.000 A 
ATOM      6  C   UNL     1     -11.338   4.488 -33.158  0.00  0.00    +0.000 A 
ATOM      7  C   UNL     1     -13.489   5.300 -33.328  0.00  0.00    +0.000 A 
ATOM      8  C   UNL     1     -13.603   4.534 -32.231  0.00  0.00    +0.000 A 
ENDROOT
BRANCH   5  10
ATOM      9 CL   UNL     1      -5.402   6.016 -38.215  0.00  0.00    +0.000 Cl
ATOM     10  C   UNL     1      -9.071   5.495 -35.617  0.00  0.00    +0.000 A 
ATOM     11  C   UNL     1      -8.629   4.457 -36.452  0.00  0.00    +0.000 A 
ATOM     12  C   UNL     1      -8.340   6.692 -35.586  0.00  0.00    +0.000 A 
ATOM     13  C   UNL     1      -7.499   4.615 -37.257  0.00  0.00    +0.000 A 
ATOM     14  C   UNL     1      -7.213   6.854 -36.397  0.00  0.00    +0.000 A 
ATOM     15  C   UNL     1      -6.798   5.815 -37.228  0.00  0.00    +0.000 A 
ENDBRANCH   5  10
BRANCH   4  17
ATOM     16  N   UNL     1     -11.883   7.880 -36.240  0.00  0.00    +0.000 NA
ATOM     17  C   UNL     1     -12.029   6.609 -36.003  0.00  0.00    +0.000 C 
BRANCH  16  18
ATOM     18  O   UNL     1     -11.006   8.501 -35.349  0.00  0.00    +0.000 OA
BRANCH  18  19
ATOM     19  C   UNL     1     -11.749   9.335 -34.455  0.00  0.00    +0.000 C 
BRANCH  19  22
ATOM     20 CL   UNL     1      -8.200  10.553 -30.834  0.00  0.00    +0.000 Cl
ATOM     21 CL   UNL     1      -7.846  13.424 -32.324  0.00  0.00    +0.000 Cl
ATOM     22  C   UNL     1     -10.784  10.339 -33.878  0.00  0.00    +0.000 A 
ATOM     23  C   UNL     1     -10.024  10.050 -32.736  0.00  0.00    +0.000 A 
ATOM     24  C   UNL     1     -10.629  11.584 -34.502  0.00  0.00    +0.000 A 
ATOM     25  C   UNL     1      -9.112  10.988 -32.237  0.00  0.00    +0.000 A 
ATOM     26  C   UNL     1      -9.722  12.519 -34.008  0.00  0.00    +0.000 A 
ATOM     27  C   UNL     1      -8.959  12.224 -32.876  0.00  0.00    +0.000 A 
ENDBRANCH  19  22
ENDBRANCH  18  19
ENDBRANCH  16  18
ENDBRANCH   4  17
TORSDOF 5
ENDMDL
MODEL 9
REMARK VINA RESULT:      -4.7     16.995     18.495
REMARK  Name = 3751173
REMARK  5 active torsions:
REMARK  status: ('A' for Active; 'I' for Inactive)
REMARK    1  A    between atoms: O_5  and  N_8
REMARK    2  A    between atoms: O_5  and  C_21
REMARK    3  A    between atoms: C_9  and  C_14
REMARK    4  A    between atoms: C_10  and  C_12
REMARK    5  A    between atoms: C_20  and  C_21
REMARK                            x       y       z     vdW  Elec       q    Type
REMARK                         _______ _______ _______ _____ _____    ______ ____
ROOT
ATOM      1  S   UNL     1       1.081   6.543 -59.957  0.00  0.00    +0.000 S 
ATOM      2  N   UNL     1      -1.473   6.893 -60.044  0.00  0.00    +0.000 N 
ATOM      3  N   UNL     1      -0.935   5.790 -58.173  0.00  0.00    +0.000 NA
ATOM      4  C   UNL     1      -2.675   6.701 -59.393  0.00  0.00    +0.000 A 
ATOM      5  C   UNL     1      -2.302   5.988 -58.243  0.00  0.00    +0.000 A 
ATOM      6  C   UNL     1      -0.499   6.328 -59.271  0.00  0.00    +0.000 A 
ATOM      7  C   UNL     1      -0.998   7.519 -61.181  0.00  0.00    +0.000 A 
ATOM      8  C   UNL     1       0.336   7.416 -61.299  0.00  0.00    +0.000 A 
ENDROOT
BRANCH   5  10
ATOM      9 CL   UNL     1      -5.746   4.041 -53.757  0.00  0.00    +0.000 Cl
ATOM     10  C   UNL     1      -3.172   5.504 -57.180  0.00  0.00    +0.000 A 
ATOM     11  C   UNL     1      -3.305   6.261 -56.007  0.00  0.00    +0.000 A 
ATOM     12  C   UNL     1      -3.837   4.271 -57.265  0.00  0.00    +0.000 A 
ATOM     13  C   UNL     1      -4.100   5.814 -54.949  0.00  0.00    +0.000 A 
ATOM     14  C   UNL     1      -4.640   3.826 -56.210  0.00  0.00    +0.000 A 
ATOM     15  C   UNL     1      -4.767   4.599 -55.058  0.00  0.00    +0.000 A 
ENDBRANCH   5  10
BRANCH   4  17
ATOM     16  N   UNL     1      -4.795   6.841 -60.673  0.00  0.00    +0.000 NA
ATOM     17  C   UNL     1      -3.971   7.221 -59.740  0.00  0.00    +0.000 C 
BRANCH  16  18
ATOM     18  O   UNL     1      -4.370   5.688 -61.336  0.00  0.00    +0.000 OA
BRANCH  18  19
ATOM     19  C   UNL     1      -5.409   5.230 -62.206  0.00  0.00    +0.000 C 
BRANCH  19  22
ATOM     20 CL   UNL     1      -8.415   1.006 -62.769  0.00  0.00    +0.000 Cl
ATOM     21 CL   UNL     1      -7.064  -0.166 -60.051  0.00  0.00    +0.000 Cl
ATOM     22  C   UNL     1      -5.867   3.891 -61.686  0.00  0.00    +0.000 A 
ATOM     23  C   UNL     1      -6.837   3.138 -62.361  0.00  0.00    +0.000 A 
ATOM     24  C   UNL     1      -5.303   3.379 -60.510  0.00  0.00    +0.000 A 
ATOM     25  C   UNL     1      -7.224   1.883 -61.873  0.00  0.00    +0.000 A 
ATOM     26  C   UNL     1      -5.685   2.131 -60.023  0.00  0.00    +0.000 A 
ATOM     27  C   UNL     1      -6.644   1.378 -60.703  0.00  0.00    +0.000 A 
ENDBRANCH  19  22
ENDBRANCH  18  19
ENDBRANCH  16  18
ENDBRANCH   4  17
TORSDOF 5
ENDMDL
MODEL 10
REMARK VINA RESULT:      -4.7     10.599     12.660
REMARK  Name = 3751173
REMARK  5 active torsions:
REMARK  status: ('A' for Active; 'I' for Inactive)
REMARK    1  A    between atoms: O_5  and  N_8
REMARK    2  A    between atoms: O_5  and  C_21
REMARK    3  A    between atoms: C_9  and  C_14
REMARK    4  A    between atoms: C_10  and  C_12
REMARK    5  A    between atoms: C_20  and  C_21
REMARK                            x       y       z     vdW  Elec       q    Type
REMARK                         _______ _______ _______ _____ _____    ______ ____
ROOT
ATOM      1  S   UNL     1      -9.910  12.221 -63.531  0.00  0.00    +0.000 S 
ATOM      2  N   UNL     1     -11.929  11.389 -62.158  0.00  0.00    +0.000 N 
ATOM      3  N   UNL     1     -10.333  12.118 -60.769  0.00  0.00    +0.000 NA
ATOM      4  C   UNL     1     -12.460  11.222 -60.896  0.00  0.00    +0.000 A 
ATOM      5  C   UNL     1     -11.427  11.664 -60.055  0.00  0.00    +0.000 A 
ATOM      6  C   UNL     1     -10.678  11.914 -62.004  0.00  0.00    +0.000 A 
ATOM      7  C   UNL     1     -12.316  11.232 -63.476  0.00  0.00    +0.000 A 
ATOM      8  C   UNL     1     -11.357  11.611 -64.336  0.00  0.00    +0.000 A 
ENDROOT
BRANCH   5  10
ATOM      9 CL   UNL     1     -11.604  11.897 -54.081  0.00  0.00    +0.000 Cl
ATOM     10  C   UNL     1     -11.428  11.709 -58.599  0.00  0.00    +0.000 A 
ATOM     11  C   UNL     1     -12.487  11.115 -57.897  0.00  0.00    +0.000 A 
ATOM     12  C   UNL     1     -10.432  12.382 -57.875  0.00  0.00    +0.000 A 
ATOM     13  C   UNL     1     -12.544  11.169 -56.502  0.00  0.00    +0.000 A 
ATOM     14  C   UNL     1     -10.484  12.430 -56.478  0.00  0.00    +0.000 A 
ATOM     15  C   UNL     1     -11.539  11.824 -55.799  0.00  0.00    +0.000 A 
ENDBRANCH   5  10
BRANCH   4  17
ATOM     16  N   UNL     1     -14.872  11.540 -60.411  0.00  0.00    +0.000 NA
ATOM     17  C   UNL     1     -13.795  10.821 -60.535  0.00  0.00    +0.000 C 
BRANCH  16  18
ATOM     18  O   UNL     1     -14.686  12.868 -60.802  0.00  0.00    +0.000 OA
BRANCH  18  19
ATOM     19  C   UNL     1     -15.191  13.737 -59.784  0.00  0.00    +0.000 C 
BRANCH  19  22
ATOM     20 CL   UNL     1     -12.728  15.301 -55.462  0.00  0.00    +0.000 Cl
ATOM     21 CL   UNL     1     -10.316  16.365 -57.369  0.00  0.00    +0.000 Cl
ATOM     22  C   UNL     1     -14.003  14.411 -59.145  0.00  0.00    +0.000 A 
ATOM     23  C   UNL     1     -13.908  14.562 -57.755  0.00  0.00    +0.000 A 
ATOM     24  C   UNL     1     -12.961  14.884 -59.955  0.00  0.00    +0.000 A 
ATOM     25  C   UNL     1     -12.779  15.164 -57.184  0.00  0.00    +0.000 A 
ATOM     26  C   UNL     1     -11.838  15.483 -59.390  0.00  0.00    +0.000 A 
ATOM     27  C   UNL     1     -11.741  15.623 -58.004  0.00  0.00    +0.000 A 
ENDBRANCH  19  22
ENDBRANCH  18  19
ENDBRANCH  16  18
ENDBRANCH   4  17
TORSDOF 5
ENDMDL
