REMARK  Name = 3751173
REMARK  5 active torsions:
REMARK  status: ('A' for Active; 'I' for Inactive)
REMARK    1  A    between atoms: O_5  and  N_8
REMARK    2  A    between atoms: O_5  and  C_21
REMARK    3  A    between atoms: C_9  and  C_14
REMARK    4  A    between atoms: C_10  and  C_12
REMARK    5  A    between atoms: C_20  and  C_21
REMARK                            x       y       z     vdW  Elec       q    Type
REMARK                         _______ _______ _______ _____ _____    ______ ____
ROOT
ATOM      1  S   UNL     1       7.317   0.792   1.615  0.00  0.00    +0.000 S 
ATOM      2  N   UNL     1       6.058  -0.269  -0.371  0.00  0.00    +0.000 N 
ATOM      3  N   UNL     1       4.580   0.535   1.105  0.00  0.00    +0.000 NA
ATOM      4  C   UNL     1       4.825  -0.535  -0.930  0.00  0.00    +0.000 A 
ATOM      5  C   UNL     1       3.928  -0.042   0.030  0.00  0.00    +0.000 A 
ATOM      6  C   UNL     1       5.835   0.355   0.823  0.00  0.00    +0.000 A 
ATOM      7  C   UNL     1       7.395  -0.402  -0.696  0.00  0.00    +0.000 A 
ATOM      8  C   UNL     1       8.202   0.094   0.256  0.00  0.00    +0.000 A 
ENDROOT
BRANCH   5  10
ATOM      9 CL   UNL     1      -2.053  -0.058  -0.027  0.00  0.00    +0.000 Cl
ATOM     10  C   UNL     1       2.473  -0.059  -0.026  0.00  0.00    +0.000 A 
ATOM     11  C   UNL     1       1.755   1.019   0.513  0.00  0.00    +0.000 A 
ATOM     12  C   UNL     1       1.760  -1.149  -0.548  0.00  0.00    +0.000 A 
ATOM     13  C   UNL     1       0.358   1.024   0.513  0.00  0.00    +0.000 A 
ATOM     14  C   UNL     1       0.362  -1.142  -0.556  0.00  0.00    +0.000 A 
ATOM     15  C   UNL     1      -0.332  -0.056  -0.026  0.00  0.00    +0.000 A 
ENDBRANCH   5  10
BRANCH   4  17
ATOM     16  N   UNL     1       5.151  -1.986  -2.915  0.00  0.00    +0.000 NA
ATOM     17  C   UNL     1       4.533  -1.064  -2.236  0.00  0.00    +0.000 C 
BRANCH  16  18
ATOM     18  O   UNL     1       6.172  -2.602  -2.189  0.00  0.00    +0.000 OA
BRANCH  18  19
ATOM     19  C   UNL     1       6.844  -3.549  -3.025  0.00  0.00    +0.000 C 
BRANCH  19  22
ATOM     20 CL   UNL     1      11.338  -5.642  -1.408  0.00  0.00    +0.000 Cl
ATOM     21 CL   UNL     1       9.618  -7.357   0.757  0.00  0.00    +0.000 Cl
ATOM     22  C   UNL     1       7.570  -4.508  -2.116  0.00  0.00    +0.000 A 
ATOM     23  C   UNL     1       8.963  -4.653  -2.169  0.00  0.00    +0.000 A 
ATOM     24  C   UNL     1       6.841  -5.262  -1.186  0.00  0.00    +0.000 A 
ATOM     25  C   UNL     1       9.617  -5.529  -1.293  0.00  0.00    +0.000 A 
ATOM     26  C   UNL     1       7.489  -6.133  -0.313  0.00  0.00    +0.000 A 
ATOM     27  C   UNL     1       8.878  -6.268  -0.361  0.00  0.00    +0.000 A 
ENDBRANCH  19  22
ENDBRANCH  18  19
ENDBRANCH  16  18
ENDBRANCH   4  17
TORSDOF 5
