MODEL 1
REMARK VINA RESULT:      -5.3      0.000      0.000
REMARK  Name = 3770353
REMARK  4 active torsions:
REMARK  status: ('A' for Active; 'I' for Inactive)
REMARK    1  A    between atoms: O_5  and  N_8
REMARK    2  A    between atoms: O_5  and  C_14
REMARK    3  A    between atoms: C_9  and  C_16
REMARK    4  A    between atoms: C_13  and  C_14
REMARK                            x       y       z     vdW  Elec       q    Type
REMARK                         _______ _______ _______ _____ _____    ______ ____
ROOT
ATOM      1  N   UNL     1     -16.482   0.384  29.057  0.00  0.00    +0.000 NA
ATOM      2  C   UNL     1     -17.317   1.047  28.315  0.00  0.00    +0.000 C 
ENDROOT
BRANCH   2   7
ATOM      3 CL   UNL     1     -17.810   3.804  29.994  0.00  0.00    +0.000 Cl
ATOM      4  S   UNL     1     -16.393   4.698  24.843  0.00  0.00    +0.000 S 
ATOM      5  N   UNL     1     -16.848   2.715  26.432  0.00  0.00    +0.000 N 
ATOM      6  N   UNL     1     -17.145   4.646  27.533  0.00  0.00    +0.000 NA
ATOM      7  C   UNL     1     -17.206   2.344  27.709  0.00  0.00    +0.000 A 
ATOM      8  C   UNL     1     -16.848   4.082  26.402  0.00  0.00    +0.000 A 
ATOM      9  C   UNL     1     -16.466   2.127  25.242  0.00  0.00    +0.000 A 
ATOM     10  C   UNL     1     -17.372   3.570  28.361  0.00  0.00    +0.000 A 
ATOM     11  C   UNL     1     -16.203   3.035  24.286  0.00  0.00    +0.000 A 
ENDBRANCH   2   7
BRANCH   1  12
ATOM     12  O   UNL     1     -15.244   1.012  29.211  0.00  0.00    +0.000 OA
BRANCH  12  13
ATOM     13  C   UNL     1     -14.589   0.489  30.373  0.00  0.00    +0.000 C 
BRANCH  13  16
ATOM     14 CL   UNL     1     -14.663   5.492  31.792  0.00  0.00    +0.000 Cl
ATOM     15 CL   UNL     1     -14.643   4.513  34.894  0.00  0.00    +0.000 Cl
ATOM     16  C   UNL     1     -14.625   1.503  31.492  0.00  0.00    +0.000 A 
ATOM     17  C   UNL     1     -14.637   2.876  31.205  0.00  0.00    +0.000 A 
ATOM     18  C   UNL     1     -14.618   1.092  32.833  0.00  0.00    +0.000 A 
ATOM     19  C   UNL     1     -14.646   3.824  32.237  0.00  0.00    +0.000 A 
ATOM     20  C   UNL     1     -14.629   2.037  33.864  0.00  0.00    +0.000 A 
ATOM     21  C   UNL     1     -14.640   3.401  33.569  0.00  0.00    +0.000 A 
ENDBRANCH  13  16
ENDBRANCH  12  13
ENDBRANCH   1  12
TORSDOF 4
ENDMDL
MODEL 2
REMARK VINA RESULT:      -5.3     23.441     24.724
REMARK  Name = 3770353
REMARK  4 active torsions:
REMARK  status: ('A' for Active; 'I' for Inactive)
REMARK    1  A    between atoms: O_5  and  N_8
REMARK    2  A    between atoms: O_5  and  C_14
REMARK    3  A    between atoms: C_9  and  C_16
REMARK    4  A    between atoms: C_13  and  C_14
REMARK                            x       y       z     vdW  Elec       q    Type
REMARK                         _______ _______ _______ _____ _____    ______ ____
ROOT
ATOM      1  N   UNL     1       4.423  16.498  23.570  0.00  0.00    +0.000 NA
ATOM      2  C   UNL     1       5.121  16.811  22.520  0.00  0.00    +0.000 C 
ENDROOT
BRANCH   2   7
ATOM      3 CL   UNL     1       7.660  14.932  21.694  0.00  0.00    +0.000 Cl
ATOM      4  S   UNL     1       3.889  15.205  17.814  0.00  0.00    +0.000 S 
ATOM      5  N   UNL     1       4.342  16.149  20.175  0.00  0.00    +0.000 N 
ATOM      6  N   UNL     1       6.042  14.824  19.554  0.00  0.00    +0.000 NA
ATOM      7  C   UNL     1       5.217  16.174  21.236  0.00  0.00    +0.000 A 
ATOM      8  C   UNL     1       4.901  15.347  19.219  0.00  0.00    +0.000 A 
ATOM      9  C   UNL     1       3.098  16.644  19.834  0.00  0.00    +0.000 A 
ATOM     10  C   UNL     1       6.252  15.334  20.815  0.00  0.00    +0.000 A 
ATOM     11  C   UNL     1       2.712  16.254  18.607  0.00  0.00    +0.000 A 
ENDBRANCH   2   7
BRANCH   1  12
ATOM     12  O   UNL     1       3.567  15.411  23.375  0.00  0.00    +0.000 OA
BRANCH  12  13
ATOM     13  C   UNL     1       2.274  15.725  23.908  0.00  0.00    +0.000 C 
BRANCH  13  16
ATOM     14 CL   UNL     1      -1.474  18.234  21.316  0.00  0.00    +0.000 Cl
ATOM     15 CL   UNL     1      -1.923  15.539  19.551  0.00  0.00    +0.000 Cl
ATOM     16  C   UNL     1       1.238  15.700  22.808  0.00  0.00    +0.000 A 
ATOM     17  C   UNL     1       0.441  16.825  22.558  0.00  0.00    +0.000 A 
ATOM     18  C   UNL     1       1.036  14.544  22.040  0.00  0.00    +0.000 A 
ATOM     19  C   UNL     1      -0.539  16.801  21.557  0.00  0.00    +0.000 A 
ATOM     20  C   UNL     1       0.060  14.518  21.039  0.00  0.00    +0.000 A 
ATOM     21  C   UNL     1      -0.729  15.644  20.798  0.00  0.00    +0.000 A 
ENDBRANCH  13  16
ENDBRANCH  12  13
ENDBRANCH   1  12
TORSDOF 4
ENDMDL
MODEL 3
REMARK VINA RESULT:      -5.2     27.409     28.543
REMARK  Name = 3770353
REMARK  4 active torsions:
REMARK  status: ('A' for Active; 'I' for Inactive)
REMARK    1  A    between atoms: O_5  and  N_8
REMARK    2  A    between atoms: O_5  and  C_14
REMARK    3  A    between atoms: C_9  and  C_16
REMARK    4  A    between atoms: C_13  and  C_14
REMARK                            x       y       z     vdW  Elec       q    Type
REMARK                         _______ _______ _______ _____ _____    ______ ____
ROOT
ATOM      1  N   UNL     1      10.555  15.362  22.523  0.00  0.00    +0.000 NA
ATOM      2  C   UNL     1      11.423  14.468  22.890  0.00  0.00    +0.000 C 
ENDROOT
BRANCH   2   7
ATOM      3 CL   UNL     1      10.483  13.717  25.926  0.00  0.00    +0.000 Cl
ATOM      4  S   UNL     1      11.094   9.358  22.769  0.00  0.00    +0.000 S 
ATOM      5  N   UNL     1      11.352  11.924  22.635  0.00  0.00    +0.000 N 
ATOM      6  N   UNL     1      10.681  11.340  24.694  0.00  0.00    +0.000 NA
ATOM      7  C   UNL     1      11.243  13.111  23.323  0.00  0.00    +0.000 A 
ATOM      8  C   UNL     1      11.019  10.927  23.510  0.00  0.00    +0.000 A 
ATOM      9  C   UNL     1      11.644  11.477  21.361  0.00  0.00    +0.000 A 
ATOM     10  C   UNL     1      10.817  12.705  24.591  0.00  0.00    +0.000 A 
ATOM     11  C   UNL     1      11.571  10.139  21.260  0.00  0.00    +0.000 A 
ENDBRANCH   2   7
BRANCH   1  12
ATOM     12  O   UNL     1       9.245  14.883  22.462  0.00  0.00    +0.000 OA
BRANCH  12  13
ATOM     13  C   UNL     1       8.786  14.929  21.105  0.00  0.00    +0.000 C 
BRANCH  13  16
ATOM     14 CL   UNL     1       4.460  16.126  23.734  0.00  0.00    +0.000 Cl
ATOM     15 CL   UNL     1       2.891  16.285  20.889  0.00  0.00    +0.000 Cl
ATOM     16  C   UNL     1       7.320  15.291  21.064  0.00  0.00    +0.000 A 
ATOM     17  C   UNL     1       6.614  15.531  22.252  0.00  0.00    +0.000 A 
ATOM     18  C   UNL     1       6.633  15.363  19.843  0.00  0.00    +0.000 A 
ATOM     19  C   UNL     1       5.248  15.843  22.223  0.00  0.00    +0.000 A 
ATOM     20  C   UNL     1       5.270  15.675  19.813  0.00  0.00    +0.000 A 
ATOM     21  C   UNL     1       4.576  15.913  21.000  0.00  0.00    +0.000 A 
ENDBRANCH  13  16
ENDBRANCH  12  13
ENDBRANCH   1  12
TORSDOF 4
ENDMDL
MODEL 4
REMARK VINA RESULT:      -5.1      1.701      2.482
REMARK  Name = 3770353
REMARK  4 active torsions:
REMARK  status: ('A' for Active; 'I' for Inactive)
REMARK    1  A    between atoms: O_5  and  N_8
REMARK    2  A    between atoms: O_5  and  C_14
REMARK    3  A    between atoms: C_9  and  C_16
REMARK    4  A    between atoms: C_13  and  C_14
REMARK                            x       y       z     vdW  Elec       q    Type
REMARK                         _______ _______ _______ _____ _____    ______ ____
ROOT
ATOM      1  N   UNL     1     -16.513   0.389  29.061  0.00  0.00    +0.000 NA
ATOM      2  C   UNL     1     -17.327   1.225  28.490  0.00  0.00    +0.000 C 
ENDROOT
BRANCH   2   7
ATOM      3 CL   UNL     1     -16.343   2.053  25.488  0.00  0.00    +0.000 Cl
ATOM      4  S   UNL     1     -17.316   6.345  28.646  0.00  0.00    +0.000 S 
ATOM      5  N   UNL     1     -17.355   3.767  28.780  0.00  0.00    +0.000 N 
ATOM      6  N   UNL     1     -16.710   4.405  26.730  0.00  0.00    +0.000 NA
ATOM      7  C   UNL     1     -17.138   2.593  28.095  0.00  0.00    +0.000 A 
ATOM      8  C   UNL     1     -17.068   4.788  27.918  0.00  0.00    +0.000 A 
ATOM      9  C   UNL     1     -17.800   4.187  30.019  0.00  0.00    +0.000 A 
ATOM     10  C   UNL     1     -16.749   3.033  26.827  0.00  0.00    +0.000 A 
ATOM     11  C   UNL     1     -17.826   5.527  30.124  0.00  0.00    +0.000 A 
ENDBRANCH   2   7
BRANCH   1  12
ATOM     12  O   UNL     1     -15.222   0.890  29.236  0.00  0.00    +0.000 OA
BRANCH  12  13
ATOM     13  C   UNL     1     -14.664   0.348  30.440  0.00  0.00    +0.000 C 
BRANCH  13  16
ATOM     14 CL   UNL     1     -14.615   5.387  31.732  0.00  0.00    +0.000 Cl
ATOM     15 CL   UNL     1     -14.613   4.486  34.857  0.00  0.00    +0.000 Cl
ATOM     16  C   UNL     1     -14.673   1.392  31.533  0.00  0.00    +0.000 A 
ATOM     17  C   UNL     1     -14.653   2.756  31.211  0.00  0.00    +0.000 A 
ATOM     18  C   UNL     1     -14.673   1.015  32.884  0.00  0.00    +0.000 A 
ATOM     19  C   UNL     1     -14.637   3.730  32.219  0.00  0.00    +0.000 A 
ATOM     20  C   UNL     1     -14.659   1.986  33.891  0.00  0.00    +0.000 A 
ATOM     21  C   UNL     1     -14.639   3.342  33.561  0.00  0.00    +0.000 A 
ENDBRANCH  13  16
ENDBRANCH  12  13
ENDBRANCH   1  12
TORSDOF 4
ENDMDL
MODEL 5
REMARK VINA RESULT:      -5.0      2.834      4.317
REMARK  Name = 3770353
REMARK  4 active torsions:
REMARK  status: ('A' for Active; 'I' for Inactive)
REMARK    1  A    between atoms: O_5  and  N_8
REMARK    2  A    between atoms: O_5  and  C_14
REMARK    3  A    between atoms: C_9  and  C_16
REMARK    4  A    between atoms: C_13  and  C_14
REMARK                            x       y       z     vdW  Elec       q    Type
REMARK                         _______ _______ _______ _____ _____    ______ ____
ROOT
ATOM      1  N   UNL     1     -17.141   5.035  28.662  0.00  0.00    +0.000 NA
ATOM      2  C   UNL     1     -16.533   4.018  28.130  0.00  0.00    +0.000 C 
ENDROOT
BRANCH   2   7
ATOM      3 CL   UNL     1     -18.709   1.691  27.414  0.00  0.00    +0.000 Cl
ATOM      4  S   UNL     1     -14.529  -0.156  30.321  0.00  0.00    +0.000 S 
ATOM      5  N   UNL     1     -15.387   2.063  29.318  0.00  0.00    +0.000 N 
ATOM      6  N   UNL     1     -16.828   0.412  28.840  0.00  0.00    +0.000 NA
ATOM      7  C   UNL     1     -16.389   2.666  28.592  0.00  0.00    +0.000 A 
ATOM      8  C   UNL     1     -15.722   0.743  29.435  0.00  0.00    +0.000 A 
ATOM      9  C   UNL     1     -14.176   2.388  29.898  0.00  0.00    +0.000 A 
ATOM     10  C   UNL     1     -17.256   1.607  28.308  0.00  0.00    +0.000 A 
ATOM     11  C   UNL     1     -13.593   1.331  30.489  0.00  0.00    +0.000 A 
ENDBRANCH   2   7
BRANCH   1  12
ATOM     12  O   UNL     1     -17.836   4.725  29.833  0.00  0.00    +0.000 OA
BRANCH  12  13
ATOM     13  C   UNL     1     -17.772   5.841  30.730  0.00  0.00    +0.000 C 
BRANCH  13  16
ATOM     14 CL   UNL     1     -15.250   2.215  33.478  0.00  0.00    +0.000 Cl
ATOM     15 CL   UNL     1     -14.274   4.566  35.502  0.00  0.00    +0.000 Cl
ATOM     16  C   UNL     1     -16.880   5.512  31.905  0.00  0.00    +0.000 A 
ATOM     17  C   UNL     1     -16.490   4.188  32.151  0.00  0.00    +0.000 A 
ATOM     18  C   UNL     1     -16.453   6.518  32.784  0.00  0.00    +0.000 A 
ATOM     19  C   UNL     1     -15.684   3.872  33.253  0.00  0.00    +0.000 A 
ATOM     20  C   UNL     1     -15.646   6.204  33.883  0.00  0.00    +0.000 A 
ATOM     21  C   UNL     1     -15.263   4.883  34.120  0.00  0.00    +0.000 A 
ENDBRANCH  13  16
ENDBRANCH  12  13
ENDBRANCH   1  12
TORSDOF 4
ENDMDL
MODEL 6
REMARK VINA RESULT:      -4.9      4.208      5.957
REMARK  Name = 3770353
REMARK  4 active torsions:
REMARK  status: ('A' for Active; 'I' for Inactive)
REMARK    1  A    between atoms: O_5  and  N_8
REMARK    2  A    between atoms: O_5  and  C_14
REMARK    3  A    between atoms: C_9  and  C_16
REMARK    4  A    between atoms: C_13  and  C_14
REMARK                            x       y       z     vdW  Elec       q    Type
REMARK                         _______ _______ _______ _____ _____    ______ ____
ROOT
ATOM      1  N   UNL     1     -17.467   5.432  32.284  0.00  0.00    +0.000 NA
ATOM      2  C   UNL     1     -17.005   4.302  32.730  0.00  0.00    +0.000 C 
ENDROOT
BRANCH   2   7
ATOM      3 CL   UNL     1     -14.383   4.201  34.674  0.00  0.00    +0.000 Cl
ATOM      4  S   UNL     1     -13.795   1.226  30.185  0.00  0.00    +0.000 S 
ATOM      5  N   UNL     1     -15.539   2.776  31.293  0.00  0.00    +0.000 N 
ATOM      6  N   UNL     1     -13.717   2.641  32.593  0.00  0.00    +0.000 NA
ATOM      7  C   UNL     1     -15.819   3.572  32.380  0.00  0.00    +0.000 A 
ATOM      8  C   UNL     1     -14.281   2.275  31.482  0.00  0.00    +0.000 A 
ATOM      9  C   UNL     1     -16.155   2.325  30.141  0.00  0.00    +0.000 A 
ATOM     10  C   UNL     1     -14.669   3.454  33.165  0.00  0.00    +0.000 A 
ATOM     11  C   UNL     1     -15.364   1.506  29.426  0.00  0.00    +0.000 A 
ENDBRANCH   2   7
BRANCH   1  12
ATOM     12  O   UNL     1     -16.617   6.070  31.378  0.00  0.00    +0.000 OA
BRANCH  12  13
ATOM     13  C   UNL     1     -16.553   7.466  31.692  0.00  0.00    +0.000 C 
BRANCH  13  16
ATOM     14 CL   UNL     1     -12.858  10.937  30.530  0.00  0.00    +0.000 Cl
ATOM     15 CL   UNL     1     -10.754   9.119  32.218  0.00  0.00    +0.000 Cl
ATOM     16  C   UNL     1     -15.113   7.902  31.834  0.00  0.00    +0.000 A 
ATOM     17  C   UNL     1     -14.663   9.077  31.216  0.00  0.00    +0.000 A 
ATOM     18  C   UNL     1     -14.198   7.127  32.561  0.00  0.00    +0.000 A 
ATOM     19  C   UNL     1     -13.324   9.475  31.322  0.00  0.00    +0.000 A 
ATOM     20  C   UNL     1     -12.861   7.524  32.670  0.00  0.00    +0.000 A 
ATOM     21  C   UNL     1     -12.422   8.694  32.050  0.00  0.00    +0.000 A 
ENDBRANCH  13  16
ENDBRANCH  12  13
ENDBRANCH   1  12
TORSDOF 4
ENDMDL
MODEL 7
REMARK VINA RESULT:      -4.9      7.546     10.647
REMARK  Name = 3770353
REMARK  4 active torsions:
REMARK  status: ('A' for Active; 'I' for Inactive)
REMARK    1  A    between atoms: O_5  and  N_8
REMARK    2  A    between atoms: O_5  and  C_14
REMARK    3  A    between atoms: C_9  and  C_16
REMARK    4  A    between atoms: C_13  and  C_14
REMARK                            x       y       z     vdW  Elec       q    Type
REMARK                         _______ _______ _______ _____ _____    ______ ____
ROOT
ATOM      1  N   UNL     1     -14.821   6.685  22.704  0.00  0.00    +0.000 NA
ATOM      2  C   UNL     1     -15.769   5.973  23.236  0.00  0.00    +0.000 C 
ENDROOT
BRANCH   2   7
ATOM      3 CL   UNL     1     -15.645   3.040  24.667  0.00  0.00    +0.000 Cl
ATOM      4  S   UNL     1     -18.932   3.149  20.362  0.00  0.00    +0.000 S 
ATOM      5  N   UNL     1     -17.356   4.728  21.662  0.00  0.00    +0.000 N 
ATOM      6  N   UNL     1     -17.338   2.696  22.611  0.00  0.00    +0.000 NA
ATOM      7  C   UNL     1     -16.488   4.840  22.725  0.00  0.00    +0.000 A 
ATOM      8  C   UNL     1     -17.803   3.436  21.651  0.00  0.00    +0.000 A 
ATOM      9  C   UNL     1     -17.910   5.522  20.677  0.00  0.00    +0.000 A 
ATOM     10  C   UNL     1     -16.512   3.562  23.291  0.00  0.00    +0.000 A 
ATOM     11  C   UNL     1     -18.757   4.840  19.888  0.00  0.00    +0.000 A 
ENDBRANCH   2   7
BRANCH   1  12
ATOM     12  O   UNL     1     -14.383   6.207  21.467  0.00  0.00    +0.000 OA
BRANCH  12  13
ATOM     13  C   UNL     1     -12.952   6.144  21.464  0.00  0.00    +0.000 C 
BRANCH  13  16
ATOM     14 CL   UNL     1     -10.458   7.914  17.257  0.00  0.00    +0.000 Cl
ATOM     15 CL   UNL     1     -10.604  10.898  18.543  0.00  0.00    +0.000 Cl
ATOM     16  C   UNL     1     -12.381   7.326  20.714  0.00  0.00    +0.000 A 
ATOM     17  C   UNL     1     -11.758   7.143  19.472  0.00  0.00    +0.000 A 
ATOM     18  C   UNL     1     -12.440   8.617  21.259  0.00  0.00    +0.000 A 
ATOM     19  C   UNL     1     -11.204   8.230  18.781  0.00  0.00    +0.000 A 
ATOM     20  C   UNL     1     -11.890   9.703  20.570  0.00  0.00    +0.000 A 
ATOM     21  C   UNL     1     -11.271   9.512  19.334  0.00  0.00    +0.000 A 
ENDBRANCH  13  16
ENDBRANCH  12  13
ENDBRANCH   1  12
TORSDOF 4
ENDMDL
MODEL 8
REMARK VINA RESULT:      -4.8     26.408     27.503
REMARK  Name = 3770353
REMARK  4 active torsions:
REMARK  status: ('A' for Active; 'I' for Inactive)
REMARK    1  A    between atoms: O_5  and  N_8
REMARK    2  A    between atoms: O_5  and  C_14
REMARK    3  A    between atoms: C_9  and  C_16
REMARK    4  A    between atoms: C_13  and  C_14
REMARK                            x       y       z     vdW  Elec       q    Type
REMARK                         _______ _______ _______ _____ _____    ______ ____
ROOT
ATOM      1  N   UNL     1       8.060  15.218  21.381  0.00  0.00    +0.000 NA
ATOM      2  C   UNL     1       9.304  15.014  21.697  0.00  0.00    +0.000 C 
ENDROOT
BRANCH   2   7
ATOM      3 CL   UNL     1       9.433  16.913  24.350  0.00  0.00    +0.000 Cl
ATOM      4  S   UNL     1      11.510  11.980  25.185  0.00  0.00    +0.000 S 
ATOM      5  N   UNL     1      10.445  13.359  23.279  0.00  0.00    +0.000 N 
ATOM      6  N   UNL     1      10.541  14.601  25.145  0.00  0.00    +0.000 NA
ATOM      7  C   UNL     1       9.897  14.572  22.927  0.00  0.00    +0.000 A 
ATOM      8  C   UNL     1      10.814  13.457  24.592  0.00  0.00    +0.000 A 
ATOM      9  C   UNL     1      10.678  12.117  22.722  0.00  0.00    +0.000 A 
ATOM     10  C   UNL     1       9.968  15.309  24.113  0.00  0.00    +0.000 A 
ATOM     11  C   UNL     1      11.254  11.268  23.591  0.00  0.00    +0.000 A 
ENDBRANCH   2   7
BRANCH   1  12
ATOM     12  O   UNL     1       7.158  14.863  22.387  0.00  0.00    +0.000 OA
BRANCH  12  13
ATOM     13  C   UNL     1       6.455  16.032  22.826  0.00  0.00    +0.000 C 
BRANCH  13  16
ATOM     14 CL   UNL     1       2.293  16.537  19.747  0.00  0.00    +0.000 Cl
ATOM     15 CL   UNL     1       0.478  15.342  22.168  0.00  0.00    +0.000 Cl
ATOM     16  C   UNL     1       4.967  15.844  22.640  0.00  0.00    +0.000 A 
ATOM     17  C   UNL     1       4.350  16.210  21.436  0.00  0.00    +0.000 A 
ATOM     18  C   UNL     1       4.175  15.329  23.677  0.00  0.00    +0.000 A 
ATOM     19  C   UNL     1       2.967  16.062  21.265  0.00  0.00    +0.000 A 
ATOM     20  C   UNL     1       2.795  15.178  23.507  0.00  0.00    +0.000 A 
ATOM     21  C   UNL     1       2.189  15.546  22.304  0.00  0.00    +0.000 A 
ENDBRANCH  13  16
ENDBRANCH  12  13
ENDBRANCH   1  12
TORSDOF 4
ENDMDL
MODEL 9
REMARK VINA RESULT:      -4.8     31.146     32.156
REMARK  Name = 3770353
REMARK  4 active torsions:
REMARK  status: ('A' for Active; 'I' for Inactive)
REMARK    1  A    between atoms: O_5  and  N_8
REMARK    2  A    between atoms: O_5  and  C_14
REMARK    3  A    between atoms: C_9  and  C_16
REMARK    4  A    between atoms: C_13  and  C_14
REMARK                            x       y       z     vdW  Elec       q    Type
REMARK                         _______ _______ _______ _____ _____    ______ ____
ROOT
ATOM      1  N   UNL     1      15.097  11.644  17.381  0.00  0.00    +0.000 NA
ATOM      2  C   UNL     1      15.033  12.239  18.534  0.00  0.00    +0.000 C 
ENDROOT
BRANCH   2   7
ATOM      3 CL   UNL     1      12.971  14.728  18.069  0.00  0.00    +0.000 Cl
ATOM      4  S   UNL     1      11.599  11.614  22.283  0.00  0.00    +0.000 S 
ATOM      5  N   UNL     1      13.447  11.775  20.487  0.00  0.00    +0.000 N 
ATOM      6  N   UNL     1      11.978  13.446  20.209  0.00  0.00    +0.000 NA
ATOM      7  C   UNL     1      13.914  12.481  19.402  0.00  0.00    +0.000 A 
ATOM      8  C   UNL     1      12.315  12.411  20.916  0.00  0.00    +0.000 A 
ATOM      9  C   UNL     1      13.758  10.637  21.206  0.00  0.00    +0.000 A 
ATOM     10  C   UNL     1      12.971  13.502  19.258  0.00  0.00    +0.000 A 
ATOM     11  C   UNL     1      12.888  10.412  22.206  0.00  0.00    +0.000 A 
ENDBRANCH   2   7
BRANCH   1  12
ATOM     12  O   UNL     1      13.889  11.076  16.972  0.00  0.00    +0.000 OA
BRANCH  12  13
ATOM     13  C   UNL     1      14.082   9.677  16.727  0.00  0.00    +0.000 C 
BRANCH  13  16
ATOM     14 CL   UNL     1      15.089   6.304  20.556  0.00  0.00    +0.000 Cl
ATOM     15 CL   UNL     1      11.931   6.387  21.329  0.00  0.00    +0.000 Cl
ATOM     16  C   UNL     1      13.562   8.868  17.892  0.00  0.00    +0.000 A 
ATOM     17  C   UNL     1      14.429   8.051  18.632  0.00  0.00    +0.000 A 
ATOM     18  C   UNL     1      12.203   8.897  18.235  0.00  0.00    +0.000 A 
ATOM     19  C   UNL     1      13.950   7.279  19.699  0.00  0.00    +0.000 A 
ATOM     20  C   UNL     1      11.723   8.128  19.301  0.00  0.00    +0.000 A 
ATOM     21  C   UNL     1      12.594   7.318  20.031  0.00  0.00    +0.000 A 
ENDBRANCH  13  16
ENDBRANCH  12  13
ENDBRANCH   1  12
TORSDOF 4
ENDMDL
MODEL 10
REMARK VINA RESULT:      -4.7      6.014      9.138
REMARK  Name = 3770353
REMARK  4 active torsions:
REMARK  status: ('A' for Active; 'I' for Inactive)
REMARK    1  A    between atoms: O_5  and  N_8
REMARK    2  A    between atoms: O_5  and  C_14
REMARK    3  A    between atoms: C_9  and  C_16
REMARK    4  A    between atoms: C_13  and  C_14
REMARK                            x       y       z     vdW  Elec       q    Type
REMARK                         _______ _______ _______ _____ _____    ______ ____
ROOT
ATOM      1  N   UNL     1     -15.776   4.177  22.412  0.00  0.00    +0.000 NA
ATOM      2  C   UNL     1     -16.689   3.945  23.307  0.00  0.00    +0.000 C 
ENDROOT
BRANCH   2   7
ATOM      3 CL   UNL     1     -18.293   6.784  23.471  0.00  0.00    +0.000 Cl
ATOM      4  S   UNL     1     -16.986   4.818  28.346  0.00  0.00    +0.000 S 
ATOM      5  N   UNL     1     -16.703   4.215  25.851  0.00  0.00    +0.000 N 
ATOM      6  N   UNL     1     -17.823   6.149  26.036  0.00  0.00    +0.000 NA
ATOM      7  C   UNL     1     -16.963   4.599  24.555  0.00  0.00    +0.000 A 
ATOM      8  C   UNL     1     -17.225   5.182  26.664  0.00  0.00    +0.000 A 
ATOM      9  C   UNL     1     -16.129   3.159  26.532  0.00  0.00    +0.000 A 
ATOM     10  C   UNL     1     -17.666   5.797  24.715  0.00  0.00    +0.000 A 
ATOM     11  C   UNL     1     -16.179   3.324  27.865  0.00  0.00    +0.000 A 
ENDBRANCH   2   7
BRANCH   1  12
ATOM     12  O   UNL     1     -14.996   5.303  22.681  0.00  0.00    +0.000 OA
BRANCH  12  13
ATOM     13  C   UNL     1     -13.682   5.107  22.143  0.00  0.00    +0.000 C 
BRANCH  13  16
ATOM     14 CL   UNL     1     -14.331  10.230  21.515  0.00  0.00    +0.000 Cl
ATOM     15 CL   UNL     1     -11.522  10.287  19.876  0.00  0.00    +0.000 Cl
ATOM     16  C   UNL     1     -13.143   6.411  21.601  0.00  0.00    +0.000 A 
ATOM     17  C   UNL     1     -13.862   7.602  21.774  0.00  0.00    +0.000 A 
ATOM     18  C   UNL     1     -11.932   6.448  20.894  0.00  0.00    +0.000 A 
ATOM     19  C   UNL     1     -13.381   8.811  21.253  0.00  0.00    +0.000 A 
ATOM     20  C   UNL     1     -11.450   7.654  20.375  0.00  0.00    +0.000 A 
ATOM     21  C   UNL     1     -12.173   8.834  20.552  0.00  0.00    +0.000 A 
ENDBRANCH  13  16
ENDBRANCH  12  13
ENDBRANCH   1  12
TORSDOF 4
ENDMDL
