REMARK  Name = 3770353
REMARK  4 active torsions:
REMARK  status: ('A' for Active; 'I' for Inactive)
REMARK    1  A    between atoms: O_5  and  N_8
REMARK    2  A    between atoms: O_5  and  C_14
REMARK    3  A    between atoms: C_9  and  C_16
REMARK    4  A    between atoms: C_13  and  C_14
REMARK                            x       y       z     vdW  Elec       q    Type
REMARK                         _______ _______ _______ _____ _____    ______ ____
ROOT
ATOM      1  N   UNL     1       4.827   3.522  -0.060  0.00  0.00    +0.000 NA
ATOM      2  C   UNL     1       3.963   2.552  -0.076  0.00  0.00    +0.000 C 
ENDROOT
BRANCH   2   7
ATOM      3 CL   UNL     1       1.818   0.447   1.201  0.00  0.00    +0.000 Cl
ATOM      4  S   UNL     1       5.966  -2.009  -1.270  0.00  0.00    +0.000 S 
ATOM      5  N   UNL     1       5.140   0.379  -0.738  0.00  0.00    +0.000 N 
ATOM      6  N   UNL     1       3.694  -1.121   0.092  0.00  0.00    +0.000 NA
ATOM      7  C   UNL     1       4.153   1.130  -0.141  0.00  0.00    +0.000 A 
ATOM      8  C   UNL     1       4.809  -0.934  -0.547  0.00  0.00    +0.000 A 
ATOM      9  C   UNL     1       6.292   0.565  -1.477  0.00  0.00    +0.000 A 
ATOM     10  C   UNL     1       3.273   0.163   0.353  0.00  0.00    +0.000 A 
ATOM     11  C   UNL     1       6.867  -0.598  -1.828  0.00  0.00    +0.000 A 
ENDBRANCH   2   7
BRANCH   1  12
ATOM     12  O   UNL     1       6.155   3.093  -0.013  0.00  0.00    +0.000 OA
BRANCH  12  13
ATOM     13  C   UNL     1       7.017   4.233   0.093  0.00  0.00    +0.000 C 
BRANCH  13  16
ATOM     14 CL   UNL     1      11.679   4.395  -2.208  0.00  0.00    +0.000 Cl
ATOM     15 CL   UNL     1      10.163   5.011  -5.019  0.00  0.00    +0.000 Cl
ATOM     16  C   UNL     1       7.813   4.403  -1.180  0.00  0.00    +0.000 A 
ATOM     17  C   UNL     1       9.213   4.327  -1.157  0.00  0.00    +0.000 A 
ATOM     18  C   UNL     1       7.170   4.668  -2.398  0.00  0.00    +0.000 A 
ATOM     19  C   UNL     1       9.960   4.508  -2.329  0.00  0.00    +0.000 A 
ATOM     20  C   UNL     1       7.914   4.847  -3.569  0.00  0.00    +0.000 A 
ATOM     21  C   UNL     1       9.307   4.770  -3.536  0.00  0.00    +0.000 A 
ENDBRANCH  13  16
ENDBRANCH  12  13
ENDBRANCH   1  12
TORSDOF 4
