MODEL 1
REMARK VINA RESULT:      -5.4      0.000      0.000
REMARK  Name = 3770353
REMARK  4 active torsions:
REMARK  status: ('A' for Active; 'I' for Inactive)
REMARK    1  A    between atoms: O_5  and  N_8
REMARK    2  A    between atoms: O_5  and  C_14
REMARK    3  A    between atoms: C_9  and  C_16
REMARK    4  A    between atoms: C_13  and  C_14
REMARK                            x       y       z     vdW  Elec       q    Type
REMARK                         _______ _______ _______ _____ _____    ______ ____
ROOT
ATOM      1  N   UNL     1      -7.231  -0.856 -50.503  0.00  0.00    +0.000 NA
ATOM      2  C   UNL     1      -7.940  -1.604 -51.293  0.00  0.00    +0.000 C 
ENDROOT
BRANCH   2   7
ATOM      3 CL   UNL     1      -8.631  -0.143 -54.130  0.00  0.00    +0.000 Cl
ATOM      4  S   UNL     1      -6.039  -4.857 -54.763  0.00  0.00    +0.000 S 
ATOM      5  N   UNL     1      -6.959  -3.368 -52.864  0.00  0.00    +0.000 N 
ATOM      6  N   UNL     1      -7.379  -2.407 -54.847  0.00  0.00    +0.000 NA
ATOM      7  C   UNL     1      -7.617  -2.198 -52.560  0.00  0.00    +0.000 A 
ATOM      8  C   UNL     1      -6.870  -3.429 -54.228  0.00  0.00    +0.000 A 
ATOM      9  C   UNL     1      -6.355  -4.427 -52.215  0.00  0.00    +0.000 A 
ATOM     10  C   UNL     1      -7.851  -1.629 -53.814  0.00  0.00    +0.000 A 
ATOM     11  C   UNL     1      -5.829  -5.319 -53.073  0.00  0.00    +0.000 A 
ENDBRANCH   2   7
BRANCH   1  12
ATOM     12  O   UNL     1      -5.912  -0.680 -50.927  0.00  0.00    +0.000 OA
BRANCH  12  13
ATOM     13  C   UNL     1      -5.608   0.721 -50.957  0.00  0.00    +0.000 C 
BRANCH  13  16
ATOM     14 CL   UNL     1      -5.338   4.588 -54.425  0.00  0.00    +0.000 Cl
ATOM     15 CL   UNL     1      -4.451   2.395 -56.658  0.00  0.00    +0.000 Cl
ATOM     16  C   UNL     1      -5.301   1.155 -52.371  0.00  0.00    +0.000 A 
ATOM     17  C   UNL     1      -5.423   2.502 -52.742  0.00  0.00    +0.000 A 
ATOM     18  C   UNL     1      -4.917   0.219 -53.342  0.00  0.00    +0.000 A 
ATOM     19  C   UNL     1      -5.164   2.909 -54.058  0.00  0.00    +0.000 A 
ATOM     20  C   UNL     1      -4.655   0.624 -54.655  0.00  0.00    +0.000 A 
ATOM     21  C   UNL     1      -4.780   1.966 -55.015  0.00  0.00    +0.000 A 
ENDBRANCH  13  16
ENDBRANCH  12  13
ENDBRANCH   1  12
TORSDOF 4
ENDMDL
MODEL 2
REMARK VINA RESULT:      -4.7      4.648      5.702
REMARK  Name = 3770353
REMARK  4 active torsions:
REMARK  status: ('A' for Active; 'I' for Inactive)
REMARK    1  A    between atoms: O_5  and  N_8
REMARK    2  A    between atoms: O_5  and  C_14
REMARK    3  A    between atoms: C_9  and  C_16
REMARK    4  A    between atoms: C_13  and  C_14
REMARK                            x       y       z     vdW  Elec       q    Type
REMARK                         _______ _______ _______ _____ _____    ______ ____
ROOT
ATOM      1  N   UNL     1      -9.012  -2.962 -49.574  0.00  0.00    +0.000 NA
ATOM      2  C   UNL     1      -9.019  -3.699 -48.505  0.00  0.00    +0.000 C 
ENDROOT
BRANCH   2   7
ATOM      3 CL   UNL     1      -6.640  -5.650 -49.598  0.00  0.00    +0.000 Cl
ATOM      4  S   UNL     1      -5.952  -4.180 -44.430  0.00  0.00    +0.000 S 
ATOM      5  N   UNL     1      -7.640  -3.839 -46.354  0.00  0.00    +0.000 N 
ATOM      6  N   UNL     1      -5.961  -5.155 -47.048  0.00  0.00    +0.000 NA
ATOM      7  C   UNL     1      -7.941  -4.139 -47.664  0.00  0.00    +0.000 A 
ATOM      8  C   UNL     1      -6.470  -4.484 -46.060  0.00  0.00    +0.000 A 
ATOM      9  C   UNL     1      -8.136  -3.075 -45.316  0.00  0.00    +0.000 A 
ATOM     10  C   UNL     1      -6.872  -4.948 -48.059  0.00  0.00    +0.000 A 
ATOM     11  C   UNL     1      -7.371  -3.154 -44.214  0.00  0.00    +0.000 A 
ENDBRANCH   2   7
BRANCH   1  12
ATOM     12  O   UNL     1      -7.753  -2.451 -49.898  0.00  0.00    +0.000 OA
BRANCH  12  13
ATOM     13  C   UNL     1      -7.509  -2.647 -51.297  0.00  0.00    +0.000 C 
BRANCH  13  16
ATOM     14 CL   UNL     1      -4.679   1.691 -50.812  0.00  0.00    +0.000 Cl
ATOM     15 CL   UNL     1      -5.617   2.523 -53.813  0.00  0.00    +0.000 Cl
ATOM     16  C   UNL     1      -7.012  -1.364 -51.922  0.00  0.00    +0.000 A 
ATOM     17  C   UNL     1      -6.166  -0.506 -51.204  0.00  0.00    +0.000 A 
ATOM     18  C   UNL     1      -7.409  -0.995 -53.215  0.00  0.00    +0.000 A 
ATOM     19  C   UNL     1      -5.720   0.697 -51.767  0.00  0.00    +0.000 A 
ATOM     20  C   UNL     1      -6.963   0.204 -53.780  0.00  0.00    +0.000 A 
ATOM     21  C   UNL     1      -6.122   1.052 -53.057  0.00  0.00    +0.000 A 
ENDBRANCH  13  16
ENDBRANCH  12  13
ENDBRANCH   1  12
TORSDOF 4
ENDMDL
MODEL 3
REMARK VINA RESULT:      -4.7     17.490     18.889
REMARK  Name = 3770353
REMARK  4 active torsions:
REMARK  status: ('A' for Active; 'I' for Inactive)
REMARK    1  A    between atoms: O_5  and  N_8
REMARK    2  A    between atoms: O_5  and  C_14
REMARK    3  A    between atoms: C_9  and  C_16
REMARK    4  A    between atoms: C_13  and  C_14
REMARK                            x       y       z     vdW  Elec       q    Type
REMARK                         _______ _______ _______ _____ _____    ______ ____
ROOT
ATOM      1  N   UNL     1     -18.839   9.277 -57.533  0.00  0.00    +0.000 NA
ATOM      2  C   UNL     1     -19.901   9.784 -58.084  0.00  0.00    +0.000 C 
ENDROOT
BRANCH   2   7
ATOM      3 CL   UNL     1     -20.894  12.372 -56.357  0.00  0.00    +0.000 Cl
ATOM      4  S   UNL     1     -24.857   8.789 -57.254  0.00  0.00    +0.000 S 
ATOM      5  N   UNL     1     -22.341   9.090 -57.750  0.00  0.00    +0.000 N 
ATOM      6  N   UNL     1     -23.095  10.851 -56.584  0.00  0.00    +0.000 NA
ATOM      7  C   UNL     1     -21.244   9.907 -57.590  0.00  0.00    +0.000 A 
ATOM      8  C   UNL     1     -23.387   9.705 -57.119  0.00  0.00    +0.000 A 
ATOM      9  C   UNL     1     -22.679   7.905 -58.372  0.00  0.00    +0.000 A 
ATOM     10  C   UNL     1     -21.756  10.990 -56.871  0.00  0.00    +0.000 A 
ATOM     11  C   UNL     1     -23.973   7.587 -58.196  0.00  0.00    +0.000 A 
ENDBRANCH   2   7
BRANCH   1  12
ATOM     12  O   UNL     1     -19.031   8.865 -56.213  0.00  0.00    +0.000 OA
BRANCH  12  13
ATOM     13  C   UNL     1     -18.880   7.442 -56.135  0.00  0.00    +0.000 C 
BRANCH  13  16
ATOM     14 CL   UNL     1     -22.136   3.444 -56.823  0.00  0.00    +0.000 Cl
ATOM     15 CL   UNL     1     -24.238   4.940 -54.841  0.00  0.00    +0.000 Cl
ATOM     16  C   UNL     1     -20.205   6.796 -55.803  0.00  0.00    +0.000 A 
ATOM     17  C   UNL     1     -20.554   5.561 -56.368  0.00  0.00    +0.000 A 
ATOM     18  C   UNL     1     -21.118   7.431 -54.949  0.00  0.00    +0.000 A 
ATOM     19  C   UNL     1     -21.791   4.967 -56.084  0.00  0.00    +0.000 A 
ATOM     20  C   UNL     1     -22.353   6.838 -54.663  0.00  0.00    +0.000 A 
ATOM     21  C   UNL     1     -22.692   5.609 -55.231  0.00  0.00    +0.000 A 
ENDBRANCH  13  16
ENDBRANCH  12  13
ENDBRANCH   1  12
TORSDOF 4
ENDMDL
MODEL 4
REMARK VINA RESULT:      -4.6     14.414     15.570
REMARK  Name = 3770353
REMARK  4 active torsions:
REMARK  status: ('A' for Active; 'I' for Inactive)
REMARK    1  A    between atoms: O_5  and  N_8
REMARK    2  A    between atoms: O_5  and  C_14
REMARK    3  A    between atoms: C_9  and  C_16
REMARK    4  A    between atoms: C_13  and  C_14
REMARK                            x       y       z     vdW  Elec       q    Type
REMARK                         _______ _______ _______ _____ _____    ______ ____
ROOT
ATOM      1  N   UNL     1      -9.975  12.164 -59.918  0.00  0.00    +0.000 NA
ATOM      2  C   UNL     1     -10.859  11.241 -59.685  0.00  0.00    +0.000 C 
ENDROOT
BRANCH   2   7
ATOM      3 CL   UNL     1     -11.146  10.733 -56.473  0.00  0.00    +0.000 Cl
ATOM      4  S   UNL     1     -15.857  11.980 -58.838  0.00  0.00    +0.000 S 
ATOM      5  N   UNL     1     -13.381  11.617 -59.476  0.00  0.00    +0.000 N 
ATOM      6  N   UNL     1     -13.644  11.307 -57.271  0.00  0.00    +0.000 NA
ATOM      7  C   UNL     1     -12.124  11.305 -59.009  0.00  0.00    +0.000 A 
ATOM      8  C   UNL     1     -14.223  11.584 -58.400  0.00  0.00    +0.000 A 
ATOM      9  C   UNL     1     -13.996  11.978 -60.659  0.00  0.00    +0.000 A 
ATOM     10  C   UNL     1     -12.330  11.129 -57.638  0.00  0.00    +0.000 A 
ATOM     11  C   UNL     1     -15.314  12.193 -60.504  0.00  0.00    +0.000 A 
ENDBRANCH   2   7
BRANCH   1  12
ATOM     12  O   UNL     1     -10.374  13.440 -59.513  0.00  0.00    +0.000 OA
BRANCH  12  13
ATOM     13  C   UNL     1      -9.296  14.072 -58.812  0.00  0.00    +0.000 C 
BRANCH  13  16
ATOM     14 CL   UNL     1     -12.133  14.817 -54.516  0.00  0.00    +0.000 Cl
ATOM     15 CL   UNL     1      -9.817  13.272 -52.835  0.00  0.00    +0.000 Cl
ATOM     16  C   UNL     1      -9.449  13.859 -57.323  0.00  0.00    +0.000 A 
ATOM     17  C   UNL     1     -10.575  14.352 -56.648  0.00  0.00    +0.000 A 
ATOM     18  C   UNL     1      -8.457  13.194 -56.588  0.00  0.00    +0.000 A 
ATOM     19  C   UNL     1     -10.713  14.180 -55.264  0.00  0.00    +0.000 A 
ATOM     20  C   UNL     1      -8.594  13.020 -55.207  0.00  0.00    +0.000 A 
ATOM     21  C   UNL     1      -9.718  13.514 -54.544  0.00  0.00    +0.000 A 
ENDBRANCH  13  16
ENDBRANCH  12  13
ENDBRANCH   1  12
TORSDOF 4
ENDMDL
MODEL 5
REMARK VINA RESULT:      -4.5     16.799     17.972
REMARK  Name = 3770353
REMARK  4 active torsions:
REMARK  status: ('A' for Active; 'I' for Inactive)
REMARK    1  A    between atoms: O_5  and  N_8
REMARK    2  A    between atoms: O_5  and  C_14
REMARK    3  A    between atoms: C_9  and  C_16
REMARK    4  A    between atoms: C_13  and  C_14
REMARK                            x       y       z     vdW  Elec       q    Type
REMARK                         _______ _______ _______ _____ _____    ______ ____
ROOT
ATOM      1  N   UNL     1     -25.693   1.736 -55.357  0.00  0.00    +0.000 NA
ATOM      2  C   UNL     1     -25.967   0.908 -54.395  0.00  0.00    +0.000 C 
ENDROOT
BRANCH   2   7
ATOM      3 CL   UNL     1     -24.067  -1.746 -54.497  0.00  0.00    +0.000 Cl
ATOM      4  S   UNL     1     -23.763   0.884 -49.771  0.00  0.00    +0.000 S 
ATOM      5  N   UNL     1     -25.002   1.054 -52.030  0.00  0.00    +0.000 N 
ATOM      6  N   UNL     1     -23.656  -0.739 -52.042  0.00  0.00    +0.000 NA
ATOM      7  C   UNL     1     -25.180   0.485 -53.270  0.00  0.00    +0.000 A 
ATOM      8  C   UNL     1     -24.103   0.271 -51.360  0.00  0.00    +0.000 A 
ATOM      9  C   UNL     1     -25.419   2.163 -51.319  0.00  0.00    +0.000 A 
ATOM     10  C   UNL     1     -24.322  -0.618 -53.240  0.00  0.00    +0.000 A 
ATOM     11  C   UNL     1     -24.871   2.219 -50.093  0.00  0.00    +0.000 A 
ENDBRANCH   2   7
BRANCH   1  12
ATOM     12  O   UNL     1     -24.460   2.377 -55.214  0.00  0.00    +0.000 OA
BRANCH  12  13
ATOM     13  C   UNL     1     -24.594   3.751 -55.599  0.00  0.00    +0.000 C 
BRANCH  13  16
ATOM     14 CL   UNL     1     -21.509   7.836 -54.678  0.00  0.00    +0.000 Cl
ATOM     15 CL   UNL     1     -19.140   6.286 -56.281  0.00  0.00    +0.000 Cl
ATOM     16  C   UNL     1     -23.230   4.386 -55.743  0.00  0.00    +0.000 A 
ATOM     17  C   UNL     1     -22.981   5.660 -55.214  0.00  0.00    +0.000 A 
ATOM     18  C   UNL     1     -22.201   3.726 -56.431  0.00  0.00    +0.000 A 
ATOM     19  C   UNL     1     -21.727   6.266 -55.364  0.00  0.00    +0.000 A 
ATOM     20  C   UNL     1     -20.948   4.329 -56.580  0.00  0.00    +0.000 A 
ATOM     21  C   UNL     1     -20.710   5.598 -56.051  0.00  0.00    +0.000 A 
ENDBRANCH  13  16
ENDBRANCH  12  13
ENDBRANCH   1  12
TORSDOF 4
ENDMDL
MODEL 6
REMARK VINA RESULT:      -4.5      4.049      4.963
REMARK  Name = 3770353
REMARK  4 active torsions:
REMARK  status: ('A' for Active; 'I' for Inactive)
REMARK    1  A    between atoms: O_5  and  N_8
REMARK    2  A    between atoms: O_5  and  C_14
REMARK    3  A    between atoms: C_9  and  C_16
REMARK    4  A    between atoms: C_13  and  C_14
REMARK                            x       y       z     vdW  Elec       q    Type
REMARK                         _______ _______ _______ _____ _____    ______ ____
ROOT
ATOM      1  N   UNL     1      -8.417  -1.738 -49.636  0.00  0.00    +0.000 NA
ATOM      2  C   UNL     1      -8.995  -2.411 -48.687  0.00  0.00    +0.000 C 
ENDROOT
BRANCH   2   7
ATOM      3 CL   UNL     1     -10.993  -4.534 -50.159  0.00  0.00    +0.000 Cl
ATOM      4  S   UNL     1      -7.577  -6.910 -46.690  0.00  0.00    +0.000 S 
ATOM      5  N   UNL     1      -8.165  -4.547 -47.551  0.00  0.00    +0.000 N 
ATOM      6  N   UNL     1      -9.488  -6.062 -48.544  0.00  0.00    +0.000 NA
ATOM      7  C   UNL     1      -8.975  -3.816 -48.389  0.00  0.00    +0.000 A 
ATOM      8  C   UNL     1      -8.535  -5.857 -47.685  0.00  0.00    +0.000 A 
ATOM      9  C   UNL     1      -7.106  -4.350 -46.685  0.00  0.00    +0.000 A 
ATOM     10  C   UNL     1      -9.773  -4.792 -48.992  0.00  0.00    +0.000 A 
ATOM     11  C   UNL     1      -6.681  -5.497 -46.129  0.00  0.00    +0.000 A 
ENDBRANCH   2   7
BRANCH   1  12
ATOM     12  O   UNL     1      -7.572  -2.507 -50.438  0.00  0.00    +0.000 OA
BRANCH  12  13
ATOM     13  C   UNL     1      -8.208  -2.747 -51.701  0.00  0.00    +0.000 C 
BRANCH  13  16
ATOM     14 CL   UNL     1      -5.964   1.610 -53.444  0.00  0.00    +0.000 Cl
ATOM     15 CL   UNL     1      -5.247   0.026 -56.193  0.00  0.00    +0.000 Cl
ATOM     16  C   UNL     1      -7.449  -2.049 -52.805  0.00  0.00    +0.000 A 
ATOM     17  C   UNL     1      -7.072  -0.706 -52.669  0.00  0.00    +0.000 A 
ATOM     18  C   UNL     1      -7.133  -2.723 -53.995  0.00  0.00    +0.000 A 
ATOM     19  C   UNL     1      -6.390  -0.044 -53.699  0.00  0.00    +0.000 A 
ATOM     20  C   UNL     1      -6.450  -2.065 -55.023  0.00  0.00    +0.000 A 
ATOM     21  C   UNL     1      -6.081  -0.727 -54.878  0.00  0.00    +0.000 A 
ENDBRANCH  13  16
ENDBRANCH  12  13
ENDBRANCH   1  12
TORSDOF 4
ENDMDL
MODEL 7
REMARK VINA RESULT:      -4.5     10.099     13.069
REMARK  Name = 3770353
REMARK  4 active torsions:
REMARK  status: ('A' for Active; 'I' for Inactive)
REMARK    1  A    between atoms: O_5  and  N_8
REMARK    2  A    between atoms: O_5  and  C_14
REMARK    3  A    between atoms: C_9  and  C_16
REMARK    4  A    between atoms: C_13  and  C_14
REMARK                            x       y       z     vdW  Elec       q    Type
REMARK                         _______ _______ _______ _____ _____    ______ ____
ROOT
ATOM      1  N   UNL     1     -10.219  -6.887 -44.325  0.00  0.00    +0.000 NA
ATOM      2  C   UNL     1      -9.150  -6.467 -44.930  0.00  0.00    +0.000 C 
ENDROOT
BRANCH   2   7
ATOM      3 CL   UNL     1      -7.185  -3.979 -44.147  0.00  0.00    +0.000 Cl
ATOM      4  S   UNL     1      -9.387  -3.457 -49.068  0.00  0.00    +0.000 S 
ATOM      5  N   UNL     1      -9.428  -5.090 -47.068  0.00  0.00    +0.000 N 
ATOM      6  N   UNL     1      -8.072  -3.364 -46.605  0.00  0.00    +0.000 NA
ATOM      7  C   UNL     1      -8.948  -5.345 -45.804  0.00  0.00    +0.000 A 
ATOM      8  C   UNL     1      -8.881  -3.902 -47.467  0.00  0.00    +0.000 A 
ATOM      9  C   UNL     1     -10.233  -5.684 -48.020  0.00  0.00    +0.000 A 
ATOM     10  C   UNL     1      -8.106  -4.257 -45.558  0.00  0.00    +0.000 A 
ATOM     11  C   UNL     1     -10.333  -4.945 -49.138  0.00  0.00    +0.000 A 
ENDBRANCH   2   7
BRANCH   1  12
ATOM     12  O   UNL     1     -11.327  -6.053 -44.493  0.00  0.00    +0.000 OA
BRANCH  12  13
ATOM     13  C   UNL     1     -12.369  -6.778 -45.158  0.00  0.00    +0.000 C 
BRANCH  13  16
ATOM     14 CL   UNL     1     -15.290 -10.435 -42.888  0.00  0.00    +0.000 Cl
ATOM     15 CL   UNL     1     -16.858  -8.064 -41.307  0.00  0.00    +0.000 Cl
ATOM     16  C   UNL     1     -13.473  -7.114 -44.182  0.00  0.00    +0.000 A 
ATOM     17  C   UNL     1     -13.852  -8.448 -43.972  0.00  0.00    +0.000 A 
ATOM     18  C   UNL     1     -14.155  -6.100 -43.495  0.00  0.00    +0.000 A 
ATOM     19  C   UNL     1     -14.891  -8.766 -43.087  0.00  0.00    +0.000 A 
ATOM     20  C   UNL     1     -15.191  -6.417 -42.610  0.00  0.00    +0.000 A 
ATOM     21  C   UNL     1     -15.562  -7.747 -42.407  0.00  0.00    +0.000 A 
ENDBRANCH  13  16
ENDBRANCH  12  13
ENDBRANCH   1  12
TORSDOF 4
ENDMDL
MODEL 8
REMARK VINA RESULT:      -4.4     14.666     16.142
REMARK  Name = 3770353
REMARK  4 active torsions:
REMARK  status: ('A' for Active; 'I' for Inactive)
REMARK    1  A    between atoms: O_5  and  N_8
REMARK    2  A    between atoms: O_5  and  C_14
REMARK    3  A    between atoms: C_9  and  C_16
REMARK    4  A    between atoms: C_13  and  C_14
REMARK                            x       y       z     vdW  Elec       q    Type
REMARK                         _______ _______ _______ _____ _____    ______ ____
ROOT
ATOM      1  N   UNL     1     -11.516  11.055 -61.125  0.00  0.00    +0.000 NA
ATOM      2  C   UNL     1     -12.675  11.641 -61.086  0.00  0.00    +0.000 C 
ENDROOT
BRANCH   2   7
ATOM      3 CL   UNL     1     -14.191   9.661 -58.978  0.00  0.00    +0.000 Cl
ATOM      4  S   UNL     1     -14.730  14.900 -57.710  0.00  0.00    +0.000 S 
ATOM      5  N   UNL     1     -13.644  13.429 -59.533  0.00  0.00    +0.000 N 
ATOM      6  N   UNL     1     -14.685  12.126 -58.033  0.00  0.00    +0.000 NA
ATOM      7  C   UNL     1     -13.435  12.142 -59.975  0.00  0.00    +0.000 A 
ATOM      8  C   UNL     1     -14.399  13.339 -58.397  0.00  0.00    +0.000 A 
ATOM      9  C   UNL     1     -13.290  14.720 -59.871  0.00  0.00    +0.000 A 
ATOM     10  C   UNL     1     -14.088  11.366 -59.013  0.00  0.00    +0.000 A 
ATOM     11  C   UNL     1     -13.796  15.628 -59.019  0.00  0.00    +0.000 A 
ENDBRANCH   2   7
BRANCH   1  12
ATOM     12  O   UNL     1     -10.879  10.985 -59.884  0.00  0.00    +0.000 OA
BRANCH  12  13
ATOM     13  C   UNL     1     -10.189  12.216 -59.636  0.00  0.00    +0.000 C 
BRANCH  13  16
ATOM     14 CL   UNL     1     -11.975  11.065 -54.888  0.00  0.00    +0.000 Cl
ATOM     15 CL   UNL     1     -10.203  13.534 -53.729  0.00  0.00    +0.000 Cl
ATOM     16  C   UNL     1     -10.184  12.520 -58.156  0.00  0.00    +0.000 A 
ATOM     17  C   UNL     1     -10.966  11.762 -57.273  0.00  0.00    +0.000 A 
ATOM     18  C   UNL     1      -9.423  13.582 -57.645  0.00  0.00    +0.000 A 
ATOM     19  C   UNL     1     -10.986  12.053 -55.902  0.00  0.00    +0.000 A 
ATOM     20  C   UNL     1      -9.440  13.873 -56.277  0.00  0.00    +0.000 A 
ATOM     21  C   UNL     1     -10.222  13.112 -55.406  0.00  0.00    +0.000 A 
ENDBRANCH  13  16
ENDBRANCH  12  13
ENDBRANCH   1  12
TORSDOF 4
ENDMDL
MODEL 9
REMARK VINA RESULT:      -4.4     19.187     21.053
REMARK  Name = 3770353
REMARK  4 active torsions:
REMARK  status: ('A' for Active; 'I' for Inactive)
REMARK    1  A    between atoms: O_5  and  N_8
REMARK    2  A    between atoms: O_5  and  C_14
REMARK    3  A    between atoms: C_9  and  C_16
REMARK    4  A    between atoms: C_13  and  C_14
REMARK                            x       y       z     vdW  Elec       q    Type
REMARK                         _______ _______ _______ _____ _____    ______ ____
ROOT
ATOM      1  N   UNL     1     -10.854   7.038 -32.862  0.00  0.00    +0.000 NA
ATOM      2  C   UNL     1     -11.411   6.022 -32.275  0.00  0.00    +0.000 C 
ENDROOT
BRANCH   2   7
ATOM      3 CL   UNL     1     -11.312   3.091 -33.709  0.00  0.00    +0.000 Cl
ATOM      4  S   UNL     1     -16.355   4.721 -32.593  0.00  0.00    +0.000 S 
ATOM      5  N   UNL     1     -13.928   5.573 -32.371  0.00  0.00    +0.000 N 
ATOM      6  N   UNL     1     -13.930   3.546 -33.329  0.00  0.00    +0.000 NA
ATOM      7  C   UNL     1     -12.601   5.289 -32.603  0.00  0.00    +0.000 A 
ATOM      8  C   UNL     1     -14.649   4.509 -32.837  0.00  0.00    +0.000 A 
ATOM      9  C   UNL     1     -14.699   6.561 -31.790  0.00  0.00    +0.000 A 
ATOM     10  C   UNL     1     -12.646   4.021 -33.189  0.00  0.00    +0.000 A 
ATOM     11  C   UNL     1     -16.012   6.278 -31.836  0.00  0.00    +0.000 A 
ENDBRANCH   2   7
BRANCH   1  12
ATOM     12  O   UNL     1     -11.479   7.413 -34.053  0.00  0.00    +0.000 OA
BRANCH  12  13
ATOM     13  C   UNL     1     -10.497   7.929 -34.961  0.00  0.00    +0.000 C 
BRANCH  13  16
ATOM     14 CL   UNL     1      -5.979   5.925 -36.582  0.00  0.00    +0.000 Cl
ATOM     15 CL   UNL     1      -7.639   3.394 -37.772  0.00  0.00    +0.000 Cl
ATOM     16  C   UNL     1      -9.769   6.793 -35.641  0.00  0.00    +0.000 A 
ATOM     17  C   UNL     1      -8.375   6.833 -35.792  0.00  0.00    +0.000 A 
ATOM     18  C   UNL     1     -10.474   5.696 -36.157  0.00  0.00    +0.000 A 
ATOM     19  C   UNL     1      -7.695   5.794 -36.443  0.00  0.00    +0.000 A 
ATOM     20  C   UNL     1      -9.797   4.658 -36.805  0.00  0.00    +0.000 A 
ATOM     21  C   UNL     1      -8.410   4.707 -36.951  0.00  0.00    +0.000 A 
ENDBRANCH  13  16
ENDBRANCH  12  13
ENDBRANCH   1  12
TORSDOF 4
ENDMDL
MODEL 10
REMARK VINA RESULT:      -4.4     17.603     18.891
REMARK  Name = 3770353
REMARK  4 active torsions:
REMARK  status: ('A' for Active; 'I' for Inactive)
REMARK    1  A    between atoms: O_5  and  N_8
REMARK    2  A    between atoms: O_5  and  C_14
REMARK    3  A    between atoms: C_9  and  C_16
REMARK    4  A    between atoms: C_13  and  C_14
REMARK                            x       y       z     vdW  Elec       q    Type
REMARK                         _______ _______ _______ _____ _____    ______ ____
ROOT
ATOM      1  N   UNL     1     -22.851   8.997 -54.180  0.00  0.00    +0.000 NA
ATOM      2  C   UNL     1     -22.257   8.643 -55.279  0.00  0.00    +0.000 C 
ENDROOT
BRANCH   2   7
ATOM      3 CL   UNL     1     -19.058   8.104 -55.651  0.00  0.00    +0.000 Cl
ATOM      4  S   UNL     1     -22.063   3.696 -56.595  0.00  0.00    +0.000 S 
ATOM      5  N   UNL     1     -22.375   6.178 -55.954  0.00  0.00    +0.000 N 
ATOM      6  N   UNL     1     -20.191   5.732 -56.201  0.00  0.00    +0.000 NA
ATOM      7  C   UNL     1     -21.738   7.370 -55.695  0.00  0.00    +0.000 A 
ATOM      8  C   UNL     1     -21.402   5.267 -56.259  0.00  0.00    +0.000 A 
ATOM      9  C   UNL     1     -23.653   5.654 -55.954  0.00  0.00    +0.000 A 
ATOM     10  C   UNL     1     -20.387   7.048 -55.850  0.00  0.00    +0.000 A 
ATOM     11  C   UNL     1     -23.672   4.352 -56.287  0.00  0.00    +0.000 A 
ENDBRANCH   2   7
BRANCH   1  12
ATOM     12  O   UNL     1     -23.093   7.937 -53.303  0.00  0.00    +0.000 OA
BRANCH  12  13
ATOM     13  C   UNL     1     -22.103   7.945 -52.267  0.00  0.00    +0.000 C 
BRANCH  13  16
ATOM     14 CL   UNL     1     -25.022  10.336 -48.687  0.00  0.00    +0.000 Cl
ATOM     15 CL   UNL     1     -24.673   7.716 -46.792  0.00  0.00    +0.000 Cl
ATOM     16  C   UNL     1     -22.768   7.892 -50.911  0.00  0.00    +0.000 A 
ATOM     17  C   UNL     1     -23.517   8.982 -50.445  0.00  0.00    +0.000 A 
ATOM     18  C   UNL     1     -22.625   6.767 -50.086  0.00  0.00    +0.000 A 
ATOM     19  C   UNL     1     -24.116   8.950 -49.179  0.00  0.00    +0.000 A 
ATOM     20  C   UNL     1     -23.225   6.733 -48.823  0.00  0.00    +0.000 A 
ATOM     21  C   UNL     1     -23.967   7.823 -48.367  0.00  0.00    +0.000 A 
ENDBRANCH  13  16
ENDBRANCH  12  13
ENDBRANCH   1  12
TORSDOF 4
ENDMDL
