REMARK  Name = 3810507
REMARK  6 active torsions:
REMARK  status: ('A' for Active; 'I' for Inactive)
REMARK    1  A    between atoms: O_4  and  N_7
REMARK    2  A    between atoms: O_4  and  C_22
REMARK    3  A    between atoms: C_8  and  C_10
REMARK    4  A    between atoms: C_9  and  C_15
REMARK    5  A    between atoms: C_16  and  C_20
REMARK    6  A    between atoms: C_21  and  C_22
REMARK                            x       y       z     vdW  Elec       q    Type
REMARK                         _______ _______ _______ _____ _____    ______ ____
ROOT
ATOM      1  S   UNL     1       5.860   3.615   4.501  0.00  0.00    +0.000 S 
ATOM      2  N   UNL     1       3.408   2.960   4.091  0.00  0.00    +0.000 N 
ATOM      3  N   UNL     1       3.906   4.728   2.821  0.00  0.00    +0.000 NA
ATOM      4  C   UNL     1       2.577   4.364   2.648  0.00  0.00    +0.000 A 
ATOM      5  C   UNL     1       2.239   3.252   3.429  0.00  0.00    +0.000 A 
ATOM      6  C   UNL     1       4.336   3.881   3.710  0.00  0.00    +0.000 A 
ATOM      7  C   UNL     1       3.872   2.004   4.973  0.00  0.00    +0.000 A 
ATOM      8  C   UNL     1       5.153   2.216   5.318  0.00  0.00    +0.000 A 
ENDROOT
BRANCH   4   9
ATOM      9  C   UNL     1       1.701   5.109   1.753  0.00  0.00    +0.000 A 
ATOM     10  C   UNL     1       2.244   5.734   0.621  0.00  0.00    +0.000 A 
ATOM     11  C   UNL     1       0.331   5.255   2.002  0.00  0.00    +0.000 A 
ATOM     12  C   UNL     1       0.063   6.596  -0.008  0.00  0.00    +0.000 A 
ATOM     13  C   UNL     1       1.434   6.473  -0.251  0.00  0.00    +0.000 A 
ATOM     14  C   UNL     1      -0.482   5.979   1.124  0.00  0.00    +0.000 A 
ATOM     15  C   UNL     1      -0.824   7.389  -0.920  0.00  0.00    +0.000 C 
ENDBRANCH   4   9
BRANCH   5  17
ATOM     16  N   UNL     1       0.452   2.011   4.564  0.00  0.00    +0.000 NA
ATOM     17  C   UNL     1       1.015   2.503   3.499  0.00  0.00    +0.000 C 
BRANCH  16  18
ATOM     18  O   UNL     1       1.086   2.448   5.735  0.00  0.00    +0.000 OA
BRANCH  18  19
ATOM     19  C   UNL     1       0.671   1.648   6.840  0.00  0.00    +0.000 C 
BRANCH  19  22
ATOM     20 CL   UNL     1      -1.141   3.930   7.965  0.00  0.00    +0.000 Cl
ATOM     21  F   UNL     1       3.093   1.074   8.154  0.00  0.00    +0.000 F 
ATOM     22  C   UNL     1       1.099   2.358   8.091  0.00  0.00    +0.000 A 
ATOM     23  C   UNL     1       0.349   3.397   8.659  0.00  0.00    +0.000 A 
ATOM     24  C   UNL     1       2.320   2.031   8.690  0.00  0.00    +0.000 A 
ATOM     25  C   UNL     1       0.794   4.051   9.813  0.00  0.00    +0.000 A 
ATOM     26  C   UNL     1       2.773   2.680   9.838  0.00  0.00    +0.000 A 
ATOM     27  C   UNL     1       2.003   3.689  10.407  0.00  0.00    +0.000 A 
ENDBRANCH  19  22
ENDBRANCH  18  19
ENDBRANCH  16  18
ENDBRANCH   5  17
TORSDOF 5
