MODEL 1
REMARK VINA RESULT:      -5.9      0.000      0.000
REMARK  Name = 3810507
REMARK  6 active torsions:
REMARK  status: ('A' for Active; 'I' for Inactive)
REMARK    1  A    between atoms: O_4  and  N_7
REMARK    2  A    between atoms: O_4  and  C_22
REMARK    3  A    between atoms: C_8  and  C_10
REMARK    4  A    between atoms: C_9  and  C_15
REMARK    5  A    between atoms: C_16  and  C_20
REMARK    6  A    between atoms: C_21  and  C_22
REMARK                            x       y       z     vdW  Elec       q    Type
REMARK                         _______ _______ _______ _____ _____    ______ ____
ROOT
ATOM      1  S   UNL     1      11.073  14.915  22.007  0.00  0.00    +0.000 S 
ATOM      2  N   UNL     1      12.786  13.146  22.745  0.00  0.00    +0.000 N 
ATOM      3  N   UNL     1      11.067  12.120  21.758  0.00  0.00    +0.000 NA
ATOM      4  C   UNL     1      12.001  11.190  22.198  0.00  0.00    +0.000 A 
ATOM      5  C   UNL     1      13.094  11.808  22.816  0.00  0.00    +0.000 A 
ATOM      6  C   UNL     1      11.572  13.256  22.139  0.00  0.00    +0.000 A 
ATOM      7  C   UNL     1      13.374  14.350  23.083  0.00  0.00    +0.000 A 
ATOM      8  C   UNL     1      12.586  15.397  22.784  0.00  0.00    +0.000 A 
ENDROOT
BRANCH   4   9
ATOM      9  C   UNL     1      11.788   9.761  22.012  0.00  0.00    +0.000 A 
ATOM     10  C   UNL     1      10.605   9.174  22.486  0.00  0.00    +0.000 A 
ATOM     11  C   UNL     1      12.743   8.938  21.405  0.00  0.00    +0.000 A 
ATOM     12  C   UNL     1      11.325   6.987  21.713  0.00  0.00    +0.000 A 
ATOM     13  C   UNL     1      10.376   7.800  22.340  0.00  0.00    +0.000 A 
ATOM     14  C   UNL     1      12.509   7.568  21.244  0.00  0.00    +0.000 A 
ATOM     15  C   UNL     1      11.108   5.513  21.553  0.00  0.00    +0.000 C 
ENDBRANCH   4   9
BRANCH   5  17
ATOM     16  N   UNL     1      15.375  10.915  22.669  0.00  0.00    +0.000 NA
ATOM     17  C   UNL     1      14.308  11.244  23.338  0.00  0.00    +0.000 C 
BRANCH  16  18
ATOM     18  O   UNL     1      15.306  11.344  21.337  0.00  0.00    +0.000 OA
BRANCH  18  19
ATOM     19  C   UNL     1      16.410  10.824  20.600  0.00  0.00    +0.000 C 
BRANCH  19  22
ATOM     20 CL   UNL     1      17.700   8.218  21.739  0.00  0.00    +0.000 Cl
ATOM     21  F   UNL     1      14.573  10.607  18.479  0.00  0.00    +0.000 F 
ATOM     22  C   UNL     1      15.985   9.502  20.032  0.00  0.00    +0.000 A 
ATOM     23  C   UNL     1      16.518   8.286  20.480  0.00  0.00    +0.000 A 
ATOM     24  C   UNL     1      15.074   9.464  18.971  0.00  0.00    +0.000 A 
ATOM     25  C   UNL     1      16.114   7.074  19.909  0.00  0.00    +0.000 A 
ATOM     26  C   UNL     1      14.669   8.262  18.393  0.00  0.00    +0.000 A 
ATOM     27  C   UNL     1      15.184   7.061  18.869  0.00  0.00    +0.000 A 
ENDBRANCH  19  22
ENDBRANCH  18  19
ENDBRANCH  16  18
ENDBRANCH   5  17
TORSDOF 5
ENDMDL
MODEL 2
REMARK VINA RESULT:      -5.8     27.888     30.114
REMARK  Name = 3810507
REMARK  6 active torsions:
REMARK  status: ('A' for Active; 'I' for Inactive)
REMARK    1  A    between atoms: O_4  and  N_7
REMARK    2  A    between atoms: O_4  and  C_22
REMARK    3  A    between atoms: C_8  and  C_10
REMARK    4  A    between atoms: C_9  and  C_15
REMARK    5  A    between atoms: C_16  and  C_20
REMARK    6  A    between atoms: C_21  and  C_22
REMARK                            x       y       z     vdW  Elec       q    Type
REMARK                         _______ _______ _______ _____ _____    ______ ____
ROOT
ATOM      1  S   UNL     1      -5.219 -16.851  14.013  0.00  0.00    +0.000 S 
ATOM      2  N   UNL     1      -3.492 -14.949  14.122  0.00  0.00    +0.000 N 
ATOM      3  N   UNL     1      -5.115 -14.371  12.701  0.00  0.00    +0.000 NA
ATOM      4  C   UNL     1      -4.146 -13.378  12.762  0.00  0.00    +0.000 A 
ATOM      5  C   UNL     1      -3.118 -13.713  13.653  0.00  0.00    +0.000 A 
ATOM      6  C   UNL     1      -4.656 -15.288  13.502  0.00  0.00    +0.000 A 
ATOM      7  C   UNL     1      -3.034 -15.877  15.037  0.00  0.00    +0.000 A 
ATOM      8  C   UNL     1      -3.821 -16.965  15.089  0.00  0.00    +0.000 A 
ENDROOT
BRANCH   4   9
ATOM      9  C   UNL     1      -4.252 -12.170  11.956  0.00  0.00    +0.000 A 
ATOM     10  C   UNL     1      -3.717 -12.158  10.659  0.00  0.00    +0.000 A 
ATOM     11  C   UNL     1      -4.842 -10.998  12.443  0.00  0.00    +0.000 A 
ATOM     12  C   UNL     1      -4.396  -9.848  10.348  0.00  0.00    +0.000 A 
ATOM     13  C   UNL     1      -3.785 -11.008   9.863  0.00  0.00    +0.000 A 
ATOM     14  C   UNL     1      -4.926  -9.853  11.644  0.00  0.00    +0.000 A 
ATOM     15  C   UNL     1      -4.474  -8.601   9.520  0.00  0.00    +0.000 C 
ENDBRANCH   4   9
BRANCH   5  17
ATOM     16  N   UNL     1      -1.956 -11.954  14.910  0.00  0.00    +0.000 NA
ATOM     17  C   UNL     1      -1.974 -12.955  14.078  0.00  0.00    +0.000 C 
BRANCH  16  18
ATOM     18  O   UNL     1      -3.199 -11.774  15.532  0.00  0.00    +0.000 OA
BRANCH  18  19
ATOM     19  C   UNL     1      -3.099 -10.767  16.536  0.00  0.00    +0.000 C 
BRANCH  19  22
ATOM     20 CL   UNL     1      -3.473 -12.083  19.344  0.00  0.00    +0.000 Cl
ATOM     21  F   UNL     1      -5.315  -9.534  15.316  0.00  0.00    +0.000 F 
ATOM     22  C   UNL     1      -4.439 -10.669  17.205  0.00  0.00    +0.000 A 
ATOM     23  C   UNL     1      -4.694 -11.237  18.461  0.00  0.00    +0.000 A 
ATOM     24  C   UNL     1      -5.502 -10.051  16.540  0.00  0.00    +0.000 A 
ATOM     25  C   UNL     1      -5.964 -11.145  19.042  0.00  0.00    +0.000 A 
ATOM     26  C   UNL     1      -6.772  -9.958  17.109  0.00  0.00    +0.000 A 
ATOM     27  C   UNL     1      -7.002 -10.501  18.369  0.00  0.00    +0.000 A 
ENDBRANCH  19  22
ENDBRANCH  18  19
ENDBRANCH  16  18
ENDBRANCH   5  17
TORSDOF 5
ENDMDL
MODEL 3
REMARK VINA RESULT:      -5.7     27.803     29.978
REMARK  Name = 3810507
REMARK  6 active torsions:
REMARK  status: ('A' for Active; 'I' for Inactive)
REMARK    1  A    between atoms: O_4  and  N_7
REMARK    2  A    between atoms: O_4  and  C_22
REMARK    3  A    between atoms: C_8  and  C_10
REMARK    4  A    between atoms: C_9  and  C_15
REMARK    5  A    between atoms: C_16  and  C_20
REMARK    6  A    between atoms: C_21  and  C_22
REMARK                            x       y       z     vdW  Elec       q    Type
REMARK                         _______ _______ _______ _____ _____    ______ ____
ROOT
ATOM      1  S   UNL     1      -8.674 -13.450  16.053  0.00  0.00    +0.000 S 
ATOM      2  N   UNL     1      -6.176 -13.282  15.466  0.00  0.00    +0.000 N 
ATOM      3  N   UNL     1      -7.347 -12.080  13.993  0.00  0.00    +0.000 NA
ATOM      4  C   UNL     1      -5.992 -12.038  13.688  0.00  0.00    +0.000 A 
ATOM      5  C   UNL     1      -5.233 -12.779  14.602  0.00  0.00    +0.000 A 
ATOM      6  C   UNL     1      -7.396 -12.858  15.035  0.00  0.00    +0.000 A 
ATOM      7  C   UNL     1      -6.204 -14.042  16.620  0.00  0.00    +0.000 A 
ATOM      8  C   UNL     1      -7.458 -14.250  17.055  0.00  0.00    +0.000 A 
ENDROOT
BRANCH   4   9
ATOM      9  C   UNL     1      -5.502 -11.299  12.532  0.00  0.00    +0.000 A 
ATOM     10  C   UNL     1      -5.572  -9.899  12.530  0.00  0.00    +0.000 A 
ATOM     11  C   UNL     1      -4.991 -11.943  11.399  0.00  0.00    +0.000 A 
ATOM     12  C   UNL     1      -4.596  -9.806  10.308  0.00  0.00    +0.000 A 
ATOM     13  C   UNL     1      -5.126  -9.158  11.427  0.00  0.00    +0.000 A 
ATOM     14  C   UNL     1      -4.530 -11.204  10.304  0.00  0.00    +0.000 A 
ATOM     15  C   UNL     1      -4.121  -9.037   9.112  0.00  0.00    +0.000 C 
ENDBRANCH   4   9
BRANCH   5  17
ATOM     16  N   UNL     1      -2.930 -12.018  14.976  0.00  0.00    +0.000 NA
ATOM     17  C   UNL     1      -3.810 -12.940  14.712  0.00  0.00    +0.000 C 
BRANCH  16  18
ATOM     18  O   UNL     1      -3.539 -10.810  15.340  0.00  0.00    +0.000 OA
BRANCH  18  19
ATOM     19  C   UNL     1      -3.293 -10.537  16.718  0.00  0.00    +0.000 C 
BRANCH  19  22
ATOM     20 CL   UNL     1      -3.490 -12.167  19.375  0.00  0.00    +0.000 Cl
ATOM     21  F   UNL     1      -5.622  -9.331  15.696  0.00  0.00    +0.000 F 
ATOM     22  C   UNL     1      -4.613 -10.600  17.428  0.00  0.00    +0.000 A 
ATOM     23  C   UNL     1      -4.791 -11.314  18.621  0.00  0.00    +0.000 A 
ATOM     24  C   UNL     1      -5.735  -9.987  16.861  0.00  0.00    +0.000 A 
ATOM     25  C   UNL     1      -6.044 -11.370  19.241  0.00  0.00    +0.000 A 
ATOM     26  C   UNL     1      -6.989 -10.040  17.470  0.00  0.00    +0.000 A 
ATOM     27  C   UNL     1      -7.142 -10.728  18.669  0.00  0.00    +0.000 A 
ENDBRANCH  19  22
ENDBRANCH  18  19
ENDBRANCH  16  18
ENDBRANCH   5  17
TORSDOF 5
ENDMDL
MODEL 4
REMARK VINA RESULT:      -5.6      2.460      4.404
REMARK  Name = 3810507
REMARK  6 active torsions:
REMARK  status: ('A' for Active; 'I' for Inactive)
REMARK    1  A    between atoms: O_4  and  N_7
REMARK    2  A    between atoms: O_4  and  C_22
REMARK    3  A    between atoms: C_8  and  C_10
REMARK    4  A    between atoms: C_9  and  C_15
REMARK    5  A    between atoms: C_16  and  C_20
REMARK    6  A    between atoms: C_21  and  C_22
REMARK                            x       y       z     vdW  Elec       q    Type
REMARK                         _______ _______ _______ _____ _____    ______ ____
ROOT
ATOM      1  S   UNL     1      13.682  13.402  25.056  0.00  0.00    +0.000 S 
ATOM      2  N   UNL     1      14.010  12.847  22.568  0.00  0.00    +0.000 N 
ATOM      3  N   UNL     1      14.883  11.199  23.797  0.00  0.00    +0.000 NA
ATOM      4  C   UNL     1      15.069  10.948  22.444  0.00  0.00    +0.000 A 
ATOM      5  C   UNL     1      14.525  11.963  21.648  0.00  0.00    +0.000 A 
ATOM      6  C   UNL     1      14.280  12.352  23.807  0.00  0.00    +0.000 A 
ATOM      7  C   UNL     1      13.298  14.030  22.561  0.00  0.00    +0.000 A 
ATOM      8  C   UNL     1      13.060  14.482  23.803  0.00  0.00    +0.000 A 
ENDROOT
BRANCH   4   9
ATOM      9  C   UNL     1      15.769   9.753  21.988  0.00  0.00    +0.000 A 
ATOM     10  C   UNL     1      17.116   9.848  21.608  0.00  0.00    +0.000 A 
ATOM     11  C   UNL     1      15.132   8.511  21.881  0.00  0.00    +0.000 A 
ATOM     12  C   UNL     1      17.178   7.482  21.065  0.00  0.00    +0.000 A 
ATOM     13  C   UNL     1      17.814   8.724  21.149  0.00  0.00    +0.000 A 
ATOM     14  C   UNL     1      15.832   7.385  21.437  0.00  0.00    +0.000 A 
ATOM     15  C   UNL     1      17.899   6.266  20.567  0.00  0.00    +0.000 C 
ENDBRANCH   4   9
BRANCH   5  17
ATOM     16  N   UNL     1      13.578  11.456  19.442  0.00  0.00    +0.000 NA
ATOM     17  C   UNL     1      14.422  12.070  20.220  0.00  0.00    +0.000 C 
BRANCH  16  18
ATOM     18  O   UNL     1      12.600  10.770  20.177  0.00  0.00    +0.000 OA
BRANCH  18  19
ATOM     19  C   UNL     1      11.911   9.853  19.330  0.00  0.00    +0.000 C 
BRANCH  19  22
ATOM     20 CL   UNL     1      13.515   7.374  18.313  0.00  0.00    +0.000 Cl
ATOM     21  F   UNL     1      10.214   9.545  21.555  0.00  0.00    +0.000 F 
ATOM     22  C   UNL     1      11.789   8.559  20.080  0.00  0.00    +0.000 A 
ATOM     23  C   UNL     1      12.468   7.397  19.688  0.00  0.00    +0.000 A 
ATOM     24  C   UNL     1      10.920   8.470  21.172  0.00  0.00    +0.000 A 
ATOM     25  C   UNL     1      12.310   6.203  20.399  0.00  0.00    +0.000 A 
ATOM     26  C   UNL     1      10.753   7.283  21.884  0.00  0.00    +0.000 A 
ATOM     27  C   UNL     1      11.457   6.146  21.501  0.00  0.00    +0.000 A 
ENDBRANCH  19  22
ENDBRANCH  18  19
ENDBRANCH  16  18
ENDBRANCH   5  17
TORSDOF 5
ENDMDL
MODEL 5
REMARK VINA RESULT:      -5.5     33.916     36.047
REMARK  Name = 3810507
REMARK  6 active torsions:
REMARK  status: ('A' for Active; 'I' for Inactive)
REMARK    1  A    between atoms: O_4  and  N_7
REMARK    2  A    between atoms: O_4  and  C_22
REMARK    3  A    between atoms: C_8  and  C_10
REMARK    4  A    between atoms: C_9  and  C_15
REMARK    5  A    between atoms: C_16  and  C_20
REMARK    6  A    between atoms: C_21  and  C_22
REMARK                            x       y       z     vdW  Elec       q    Type
REMARK                         _______ _______ _______ _____ _____    ______ ____
ROOT
ATOM      1  S   UNL     1       5.279 -19.131  -2.001  0.00  0.00    +0.000 S 
ATOM      2  N   UNL     1       5.123 -16.667  -1.286  0.00  0.00    +0.000 N 
ATOM      3  N   UNL     1       3.848 -16.978  -3.093  0.00  0.00    +0.000 NA
ATOM      4  C   UNL     1       3.812 -15.647  -2.696  0.00  0.00    +0.000 A 
ATOM      5  C   UNL     1       4.599 -15.425  -1.559  0.00  0.00    +0.000 A 
ATOM      6  C   UNL     1       4.665 -17.524  -2.240  0.00  0.00    +0.000 A 
ATOM      7  C   UNL     1       5.927 -17.248  -0.326  0.00  0.00    +0.000 A 
ATOM      8  C   UNL     1       6.135 -18.554  -0.566  0.00  0.00    +0.000 A 
ENDROOT
BRANCH   4   9
ATOM      9  C   UNL     1       3.035 -14.660  -3.435  0.00  0.00    +0.000 A 
ATOM     10  C   UNL     1       3.418 -14.319  -4.740  0.00  0.00    +0.000 A 
ATOM     11  C   UNL     1       1.932 -14.008  -2.872  0.00  0.00    +0.000 A 
ATOM     12  C   UNL     1       1.591 -12.730  -4.912  0.00  0.00    +0.000 A 
ATOM     13  C   UNL     1       2.705 -13.361  -5.472  0.00  0.00    +0.000 A 
ATOM     14  C   UNL     1       1.209 -13.063  -3.607  0.00  0.00    +0.000 A 
ATOM     15  C   UNL     1       0.816 -11.695  -5.671  0.00  0.00    +0.000 C 
ENDBRANCH   4   9
BRANCH   5  17
ATOM     16  N   UNL     1       3.982 -13.756   0.130  0.00  0.00    +0.000 NA
ATOM     17  C   UNL     1       4.784 -14.236  -0.775  0.00  0.00    +0.000 C 
BRANCH  16  18
ATOM     18  O   UNL     1       2.938 -14.644   0.421  0.00  0.00    +0.000 OA
BRANCH  18  19
ATOM     19  C   UNL     1       2.668 -14.633   1.822  0.00  0.00    +0.000 C 
BRANCH  19  22
ATOM     20 CL   UNL     1       0.284 -16.593   2.306  0.00  0.00    +0.000 Cl
ATOM     21  F   UNL     1       5.270 -15.483   2.477  0.00  0.00    +0.000 F 
ATOM     22  C   UNL     1       2.960 -16.010   2.343  0.00  0.00    +0.000 A 
ATOM     23  C   UNL     1       1.950 -16.948   2.595  0.00  0.00    +0.000 A 
ATOM     24  C   UNL     1       4.275 -16.366   2.658  0.00  0.00    +0.000 A 
ATOM     25  C   UNL     1       2.261 -18.214   3.104  0.00  0.00    +0.000 A 
ATOM     26  C   UNL     1       4.594 -17.624   3.170  0.00  0.00    +0.000 A 
ATOM     27  C   UNL     1       3.584 -18.555   3.386  0.00  0.00    +0.000 A 
ENDBRANCH  19  22
ENDBRANCH  18  19
ENDBRANCH  16  18
ENDBRANCH   5  17
TORSDOF 5
ENDMDL
MODEL 6
REMARK VINA RESULT:      -5.4      3.216      5.552
REMARK  Name = 3810507
REMARK  6 active torsions:
REMARK  status: ('A' for Active; 'I' for Inactive)
REMARK    1  A    between atoms: O_4  and  N_7
REMARK    2  A    between atoms: O_4  and  C_22
REMARK    3  A    between atoms: C_8  and  C_10
REMARK    4  A    between atoms: C_9  and  C_15
REMARK    5  A    between atoms: C_16  and  C_20
REMARK    6  A    between atoms: C_21  and  C_22
REMARK                            x       y       z     vdW  Elec       q    Type
REMARK                         _______ _______ _______ _____ _____    ______ ____
ROOT
ATOM      1  S   UNL     1      15.436  14.621  25.012  0.00  0.00    +0.000 S 
ATOM      2  N   UNL     1      13.274  13.240  25.188  0.00  0.00    +0.000 N 
ATOM      3  N   UNL     1      12.912  14.980  23.837  0.00  0.00    +0.000 NA
ATOM      4  C   UNL     1      11.754  14.227  23.981  0.00  0.00    +0.000 A 
ATOM      5  C   UNL     1      11.955  13.123  24.819  0.00  0.00    +0.000 A 
ATOM      6  C   UNL     1      13.767  14.365  24.600  0.00  0.00    +0.000 A 
ATOM      7  C   UNL     1      14.193  12.530  25.936  0.00  0.00    +0.000 A 
ATOM      8  C   UNL     1      15.391  13.137  25.971  0.00  0.00    +0.000 A 
ENDROOT
BRANCH   4   9
ATOM      9  C   UNL     1      10.516  14.612  23.316  0.00  0.00    +0.000 A 
ATOM     10  C   UNL     1      10.316  14.258  21.974  0.00  0.00    +0.000 A 
ATOM     11  C   UNL     1       9.524  15.360  23.963  0.00  0.00    +0.000 A 
ATOM     12  C   UNL     1       8.150  15.355  21.958  0.00  0.00    +0.000 A 
ATOM     13  C   UNL     1       9.145  14.628  21.299  0.00  0.00    +0.000 A 
ATOM     14  C   UNL     1       8.348  15.716  23.296  0.00  0.00    +0.000 A 
ATOM     15  C   UNL     1       6.892  15.771  21.256  0.00  0.00    +0.000 C 
ENDBRANCH   4   9
BRANCH   5  17
ATOM     16  N   UNL     1      10.832  10.966  24.496  0.00  0.00    +0.000 NA
ATOM     17  C   UNL     1      11.067  12.052  25.174  0.00  0.00    +0.000 C 
BRANCH  16  18
ATOM     18  O   UNL     1      11.703  10.835  23.406  0.00  0.00    +0.000 OA
BRANCH  18  19
ATOM     19  C   UNL     1      10.970  10.463  22.241  0.00  0.00    +0.000 C 
BRANCH  19  22
ATOM     20 CL   UNL     1      13.248  10.956  20.161  0.00  0.00    +0.000 Cl
ATOM     21  F   UNL     1      10.231   7.812  22.832  0.00  0.00    +0.000 F 
ATOM     22  C   UNL     1      11.665   9.277  21.637  0.00  0.00    +0.000 A 
ATOM     23  C   UNL     1      12.692   9.409  20.693  0.00  0.00    +0.000 A 
ATOM     24  C   UNL     1      11.242   7.985  21.967  0.00  0.00    +0.000 A 
ATOM     25  C   UNL     1      13.299   8.278  20.135  0.00  0.00    +0.000 A 
ATOM     26  C   UNL     1      11.839   6.853  21.413  0.00  0.00    +0.000 A 
ATOM     27  C   UNL     1      12.877   7.000  20.499  0.00  0.00    +0.000 A 
ENDBRANCH  19  22
ENDBRANCH  18  19
ENDBRANCH  16  18
ENDBRANCH   5  17
TORSDOF 5
ENDMDL
MODEL 7
REMARK VINA RESULT:      -5.4     21.893     24.654
REMARK  Name = 3810507
REMARK  6 active torsions:
REMARK  status: ('A' for Active; 'I' for Inactive)
REMARK    1  A    between atoms: O_4  and  N_7
REMARK    2  A    between atoms: O_4  and  C_22
REMARK    3  A    between atoms: C_8  and  C_10
REMARK    4  A    between atoms: C_9  and  C_15
REMARK    5  A    between atoms: C_16  and  C_20
REMARK    6  A    between atoms: C_21  and  C_22
REMARK                            x       y       z     vdW  Elec       q    Type
REMARK                         _______ _______ _______ _____ _____    ______ ____
ROOT
ATOM      1  S   UNL     1      10.595  -5.929  33.926  0.00  0.00    +0.000 S 
ATOM      2  N   UNL     1       8.208  -6.827  33.603  0.00  0.00    +0.000 N 
ATOM      3  N   UNL     1       9.637  -8.178  32.545  0.00  0.00    +0.000 NA
ATOM      4  C   UNL     1       8.332  -8.616  32.367  0.00  0.00    +0.000 A 
ATOM      5  C   UNL     1       7.414  -7.790  33.026  0.00  0.00    +0.000 A 
ATOM      6  C   UNL     1       9.497  -7.098  33.258  0.00  0.00    +0.000 A 
ATOM      7  C   UNL     1       8.050  -5.731  34.428  0.00  0.00    +0.000 A 
ATOM      8  C   UNL     1       9.218  -5.117  34.680  0.00  0.00    +0.000 A 
ENDROOT
BRANCH   4   9
ATOM      9  C   UNL     1       8.035  -9.796  31.564  0.00  0.00    +0.000 A 
ATOM     10  C   UNL     1       6.848  -9.840  30.818  0.00  0.00    +0.000 A 
ATOM     11  C   UNL     1       8.881 -10.911  31.537  0.00  0.00    +0.000 A 
ATOM     12  C   UNL     1       7.383 -12.066  30.010  0.00  0.00    +0.000 A 
ATOM     13  C   UNL     1       6.523 -10.965  30.050  0.00  0.00    +0.000 A 
ATOM     14  C   UNL     1       8.565 -12.029  30.758  0.00  0.00    +0.000 A 
ATOM     15  C   UNL     1       7.053 -13.286  29.204  0.00  0.00    +0.000 C 
ENDBRANCH   4   9
BRANCH   5  17
ATOM     16  N   UNL     1       5.344  -8.811  33.860  0.00  0.00    +0.000 NA
ATOM     17  C   UNL     1       5.990  -7.914  33.173  0.00  0.00    +0.000 C 
BRANCH  16  18
ATOM     18  O   UNL     1       6.210  -9.592  34.638  0.00  0.00    +0.000 OA
BRANCH  18  19
ATOM     19  C   UNL     1       5.458 -10.505  35.435  0.00  0.00    +0.000 C 
BRANCH  19  22
ATOM     20 CL   UNL     1       2.372 -10.992  35.439  0.00  0.00    +0.000 Cl
ATOM     21  F   UNL     1       7.076 -12.100  33.774  0.00  0.00    +0.000 F 
ATOM     22  C   UNL     1       4.890 -11.542  34.511  0.00  0.00    +0.000 A 
ATOM     23  C   UNL     1       3.520 -11.829  34.454  0.00  0.00    +0.000 A 
ATOM     24  C   UNL     1       5.751 -12.308  33.717  0.00  0.00    +0.000 A 
ATOM     25  C   UNL     1       3.032 -12.821  33.596  0.00  0.00    +0.000 A 
ATOM     26  C   UNL     1       5.274 -13.301  32.863  0.00  0.00    +0.000 A 
ATOM     27  C   UNL     1       3.908 -13.554  32.796  0.00  0.00    +0.000 A 
ENDBRANCH  19  22
ENDBRANCH  18  19
ENDBRANCH  16  18
ENDBRANCH   5  17
TORSDOF 5
ENDMDL
MODEL 8
REMARK VINA RESULT:      -5.4      9.728     12.127
REMARK  Name = 3810507
REMARK  6 active torsions:
REMARK  status: ('A' for Active; 'I' for Inactive)
REMARK    1  A    between atoms: O_4  and  N_7
REMARK    2  A    between atoms: O_4  and  C_22
REMARK    3  A    between atoms: C_8  and  C_10
REMARK    4  A    between atoms: C_9  and  C_15
REMARK    5  A    between atoms: C_16  and  C_20
REMARK    6  A    between atoms: C_21  and  C_22
REMARK                            x       y       z     vdW  Elec       q    Type
REMARK                         _______ _______ _______ _____ _____    ______ ____
ROOT
ATOM      1  S   UNL     1       6.145  19.303  16.355  0.00  0.00    +0.000 S 
ATOM      2  N   UNL     1       6.123  17.122  17.716  0.00  0.00    +0.000 N 
ATOM      3  N   UNL     1       4.167  18.163  17.988  0.00  0.00    +0.000 NA
ATOM      4  C   UNL     1       4.203  16.993  18.735  0.00  0.00    +0.000 A 
ATOM      5  C   UNL     1       5.418  16.316  18.577  0.00  0.00    +0.000 A 
ATOM      6  C   UNL     1       5.343  18.201  17.432  0.00  0.00    +0.000 A 
ATOM      7  C   UNL     1       7.344  17.107  17.070  0.00  0.00    +0.000 A 
ATOM      8  C   UNL     1       7.532  18.207  16.322  0.00  0.00    +0.000 A 
ENDROOT
BRANCH   4   9
ATOM      9  C   UNL     1       3.075  16.595  19.568  0.00  0.00    +0.000 A 
ATOM     10  C   UNL     1       2.382  15.413  19.269  0.00  0.00    +0.000 A 
ATOM     11  C   UNL     1       2.632  17.374  20.644  0.00  0.00    +0.000 A 
ATOM     12  C   UNL     1       0.860  15.780  21.124  0.00  0.00    +0.000 A 
ATOM     13  C   UNL     1       1.283  15.010  20.037  0.00  0.00    +0.000 A 
ATOM     14  C   UNL     1       1.545  16.964  21.422  0.00  0.00    +0.000 A 
ATOM     15  C   UNL     1      -0.320  15.376  21.957  0.00  0.00    +0.000 C 
ENDBRANCH   4   9
BRANCH   5  17
ATOM     16  N   UNL     1       6.392  14.808  20.251  0.00  0.00    +0.000 NA
ATOM     17  C   UNL     1       5.847  15.045  19.093  0.00  0.00    +0.000 C 
BRANCH  16  18
ATOM     18  O   UNL     1       6.365  15.939  21.078  0.00  0.00    +0.000 OA
BRANCH  18  19
ATOM     19  C   UNL     1       6.635  15.562  22.427  0.00  0.00    +0.000 C 
BRANCH  19  22
ATOM     20 CL   UNL     1       8.186  17.889  23.818  0.00  0.00    +0.000 Cl
ATOM     21  F   UNL     1       3.891  15.253  22.969  0.00  0.00    +0.000 F 
ATOM     22  C   UNL     1       5.877  16.504  23.315  0.00  0.00    +0.000 A 
ATOM     23  C   UNL     1       6.496  17.570  23.982  0.00  0.00    +0.000 A 
ATOM     24  C   UNL     1       4.515  16.288  23.551  0.00  0.00    +0.000 A 
ATOM     25  C   UNL     1       5.758  18.412  24.821  0.00  0.00    +0.000 A 
ATOM     26  C   UNL     1       3.773  17.121  24.388  0.00  0.00    +0.000 A 
ATOM     27  C   UNL     1       4.395  18.192  25.020  0.00  0.00    +0.000 A 
ENDBRANCH  19  22
ENDBRANCH  18  19
ENDBRANCH  16  18
ENDBRANCH   5  17
TORSDOF 5
ENDMDL
MODEL 9
REMARK VINA RESULT:      -5.3     10.544     13.457
REMARK  Name = 3810507
REMARK  6 active torsions:
REMARK  status: ('A' for Active; 'I' for Inactive)
REMARK    1  A    between atoms: O_4  and  N_7
REMARK    2  A    between atoms: O_4  and  C_22
REMARK    3  A    between atoms: C_8  and  C_10
REMARK    4  A    between atoms: C_9  and  C_15
REMARK    5  A    between atoms: C_16  and  C_20
REMARK    6  A    between atoms: C_21  and  C_22
REMARK                            x       y       z     vdW  Elec       q    Type
REMARK                         _______ _______ _______ _____ _____    ______ ____
ROOT
ATOM      1  S   UNL     1       2.446  20.576  20.951  0.00  0.00    +0.000 S 
ATOM      2  N   UNL     1       2.661  18.796  22.793  0.00  0.00    +0.000 N 
ATOM      3  N   UNL     1       4.574  18.883  21.645  0.00  0.00    +0.000 NA
ATOM      4  C   UNL     1       4.643  17.908  22.632  0.00  0.00    +0.000 A 
ATOM      5  C   UNL     1       3.457  17.837  23.373  0.00  0.00    +0.000 A 
ATOM      6  C   UNL     1       3.367  19.351  21.769  0.00  0.00    +0.000 A 
ATOM      7  C   UNL     1       1.406  19.339  22.990  0.00  0.00    +0.000 A 
ATOM      8  C   UNL     1       1.118  20.284  22.080  0.00  0.00    +0.000 A 
ENDROOT
BRANCH   4   9
ATOM      9  C   UNL     1       5.837  17.091  22.804  0.00  0.00    +0.000 A 
ATOM     10  C   UNL     1       6.908  17.587  23.562  0.00  0.00    +0.000 A 
ATOM     11  C   UNL     1       5.971  15.833  22.205  0.00  0.00    +0.000 A 
ATOM     12  C   UNL     1       8.196  15.570  23.150  0.00  0.00    +0.000 A 
ATOM     13  C   UNL     1       8.078  16.835  23.732  0.00  0.00    +0.000 A 
ATOM     14  C   UNL     1       7.132  15.074  22.387  0.00  0.00    +0.000 A 
ATOM     15  C   UNL     1       9.441  14.750  23.309  0.00  0.00    +0.000 C 
ENDBRANCH   4   9
BRANCH   5  17
ATOM     16  N   UNL     1       2.671  15.820  24.529  0.00  0.00    +0.000 NA
ATOM     17  C   UNL     1       3.125  17.040  24.521  0.00  0.00    +0.000 C 
BRANCH  16  18
ATOM     18  O   UNL     1       2.698  15.248  23.250  0.00  0.00    +0.000 OA
BRANCH  18  19
ATOM     19  C   UNL     1       1.432  14.662  22.953  0.00  0.00    +0.000 C 
BRANCH  19  22
ATOM     20 CL   UNL     1       2.744  15.666  20.303  0.00  0.00    +0.000 Cl
ATOM     21  F   UNL     1      -1.074  15.702  23.699  0.00  0.00    +0.000 F 
ATOM     22  C   UNL     1       0.677  15.638  22.100  0.00  0.00    +0.000 A 
ATOM     23  C   UNL     1       1.195  16.145  20.900  0.00  0.00    +0.000 A 
ATOM     24  C   UNL     1      -0.561  16.124  22.533  0.00  0.00    +0.000 A 
ATOM     25  C   UNL     1       0.470  17.073  20.144  0.00  0.00    +0.000 A 
ATOM     26  C   UNL     1      -1.288  17.052  21.788  0.00  0.00    +0.000 A 
ATOM     27  C   UNL     1      -0.774  17.522  20.584  0.00  0.00    +0.000 A 
ENDBRANCH  19  22
ENDBRANCH  18  19
ENDBRANCH  16  18
ENDBRANCH   5  17
TORSDOF 5
ENDMDL
MODEL 10
REMARK VINA RESULT:      -5.3     34.021     35.492
REMARK  Name = 3810507
REMARK  6 active torsions:
REMARK  status: ('A' for Active; 'I' for Inactive)
REMARK    1  A    between atoms: O_4  and  N_7
REMARK    2  A    between atoms: O_4  and  C_22
REMARK    3  A    between atoms: C_8  and  C_10
REMARK    4  A    between atoms: C_9  and  C_15
REMARK    5  A    between atoms: C_16  and  C_20
REMARK    6  A    between atoms: C_21  and  C_22
REMARK                            x       y       z     vdW  Elec       q    Type
REMARK                         _______ _______ _______ _____ _____    ______ ____
ROOT
ATOM      1  S   UNL     1       2.375 -20.032   5.201  0.00  0.00    +0.000 S 
ATOM      2  N   UNL     1       3.729 -18.155   4.082  0.00  0.00    +0.000 N 
ATOM      3  N   UNL     1       1.625 -18.072   3.337  0.00  0.00    +0.000 NA
ATOM      4  C   UNL     1       2.395 -17.088   2.730  0.00  0.00    +0.000 A 
ATOM      5  C   UNL     1       3.720 -17.113   3.184  0.00  0.00    +0.000 A 
ATOM      6  C   UNL     1       2.477 -18.690   4.102  0.00  0.00    +0.000 A 
ATOM      7  C   UNL     1       4.624 -18.748   4.950  0.00  0.00    +0.000 A 
ATOM      8  C   UNL     1       4.077 -19.784   5.608  0.00  0.00    +0.000 A 
ENDROOT
BRANCH   4   9
ATOM      9  C   UNL     1       1.823 -16.187   1.739  0.00  0.00    +0.000 A 
ATOM     10  C   UNL     1       1.268 -16.717   0.565  0.00  0.00    +0.000 A 
ATOM     11  C   UNL     1       1.838 -14.796   1.899  0.00  0.00    +0.000 A 
ATOM     12  C   UNL     1       0.723 -14.492  -0.239  0.00  0.00    +0.000 A 
ATOM     13  C   UNL     1       0.725 -15.878  -0.417  0.00  0.00    +0.000 A 
ATOM     14  C   UNL     1       1.282 -13.958   0.928  0.00  0.00    +0.000 A 
ATOM     15  C   UNL     1       0.157 -13.572  -1.279  0.00  0.00    +0.000 C 
ENDBRANCH   4   9
BRANCH   5  17
ATOM     16  N   UNL     1       5.584 -16.262   1.835  0.00  0.00    +0.000 NA
ATOM     17  C   UNL     1       4.820 -16.239   2.888  0.00  0.00    +0.000 C 
BRANCH  16  18
ATOM     18  O   UNL     1       5.105 -17.155   0.867  0.00  0.00    +0.000 OA
BRANCH  18  19
ATOM     19  C   UNL     1       5.789 -16.947  -0.367  0.00  0.00    +0.000 C 
BRANCH  19  22
ATOM     20 CL   UNL     1       4.377 -18.778  -2.467  0.00  0.00    +0.000 Cl
ATOM     21  F   UNL     1       5.254 -14.184  -0.406  0.00  0.00    +0.000 F 
ATOM     22  C   UNL     1       4.811 -16.328  -1.321  0.00  0.00    +0.000 A 
ATOM     23  C   UNL     1       4.139 -17.075  -2.298  0.00  0.00    +0.000 A 
ATOM     24  C   UNL     1       4.597 -14.946  -1.295  0.00  0.00    +0.000 A 
ATOM     25  C   UNL     1       3.251 -16.457  -3.186  0.00  0.00    +0.000 A 
ATOM     26  C   UNL     1       3.718 -14.321  -2.178  0.00  0.00    +0.000 A 
ATOM     27  C   UNL     1       3.035 -15.080  -3.123  0.00  0.00    +0.000 A 
ENDBRANCH  19  22
ENDBRANCH  18  19
ENDBRANCH  16  18
ENDBRANCH   5  17
TORSDOF 5
ENDMDL
