MODEL 1
REMARK VINA RESULT:      -5.9      0.000      0.000
REMARK  Name = 3810507
REMARK  6 active torsions:
REMARK  status: ('A' for Active; 'I' for Inactive)
REMARK    1  A    between atoms: O_4  and  N_7
REMARK    2  A    between atoms: O_4  and  C_22
REMARK    3  A    between atoms: C_8  and  C_10
REMARK    4  A    between atoms: C_9  and  C_15
REMARK    5  A    between atoms: C_16  and  C_20
REMARK    6  A    between atoms: C_21  and  C_22
REMARK                            x       y       z     vdW  Elec       q    Type
REMARK                         _______ _______ _______ _____ _____    ______ ____
ROOT
ATOM      1  S   UNL     1      -4.468   5.682 -54.586  0.00  0.00    +0.000 S 
ATOM      2  N   UNL     1      -4.054   3.228 -55.229  0.00  0.00    +0.000 N 
ATOM      3  N   UNL     1      -5.643   3.307 -53.662  0.00  0.00    +0.000 NA
ATOM      4  C   UNL     1      -5.371   1.991 -54.013  0.00  0.00    +0.000 A 
ATOM      5  C   UNL     1      -4.382   1.912 -55.001  0.00  0.00    +0.000 A 
ATOM      6  C   UNL     1      -4.811   3.990 -54.392  0.00  0.00    +0.000 A 
ATOM      7  C   UNL     1      -3.223   3.943 -56.069  0.00  0.00    +0.000 A 
ATOM      8  C   UNL     1      -3.297   5.266 -55.844  0.00  0.00    +0.000 A 
ENDROOT
BRANCH   4   9
ATOM      9  C   UNL     1      -6.067   0.881 -53.374  0.00  0.00    +0.000 A 
ATOM     10  C   UNL     1      -7.144   0.272 -54.034  0.00  0.00    +0.000 A 
ATOM     11  C   UNL     1      -5.718   0.418 -52.100  0.00  0.00    +0.000 A 
ATOM     12  C   UNL     1      -7.478  -1.257 -52.178  0.00  0.00    +0.000 A 
ATOM     13  C   UNL     1      -7.846  -0.786 -53.442  0.00  0.00    +0.000 A 
ATOM     14  C   UNL     1      -6.407  -0.649 -51.514  0.00  0.00    +0.000 A 
ATOM     15  C   UNL     1      -8.219  -2.381 -51.518  0.00  0.00    +0.000 C 
ENDBRANCH   4   9
BRANCH   5  17
ATOM     16  N   UNL     1      -4.169   0.375 -56.902  0.00  0.00    +0.000 NA
ATOM     17  C   UNL     1      -3.858   0.774 -55.703  0.00  0.00    +0.000 C 
BRANCH  16  18
ATOM     18  O   UNL     1      -4.981   1.306 -57.563  0.00  0.00    +0.000 OA
BRANCH  18  19
ATOM     19  C   UNL     1      -4.385   1.675 -58.805  0.00  0.00    +0.000 C 
BRANCH  19  22
ATOM     20 CL   UNL     1      -5.193   4.672 -59.160  0.00  0.00    +0.000 Cl
ATOM     21  F   UNL     1      -5.843  -0.291 -60.194  0.00  0.00    +0.000 F 
ATOM     22  C   UNL     1      -5.499   2.014 -59.752  0.00  0.00    +0.000 A 
ATOM     23  C   UNL     1      -5.929   3.331 -59.965  0.00  0.00    +0.000 A 
ATOM     24  C   UNL     1      -6.190   0.988 -60.404  0.00  0.00    +0.000 A 
ATOM     25  C   UNL     1      -6.988   3.605 -60.838  0.00  0.00    +0.000 A 
ATOM     26  C   UNL     1      -7.249   1.251 -61.273  0.00  0.00    +0.000 A 
ATOM     27  C   UNL     1      -7.644   2.566 -61.497  0.00  0.00    +0.000 A 
ENDBRANCH  19  22
ENDBRANCH  18  19
ENDBRANCH  16  18
ENDBRANCH   5  17
TORSDOF 5
ENDMDL
MODEL 2
REMARK VINA RESULT:      -5.9     21.243     24.314
REMARK  Name = 3810507
REMARK  6 active torsions:
REMARK  status: ('A' for Active; 'I' for Inactive)
REMARK    1  A    between atoms: O_4  and  N_7
REMARK    2  A    between atoms: O_4  and  C_22
REMARK    3  A    between atoms: C_8  and  C_10
REMARK    4  A    between atoms: C_9  and  C_15
REMARK    5  A    between atoms: C_16  and  C_20
REMARK    6  A    between atoms: C_21  and  C_22
REMARK                            x       y       z     vdW  Elec       q    Type
REMARK                         _______ _______ _______ _____ _____    ______ ____
ROOT
ATOM      1  S   UNL     1     -13.998   3.041 -31.757  0.00  0.00    +0.000 S 
ATOM      2  N   UNL     1     -13.661   5.463 -32.550  0.00  0.00    +0.000 N 
ATOM      3  N   UNL     1     -15.812   4.916 -32.794  0.00  0.00    +0.000 NA
ATOM      4  C   UNL     1     -15.586   6.211 -33.242  0.00  0.00    +0.000 A 
ATOM      5  C   UNL     1     -14.244   6.583 -33.094  0.00  0.00    +0.000 A 
ATOM      6  C   UNL     1     -14.630   4.515 -32.427  0.00  0.00    +0.000 A 
ATOM      7  C   UNL     1     -12.417   5.080 -32.089  0.00  0.00    +0.000 A 
ATOM      8  C   UNL     1     -12.410   3.809 -31.654  0.00  0.00    +0.000 A 
ENDROOT
BRANCH   4   9
ATOM      9  C   UNL     1     -16.665   7.017 -33.798  0.00  0.00    +0.000 A 
ATOM     10  C   UNL     1     -17.917   7.021 -33.165  0.00  0.00    +0.000 A 
ATOM     11  C   UNL     1     -16.509   7.766 -34.970  0.00  0.00    +0.000 A 
ATOM     12  C   UNL     1     -18.812   8.533 -34.841  0.00  0.00    +0.000 A 
ATOM     13  C   UNL     1     -18.982   7.769 -33.683  0.00  0.00    +0.000 A 
ATOM     14  C   UNL     1     -17.566   8.527 -35.479  0.00  0.00    +0.000 A 
ATOM     15  C   UNL     1     -19.938   9.335 -35.420  0.00  0.00    +0.000 C 
ENDBRANCH   4   9
BRANCH   5  17
ATOM     16  N   UNL     1     -12.686   8.088 -34.247  0.00  0.00    +0.000 NA
ATOM     17  C   UNL     1     -13.594   7.839 -33.349  0.00  0.00    +0.000 C 
BRANCH  16  18
ATOM     18  O   UNL     1     -12.507   7.006 -35.118  0.00  0.00    +0.000 OA
BRANCH  18  19
ATOM     19  C   UNL     1     -11.612   7.369 -36.168  0.00  0.00    +0.000 C 
BRANCH  19  22
ATOM     20 CL   UNL     1      -9.135   8.125 -34.422  0.00  0.00    +0.000 Cl
ATOM     21  F   UNL     1     -11.537   4.983 -37.658  0.00  0.00    +0.000 F 
ATOM     22  C   UNL     1     -10.451   6.419 -36.114  0.00  0.00    +0.000 A 
ATOM     23  C   UNL     1      -9.299   6.684 -35.361  0.00  0.00    +0.000 A 
ATOM     24  C   UNL     1     -10.473   5.254 -36.887  0.00  0.00    +0.000 A 
ATOM     25  C   UNL     1      -8.227   5.785 -35.356  0.00  0.00    +0.000 A 
ATOM     26  C   UNL     1      -9.408   4.354 -36.890  0.00  0.00    +0.000 A 
ATOM     27  C   UNL     1      -8.283   4.616 -36.115  0.00  0.00    +0.000 A 
ENDBRANCH  19  22
ENDBRANCH  18  19
ENDBRANCH  16  18
ENDBRANCH   5  17
TORSDOF 5
ENDMDL
MODEL 3
REMARK VINA RESULT:      -5.7      3.769      5.952
REMARK  Name = 3810507
REMARK  6 active torsions:
REMARK  status: ('A' for Active; 'I' for Inactive)
REMARK    1  A    between atoms: O_4  and  N_7
REMARK    2  A    between atoms: O_4  and  C_22
REMARK    3  A    between atoms: C_8  and  C_10
REMARK    4  A    between atoms: C_9  and  C_15
REMARK    5  A    between atoms: C_16  and  C_20
REMARK    6  A    between atoms: C_21  and  C_22
REMARK                            x       y       z     vdW  Elec       q    Type
REMARK                         _______ _______ _______ _____ _____    ______ ____
ROOT
ATOM      1  S   UNL     1      -4.481   5.551 -54.457  0.00  0.00    +0.000 S 
ATOM      2  N   UNL     1      -4.399   3.122 -55.294  0.00  0.00    +0.000 N 
ATOM      3  N   UNL     1      -5.704   3.219 -53.484  0.00  0.00    +0.000 NA
ATOM      4  C   UNL     1      -5.611   1.913 -53.948  0.00  0.00    +0.000 A 
ATOM      5  C   UNL     1      -4.803   1.825 -55.088  0.00  0.00    +0.000 A 
ATOM      6  C   UNL     1      -4.940   3.883 -54.302  0.00  0.00    +0.000 A 
ATOM      7  C   UNL     1      -3.652   3.826 -56.218  0.00  0.00    +0.000 A 
ATOM      8  C   UNL     1      -3.569   5.131 -55.911  0.00  0.00    +0.000 A 
ENDROOT
BRANCH   4   9
ATOM      9  C   UNL     1      -6.293   0.821 -53.266  0.00  0.00    +0.000 A 
ATOM     10  C   UNL     1      -5.972   0.536 -51.930  0.00  0.00    +0.000 A 
ATOM     11  C   UNL     1      -7.239   0.014 -53.910  0.00  0.00    +0.000 A 
ATOM     12  C   UNL     1      -7.555  -1.305 -51.893  0.00  0.00    +0.000 A 
ATOM     13  C   UNL     1      -6.595  -0.518 -51.250  0.00  0.00    +0.000 A 
ATOM     14  C   UNL     1      -7.873  -1.028 -53.227  0.00  0.00    +0.000 A 
ATOM     15  C   UNL     1      -8.229  -2.445 -51.190  0.00  0.00    +0.000 C 
ENDBRANCH   4   9
BRANCH   5  17
ATOM     16  N   UNL     1      -3.660  -0.262 -55.688  0.00  0.00    +0.000 NA
ATOM     17  C   UNL     1      -4.503   0.699 -55.929  0.00  0.00    +0.000 C 
BRANCH  16  18
ATOM     18  O   UNL     1      -3.164  -0.201 -54.379  0.00  0.00    +0.000 OA
BRANCH  18  19
ATOM     19  C   UNL     1      -2.437  -1.390 -54.078  0.00  0.00    +0.000 C 
BRANCH  19  22
ATOM     20 CL   UNL     1      -4.666  -3.517 -54.595  0.00  0.00    +0.000 Cl
ATOM     21  F   UNL     1      -1.833  -0.685 -51.421  0.00  0.00    +0.000 F 
ATOM     22  C   UNL     1      -3.105  -2.036 -52.899  0.00  0.00    +0.000 A 
ATOM     23  C   UNL     1      -4.119  -2.993 -53.042  0.00  0.00    +0.000 A 
ATOM     24  C   UNL     1      -2.766  -1.632 -51.604  0.00  0.00    +0.000 A 
ATOM     25  C   UNL     1      -4.735  -3.555 -51.918  0.00  0.00    +0.000 A 
ATOM     26  C   UNL     1      -3.377  -2.184 -50.478  0.00  0.00    +0.000 A 
ATOM     27  C   UNL     1      -4.360  -3.155 -50.635  0.00  0.00    +0.000 A 
ENDBRANCH  19  22
ENDBRANCH  18  19
ENDBRANCH  16  18
ENDBRANCH   5  17
TORSDOF 5
ENDMDL
MODEL 4
REMARK VINA RESULT:      -5.6     17.235     18.937
REMARK  Name = 3810507
REMARK  6 active torsions:
REMARK  status: ('A' for Active; 'I' for Inactive)
REMARK    1  A    between atoms: O_4  and  N_7
REMARK    2  A    between atoms: O_4  and  C_22
REMARK    3  A    between atoms: C_8  and  C_10
REMARK    4  A    between atoms: C_9  and  C_15
REMARK    5  A    between atoms: C_16  and  C_20
REMARK    6  A    between atoms: C_21  and  C_22
REMARK                            x       y       z     vdW  Elec       q    Type
REMARK                         _______ _______ _______ _____ _____    ______ ____
ROOT
ATOM      1  S   UNL     1     -24.944   2.199 -60.849  0.00  0.00    +0.000 S 
ATOM      2  N   UNL     1     -24.382   2.492 -58.358  0.00  0.00    +0.000 N 
ATOM      3  N   UNL     1     -23.082   3.855 -59.557  0.00  0.00    +0.000 NA
ATOM      4  C   UNL     1     -22.785   3.964 -58.205  0.00  0.00    +0.000 A 
ATOM      5  C   UNL     1     -23.591   3.124 -57.428  0.00  0.00    +0.000 A 
ATOM      6  C   UNL     1     -24.012   2.946 -59.587  0.00  0.00    +0.000 A 
ATOM      7  C   UNL     1     -25.424   1.585 -58.367  0.00  0.00    +0.000 A 
ATOM      8  C   UNL     1     -25.830   1.296 -59.614  0.00  0.00    +0.000 A 
ENDROOT
BRANCH   4   9
ATOM      9  C   UNL     1     -21.736   4.859 -57.733  0.00  0.00    +0.000 A 
ATOM     10  C   UNL     1     -21.354   5.951 -58.527  0.00  0.00    +0.000 A 
ATOM     11  C   UNL     1     -21.066   4.649 -56.522  0.00  0.00    +0.000 A 
ATOM     12  C   UNL     1     -19.687   6.617 -56.891  0.00  0.00    +0.000 A 
ATOM     13  C   UNL     1     -20.337   6.821 -58.112  0.00  0.00    +0.000 A 
ATOM     14  C   UNL     1     -20.062   5.526 -56.099  0.00  0.00    +0.000 A 
ATOM     15  C   UNL     1     -18.590   7.528 -56.429  0.00  0.00    +0.000 C 
ENDBRANCH   4   9
BRANCH   5  17
ATOM     16  N   UNL     1     -24.328   3.736 -55.169  0.00  0.00    +0.000 NA
ATOM     17  C   UNL     1     -23.677   2.977 -56.001  0.00  0.00    +0.000 C 
BRANCH  16  18
ATOM     18  O   UNL     1     -25.134   4.668 -55.838  0.00  0.00    +0.000 OA
BRANCH  18  19
ATOM     19  C   UNL     1     -25.448   5.752 -54.967  0.00  0.00    +0.000 C 
BRANCH  19  22
ATOM     20 CL   UNL     1     -24.967   7.427 -57.559  0.00  0.00    +0.000 Cl
ATOM     21  F   UNL     1     -23.633   6.015 -52.832  0.00  0.00    +0.000 F 
ATOM     22  C   UNL     1     -24.290   6.706 -55.005  0.00  0.00    +0.000 A 
ATOM     23  C   UNL     1     -23.999   7.490 -56.130  0.00  0.00    +0.000 A 
ATOM     24  C   UNL     1     -23.419   6.782 -53.913  0.00  0.00    +0.000 A 
ATOM     25  C   UNL     1     -22.895   8.350 -56.135  0.00  0.00    +0.000 A 
ATOM     26  C   UNL     1     -22.315   7.633 -53.911  0.00  0.00    +0.000 A 
ATOM     27  C   UNL     1     -22.056   8.427 -55.023  0.00  0.00    +0.000 A 
ENDBRANCH  19  22
ENDBRANCH  18  19
ENDBRANCH  16  18
ENDBRANCH   5  17
TORSDOF 5
ENDMDL
MODEL 5
REMARK VINA RESULT:      -5.4     17.561     19.067
REMARK  Name = 3810507
REMARK  6 active torsions:
REMARK  status: ('A' for Active; 'I' for Inactive)
REMARK    1  A    between atoms: O_4  and  N_7
REMARK    2  A    between atoms: O_4  and  C_22
REMARK    3  A    between atoms: C_8  and  C_10
REMARK    4  A    between atoms: C_9  and  C_15
REMARK    5  A    between atoms: C_16  and  C_20
REMARK    6  A    between atoms: C_21  and  C_22
REMARK                            x       y       z     vdW  Elec       q    Type
REMARK                         _______ _______ _______ _____ _____    ______ ____
ROOT
ATOM      1  S   UNL     1     -18.607   7.488 -57.019  0.00  0.00    +0.000 S 
ATOM      2  N   UNL     1     -21.052   8.121 -56.543  0.00  0.00    +0.000 N 
ATOM      3  N   UNL     1     -20.765   5.954 -56.088  0.00  0.00    +0.000 NA
ATOM      4  C   UNL     1     -22.086   6.326 -55.871  0.00  0.00    +0.000 A 
ATOM      5  C   UNL     1     -22.293   7.684 -56.143  0.00  0.00    +0.000 A 
ATOM      6  C   UNL     1     -20.211   7.051 -56.515  0.00  0.00    +0.000 A 
ATOM      7  C   UNL     1     -20.460   9.311 -56.917  0.00  0.00    +0.000 A 
ATOM      8  C   UNL     1     -19.163   9.152 -57.230  0.00  0.00    +0.000 A 
ENDROOT
BRANCH   4   9
ATOM      9  C   UNL     1     -23.079   5.357 -55.426  0.00  0.00    +0.000 A 
ATOM     10  C   UNL     1     -23.300   4.199 -56.187  0.00  0.00    +0.000 A 
ATOM     11  C   UNL     1     -23.853   5.557 -54.277  0.00  0.00    +0.000 A 
ATOM     12  C   UNL     1     -25.013   3.451 -54.638  0.00  0.00    +0.000 A 
ATOM     13  C   UNL     1     -24.259   3.255 -55.798  0.00  0.00    +0.000 A 
ATOM     14  C   UNL     1     -24.800   4.608 -53.879  0.00  0.00    +0.000 A 
ATOM     15  C   UNL     1     -26.053   2.461 -54.205  0.00  0.00    +0.000 C 
ENDBRANCH   4   9
BRANCH   5  17
ATOM     16  N   UNL     1     -23.864   9.099 -54.898  0.00  0.00    +0.000 NA
ATOM     17  C   UNL     1     -23.467   8.496 -55.980  0.00  0.00    +0.000 C 
BRANCH  16  18
ATOM     18  O   UNL     1     -22.899   9.032 -53.883  0.00  0.00    +0.000 OA
BRANCH  18  19
ATOM     19  C   UNL     1     -23.457   9.488 -52.652  0.00  0.00    +0.000 C 
BRANCH  19  22
ATOM     20 CL   UNL     1     -26.478   8.749 -52.362  0.00  0.00    +0.000 Cl
ATOM     21  F   UNL     1     -21.545   7.909 -51.319  0.00  0.00    +0.000 F 
ATOM     22  C   UNL     1     -23.828   8.273 -51.853  0.00  0.00    +0.000 A 
ATOM     23  C   UNL     1     -25.159   7.874 -51.667  0.00  0.00    +0.000 A 
ATOM     24  C   UNL     1     -22.830   7.537 -51.207  0.00  0.00    +0.000 A 
ATOM     25  C   UNL     1     -25.467   6.749 -50.895  0.00  0.00    +0.000 A 
ATOM     26  C   UNL     1     -23.127   6.416 -50.432  0.00  0.00    +0.000 A 
ATOM     27  C   UNL     1     -24.451   6.016 -50.282  0.00  0.00    +0.000 A 
ENDBRANCH  19  22
ENDBRANCH  18  19
ENDBRANCH  16  18
ENDBRANCH   5  17
TORSDOF 5
ENDMDL
MODEL 6
REMARK VINA RESULT:      -5.3     14.926     18.548
REMARK  Name = 3810507
REMARK  6 active torsions:
REMARK  status: ('A' for Active; 'I' for Inactive)
REMARK    1  A    between atoms: O_4  and  N_7
REMARK    2  A    between atoms: O_4  and  C_22
REMARK    3  A    between atoms: C_8  and  C_10
REMARK    4  A    between atoms: C_9  and  C_15
REMARK    5  A    between atoms: C_16  and  C_20
REMARK    6  A    between atoms: C_21  and  C_22
REMARK                            x       y       z     vdW  Elec       q    Type
REMARK                         _______ _______ _______ _____ _____    ______ ____
ROOT
ATOM      1  S   UNL     1     -13.093 -11.116 -45.963  0.00  0.00    +0.000 S 
ATOM      2  N   UNL     1     -13.544  -8.618 -45.555  0.00  0.00    +0.000 N 
ATOM      3  N   UNL     1     -11.338  -8.945 -45.669  0.00  0.00    +0.000 NA
ATOM      4  C   UNL     1     -11.619  -7.608 -45.418  0.00  0.00    +0.000 A 
ATOM      5  C   UNL     1     -12.998  -7.373 -45.348  0.00  0.00    +0.000 A 
ATOM      6  C   UNL     1     -12.515  -9.497 -45.707  0.00  0.00    +0.000 A 
ATOM      7  C   UNL     1     -14.802  -9.175 -45.674  0.00  0.00    +0.000 A 
ATOM      8  C   UNL     1     -14.748 -10.503 -45.868  0.00  0.00    +0.000 A 
ENDROOT
BRANCH   4   9
ATOM      9  C   UNL     1     -10.551  -6.631 -45.248  0.00  0.00    +0.000 A 
ATOM     10  C   UNL     1     -10.255  -6.151 -43.964  0.00  0.00    +0.000 A 
ATOM     11  C   UNL     1      -9.826  -6.124 -46.333  0.00  0.00    +0.000 A 
ATOM     12  C   UNL     1      -8.512  -4.713 -44.851  0.00  0.00    +0.000 A 
ATOM     13  C   UNL     1      -9.247  -5.199 -43.766  0.00  0.00    +0.000 A 
ATOM     14  C   UNL     1      -8.808  -5.185 -46.135  0.00  0.00    +0.000 A 
ATOM     15  C   UNL     1      -7.435  -3.687 -44.668  0.00  0.00    +0.000 C 
ENDBRANCH   4   9
BRANCH   5  17
ATOM     16  N   UNL     1     -14.277  -5.691 -44.101  0.00  0.00    +0.000 NA
ATOM     17  C   UNL     1     -13.724  -6.144 -45.189  0.00  0.00    +0.000 C 
BRANCH  16  18
ATOM     18  O   UNL     1     -13.936  -6.465 -42.984  0.00  0.00    +0.000 OA
BRANCH  18  19
ATOM     19  C   UNL     1     -14.921  -6.309 -41.965  0.00  0.00    +0.000 C 
BRANCH  19  22
ATOM     20 CL   UNL     1     -13.763  -8.066 -39.657  0.00  0.00    +0.000 Cl
ATOM     21  F   UNL     1     -16.984  -7.366 -43.562  0.00  0.00    +0.000 F 
ATOM     22  C   UNL     1     -15.524  -7.661 -41.716  0.00  0.00    +0.000 A 
ATOM     23  C   UNL     1     -15.060  -8.515 -40.706  0.00  0.00    +0.000 A 
ATOM     24  C   UNL     1     -16.541  -8.132 -42.553  0.00  0.00    +0.000 A 
ATOM     25  C   UNL     1     -15.632  -9.779 -40.521  0.00  0.00    +0.000 A 
ATOM     26  C   UNL     1     -17.114  -9.391 -42.378  0.00  0.00    +0.000 A 
ATOM     27  C   UNL     1     -16.663 -10.215 -41.352  0.00  0.00    +0.000 A 
ENDBRANCH  19  22
ENDBRANCH  18  19
ENDBRANCH  16  18
ENDBRANCH   5  17
TORSDOF 5
ENDMDL
MODEL 7
REMARK VINA RESULT:      -5.3      4.239      5.991
REMARK  Name = 3810507
REMARK  6 active torsions:
REMARK  status: ('A' for Active; 'I' for Inactive)
REMARK    1  A    between atoms: O_4  and  N_7
REMARK    2  A    between atoms: O_4  and  C_22
REMARK    3  A    between atoms: C_8  and  C_10
REMARK    4  A    between atoms: C_9  and  C_15
REMARK    5  A    between atoms: C_16  and  C_20
REMARK    6  A    between atoms: C_21  and  C_22
REMARK                            x       y       z     vdW  Elec       q    Type
REMARK                         _______ _______ _______ _____ _____    ______ ____
ROOT
ATOM      1  S   UNL     1       1.144   6.139 -60.081  0.00  0.00    +0.000 S 
ATOM      2  N   UNL     1      -1.343   6.786 -59.986  0.00  0.00    +0.000 N 
ATOM      3  N   UNL     1      -0.843   5.567 -58.182  0.00  0.00    +0.000 NA
ATOM      4  C   UNL     1      -2.189   5.910 -58.180  0.00  0.00    +0.000 A 
ATOM      5  C   UNL     1      -2.529   6.681 -59.298  0.00  0.00    +0.000 A 
ATOM      6  C   UNL     1      -0.403   6.086 -59.291  0.00  0.00    +0.000 A 
ATOM      7  C   UNL     1      -0.872   7.411 -61.123  0.00  0.00    +0.000 A 
ATOM      8  C   UNL     1       0.428   7.152 -61.340  0.00  0.00    +0.000 A 
ENDROOT
BRANCH   4   9
ATOM      9  C   UNL     1      -3.078   5.469 -57.113  0.00  0.00    +0.000 A 
ATOM     10  C   UNL     1      -3.309   6.313 -56.017  0.00  0.00    +0.000 A 
ATOM     11  C   UNL     1      -3.689   4.209 -57.124  0.00  0.00    +0.000 A 
ATOM     12  C   UNL     1      -4.767   4.664 -54.993  0.00  0.00    +0.000 A 
ATOM     13  C   UNL     1      -4.144   5.914 -54.965  0.00  0.00    +0.000 A 
ATOM     14  C   UNL     1      -4.535   3.816 -56.082  0.00  0.00    +0.000 A 
ATOM     15  C   UNL     1      -5.658   4.209 -53.876  0.00  0.00    +0.000 C 
ENDBRANCH   4   9
BRANCH   5  17
ATOM     16  N   UNL     1      -4.762   6.782 -60.311  0.00  0.00    +0.000 NA
ATOM     17  C   UNL     1      -3.771   7.309 -59.651  0.00  0.00    +0.000 C 
BRANCH  16  18
ATOM     18  O   UNL     1      -4.578   5.408 -60.512  0.00  0.00    +0.000 OA
BRANCH  18  19
ATOM     19  C   UNL     1      -5.764   4.701 -60.154  0.00  0.00    +0.000 C 
BRANCH  19  22
ATOM     20 CL   UNL     1      -5.292   1.764 -59.200  0.00  0.00    +0.000 Cl
ATOM     21  F   UNL     1      -6.392   5.159 -62.859  0.00  0.00    +0.000 F 
ATOM     22  C   UNL     1      -5.935   3.586 -61.143  0.00  0.00    +0.000 A 
ATOM     23  C   UNL     1      -5.737   2.241 -60.801  0.00  0.00    +0.000 A 
ATOM     24  C   UNL     1      -6.239   3.882 -62.476  0.00  0.00    +0.000 A 
ATOM     25  C   UNL     1      -5.882   1.231 -61.758  0.00  0.00    +0.000 A 
ATOM     26  C   UNL     1      -6.382   2.883 -63.437  0.00  0.00    +0.000 A 
ATOM     27  C   UNL     1      -6.211   1.551 -63.075  0.00  0.00    +0.000 A 
ENDBRANCH  19  22
ENDBRANCH  18  19
ENDBRANCH  16  18
ENDBRANCH   5  17
TORSDOF 5
ENDMDL
MODEL 8
REMARK VINA RESULT:      -5.3     17.512     18.852
REMARK  Name = 3810507
REMARK  6 active torsions:
REMARK  status: ('A' for Active; 'I' for Inactive)
REMARK    1  A    between atoms: O_4  and  N_7
REMARK    2  A    between atoms: O_4  and  C_22
REMARK    3  A    between atoms: C_8  and  C_10
REMARK    4  A    between atoms: C_9  and  C_15
REMARK    5  A    between atoms: C_16  and  C_20
REMARK    6  A    between atoms: C_21  and  C_22
REMARK                            x       y       z     vdW  Elec       q    Type
REMARK                         _______ _______ _______ _____ _____    ______ ____
ROOT
ATOM      1  S   UNL     1     -23.646   8.299 -49.603  0.00  0.00    +0.000 S 
ATOM      2  N   UNL     1     -24.403   8.281 -52.060  0.00  0.00    +0.000 N 
ATOM      3  N   UNL     1     -22.261   7.659 -51.959  0.00  0.00    +0.000 NA
ATOM      4  C   UNL     1     -22.696   7.691 -53.277  0.00  0.00    +0.000 A 
ATOM      5  C   UNL     1     -24.040   8.072 -53.369  0.00  0.00    +0.000 A 
ATOM      6  C   UNL     1     -23.305   8.049 -51.288  0.00  0.00    +0.000 A 
ATOM      7  C   UNL     1     -25.543   8.617 -51.356  0.00  0.00    +0.000 A 
ATOM      8  C   UNL     1     -25.314   8.697 -50.034  0.00  0.00    +0.000 A 
ENDROOT
BRANCH   4   9
ATOM      9  C   UNL     1     -21.797   7.366 -54.377  0.00  0.00    +0.000 A 
ATOM     10  C   UNL     1     -20.665   8.164 -54.599  0.00  0.00    +0.000 A 
ATOM     11  C   UNL     1     -22.042   6.299 -55.249  0.00  0.00    +0.000 A 
ATOM     12  C   UNL     1     -20.028   6.810 -56.511  0.00  0.00    +0.000 A 
ATOM     13  C   UNL     1     -19.789   7.891 -55.658  0.00  0.00    +0.000 A 
ATOM     14  C   UNL     1     -21.160   6.015 -56.297  0.00  0.00    +0.000 A 
ATOM     15  C   UNL     1     -19.111   6.502 -57.657  0.00  0.00    +0.000 C 
ENDBRANCH   4   9
BRANCH   5  17
ATOM     16  N   UNL     1     -24.936   9.100 -55.410  0.00  0.00    +0.000 NA
ATOM     17  C   UNL     1     -24.906   8.158 -54.513  0.00  0.00    +0.000 C 
BRANCH  16  18
ATOM     18  O   UNL     1     -23.869   9.996 -55.257  0.00  0.00    +0.000 OA
BRANCH  18  19
ATOM     19  C   UNL     1     -23.797  10.863 -56.387  0.00  0.00    +0.000 C 
BRANCH  19  22
ATOM     20 CL   UNL     1     -21.599  12.801 -55.304  0.00  0.00    +0.000 Cl
ATOM     21  F   UNL     1     -23.116   9.059 -58.437  0.00  0.00    +0.000 F 
ATOM     22  C   UNL     1     -22.406  10.758 -56.941  0.00  0.00    +0.000 A 
ATOM     23  C   UNL     1     -21.363  11.593 -56.516  0.00  0.00    +0.000 A 
ATOM     24  C   UNL     1     -22.136   9.846 -57.967  0.00  0.00    +0.000 A 
ATOM     25  C   UNL     1     -20.085  11.481 -57.076  0.00  0.00    +0.000 A 
ATOM     26  C   UNL     1     -20.867   9.730 -58.532  0.00  0.00    +0.000 A 
ATOM     27  C   UNL     1     -19.835  10.545 -58.079  0.00  0.00    +0.000 A 
ENDBRANCH  19  22
ENDBRANCH  18  19
ENDBRANCH  16  18
ENDBRANCH   5  17
TORSDOF 5
ENDMDL
MODEL 9
REMARK VINA RESULT:      -5.2     11.872     13.753
REMARK  Name = 3810507
REMARK  6 active torsions:
REMARK  status: ('A' for Active; 'I' for Inactive)
REMARK    1  A    between atoms: O_4  and  N_7
REMARK    2  A    between atoms: O_4  and  C_22
REMARK    3  A    between atoms: C_8  and  C_10
REMARK    4  A    between atoms: C_9  and  C_15
REMARK    5  A    between atoms: C_16  and  C_20
REMARK    6  A    between atoms: C_21  and  C_22
REMARK                            x       y       z     vdW  Elec       q    Type
REMARK                         _______ _______ _______ _____ _____    ______ ____
ROOT
ATOM      1  S   UNL     1     -16.409  13.138 -59.278  0.00  0.00    +0.000 S 
ATOM      2  N   UNL     1     -14.134  11.967 -59.529  0.00  0.00    +0.000 N 
ATOM      3  N   UNL     1     -14.143  13.128 -57.621  0.00  0.00    +0.000 NA
ATOM      4  C   UNL     1     -12.916  12.505 -57.806  0.00  0.00    +0.000 A 
ATOM      5  C   UNL     1     -12.885  11.763 -58.993  0.00  0.00    +0.000 A 
ATOM      6  C   UNL     1     -14.810  12.799 -58.689  0.00  0.00    +0.000 A 
ATOM      7  C   UNL     1     -14.858  11.542 -60.626  0.00  0.00    +0.000 A 
ATOM      8  C   UNL     1     -16.084  12.090 -60.664  0.00  0.00    +0.000 A 
ENDROOT
BRANCH   4   9
ATOM      9  C   UNL     1     -11.836  12.665 -56.840  0.00  0.00    +0.000 A 
ATOM     10  C   UNL     1     -10.970  11.590 -56.592  0.00  0.00    +0.000 A 
ATOM     11  C   UNL     1     -11.652  13.850 -56.118  0.00  0.00    +0.000 A 
ATOM     12  C   UNL     1      -9.741  12.897 -54.956  0.00  0.00    +0.000 A 
ATOM     13  C   UNL     1      -9.933  11.703 -55.657  0.00  0.00    +0.000 A 
ATOM     14  C   UNL     1     -10.607  13.970 -55.196  0.00  0.00    +0.000 A 
ATOM     15  C   UNL     1      -8.644  13.040 -53.943  0.00  0.00    +0.000 C 
ENDBRANCH   4   9
BRANCH   5  17
ATOM     16  N   UNL     1     -10.861  11.258 -60.285  0.00  0.00    +0.000 NA
ATOM     17  C   UNL     1     -11.861  10.910 -59.529  0.00  0.00    +0.000 C 
BRANCH  16  18
ATOM     18  O   UNL     1     -10.758  12.651 -60.400  0.00  0.00    +0.000 OA
BRANCH  18  19
ATOM     19  C   UNL     1      -9.387  13.030 -60.502  0.00  0.00    +0.000 C 
BRANCH  19  22
ATOM     20 CL   UNL     1     -10.775  15.821 -60.704  0.00  0.00    +0.000 Cl
ATOM     21  F   UNL     1      -7.611  12.556 -58.371  0.00  0.00    +0.000 F 
ATOM     22  C   UNL     1      -9.124  14.046 -59.429  0.00  0.00    +0.000 A 
ATOM     23  C   UNL     1      -9.700  15.324 -59.446  0.00  0.00    +0.000 A 
ATOM     24  C   UNL     1      -8.222  13.750 -58.402  0.00  0.00    +0.000 A 
ATOM     25  C   UNL     1      -9.410  16.251 -58.440  0.00  0.00    +0.000 A 
ATOM     26  C   UNL     1      -7.924  14.670 -57.397  0.00  0.00    +0.000 A 
ATOM     27  C   UNL     1      -8.527  15.923 -57.411  0.00  0.00    +0.000 A 
ENDBRANCH  19  22
ENDBRANCH  18  19
ENDBRANCH  16  18
ENDBRANCH   5  17
TORSDOF 5
ENDMDL
MODEL 10
REMARK VINA RESULT:      -5.2     17.409     18.856
REMARK  Name = 3810507
REMARK  6 active torsions:
REMARK  status: ('A' for Active; 'I' for Inactive)
REMARK    1  A    between atoms: O_4  and  N_7
REMARK    2  A    between atoms: O_4  and  C_22
REMARK    3  A    between atoms: C_8  and  C_10
REMARK    4  A    between atoms: C_9  and  C_15
REMARK    5  A    between atoms: C_16  and  C_20
REMARK    6  A    between atoms: C_21  and  C_22
REMARK                            x       y       z     vdW  Elec       q    Type
REMARK                         _______ _______ _______ _____ _____    ______ ____
ROOT
ATOM      1  S   UNL     1     -24.847   6.976 -50.676  0.00  0.00    +0.000 S 
ATOM      2  N   UNL     1     -24.818   6.126 -53.102  0.00  0.00    +0.000 N 
ATOM      3  N   UNL     1     -22.854   7.087 -52.650  0.00  0.00    +0.000 NA
ATOM      4  C   UNL     1     -22.886   6.641 -53.965  0.00  0.00    +0.000 A 
ATOM      5  C   UNL     1     -24.106   6.028 -54.274  0.00  0.00    +0.000 A 
ATOM      6  C   UNL     1     -24.036   6.782 -52.200  0.00  0.00    +0.000 A 
ATOM      7  C   UNL     1     -26.047   5.724 -52.615  0.00  0.00    +0.000 A 
ATOM      8  C   UNL     1     -26.238   6.116 -51.345  0.00  0.00    +0.000 A 
ENDROOT
BRANCH   4   9
ATOM      9  C   UNL     1     -21.751   6.839 -54.856  0.00  0.00    +0.000 A 
ATOM     10  C   UNL     1     -21.384   5.815 -55.742  0.00  0.00    +0.000 A 
ATOM     11  C   UNL     1     -20.983   8.010 -54.837  0.00  0.00    +0.000 A 
ATOM     12  C   UNL     1     -19.539   7.144 -56.591  0.00  0.00    +0.000 A 
ATOM     13  C   UNL     1     -20.287   5.964 -56.600  0.00  0.00    +0.000 A 
ATOM     14  C   UNL     1     -19.897   8.167 -55.705  0.00  0.00    +0.000 A 
ATOM     15  C   UNL     1     -18.355   7.326 -57.493  0.00  0.00    +0.000 C 
ENDBRANCH   4   9
BRANCH   5  17
ATOM     16  N   UNL     1     -24.993   5.917 -56.559  0.00  0.00    +0.000 NA
ATOM     17  C   UNL     1     -24.535   5.364 -55.474  0.00  0.00    +0.000 C 
BRANCH  16  18
ATOM     18  O   UNL     1     -24.862   7.312 -56.526  0.00  0.00    +0.000 OA
BRANCH  18  19
ATOM     19  C   UNL     1     -24.943   7.839 -57.848  0.00  0.00    +0.000 C 
BRANCH  19  22
ATOM     20 CL   UNL     1     -22.813   6.301 -59.538  0.00  0.00    +0.000 Cl
ATOM     21  F   UNL     1     -24.292  10.389 -56.850  0.00  0.00    +0.000 F 
ATOM     22  C   UNL     1     -23.634   8.511 -58.142  0.00  0.00    +0.000 A 
ATOM     23  C   UNL     1     -22.621   7.890 -58.886  0.00  0.00    +0.000 A 
ATOM     24  C   UNL     1     -23.369   9.776 -57.607  0.00  0.00    +0.000 A 
ATOM     25  C   UNL     1     -21.404   8.540 -59.118  0.00  0.00    +0.000 A 
ATOM     26  C   UNL     1     -22.158  10.430 -57.830  0.00  0.00    +0.000 A 
ATOM     27  C   UNL     1     -21.174   9.813 -58.596  0.00  0.00    +0.000 A 
ENDBRANCH  19  22
ENDBRANCH  18  19
ENDBRANCH  16  18
ENDBRANCH   5  17
TORSDOF 5
ENDMDL
