MODEL 1
REMARK VINA RESULT:      -4.2      0.000      0.000
REMARK  Name = 3811512
REMARK  7 active torsions:
REMARK  status: ('A' for Active; 'I' for Inactive)
REMARK    1  A    between atoms: S_4  and  C_11
REMARK    2  A    between atoms: S_4  and  C_14
REMARK    3  A    between atoms: O_6  and  N_9
REMARK    4  A    between atoms: O_6  and  C_21
REMARK    5  A    between atoms: C_10  and  C_16
REMARK    6  A    between atoms: C_14  and  C_15
REMARK    7  A    between atoms: C_20  and  C_21
REMARK                            x       y       z     vdW  Elec       q    Type
REMARK                         _______ _______ _______ _____ _____    ______ ____
ROOT
ATOM      1  S   UNL     1     -19.306  17.945 -50.036  0.00  0.00    +0.000 S 
ATOM      2  N   UNL     1     -19.373  16.509 -47.895  0.00  0.00    +0.000 N 
ATOM      3  N   UNL     1     -17.274  16.588 -48.672  0.00  0.00    +0.000 NA
ATOM      4  C   UNL     1     -18.640  15.761 -47.003  0.00  0.00    +0.000 A 
ATOM      5  C   UNL     1     -17.352  15.794 -47.552  0.00  0.00    +0.000 A 
ATOM      6  C   UNL     1     -18.500  16.995 -48.825  0.00  0.00    +0.000 A 
ATOM      7  C   UNL     1     -20.696  16.836 -48.135  0.00  0.00    +0.000 A 
ATOM      8  C   UNL     1     -20.839  17.604 -49.230  0.00  0.00    +0.000 A 
ENDROOT
BRANCH   4  10
ATOM      9  N   UNL     1     -19.230  15.396 -44.617  0.00  0.00    +0.000 NA
ATOM     10  C   UNL     1     -19.082  15.023 -45.854  0.00  0.00    +0.000 C 
BRANCH   9  11
ATOM     11  O   UNL     1     -18.766  16.687 -44.338  0.00  0.00    +0.000 OA
BRANCH  11  12
ATOM     12  C   UNL     1     -17.632  16.570 -43.467  0.00  0.00    +0.000 C 
BRANCH  12  15
ATOM     13 CL   UNL     1     -13.278  18.877 -41.875  0.00  0.00    +0.000 Cl
ATOM     14 CL   UNL     1     -13.162  20.466 -44.713  0.00  0.00    +0.000 Cl
ATOM     15  C   UNL     1     -16.525  17.545 -43.807  0.00  0.00    +0.000 A 
ATOM     16  C   UNL     1     -15.523  17.778 -42.852  0.00  0.00    +0.000 A 
ATOM     17  C   UNL     1     -16.450  18.217 -45.034  0.00  0.00    +0.000 A 
ATOM     18  C   UNL     1     -14.470  18.667 -43.107  0.00  0.00    +0.000 A 
ATOM     19  C   UNL     1     -15.402  19.108 -45.291  0.00  0.00    +0.000 A 
ATOM     20  C   UNL     1     -14.415  19.339 -44.332  0.00  0.00    +0.000 A 
ENDBRANCH  12  15
ENDBRANCH  11  12
ENDBRANCH   9  11
ENDBRANCH   4  10
BRANCH   5  21
ATOM     21  S   UNL     1     -15.951  14.909 -46.965  0.00  0.00    +0.000 S 
BRANCH  21  22
ATOM     22  C   UNL     1     -14.594  15.891 -47.671  0.00  0.00    +0.000 C 
BRANCH  22  24
ATOM     23 CL   UNL     1     -10.390  17.293 -43.562  0.00  0.00    +0.000 Cl
ATOM     24  C   UNL     1     -13.553  16.258 -46.634  0.00  0.00    +0.000 A 
ATOM     25  C   UNL     1     -13.592  15.693 -45.348  0.00  0.00    +0.000 A 
ATOM     26  C   UNL     1     -12.525  17.166 -46.942  0.00  0.00    +0.000 A 
ATOM     27  C   UNL     1     -12.615  16.014 -44.399  0.00  0.00    +0.000 A 
ATOM     28  C   UNL     1     -11.550  17.486 -45.991  0.00  0.00    +0.000 A 
ATOM     29  C   UNL     1     -11.598  16.906 -44.726  0.00  0.00    +0.000 A 
ENDBRANCH  22  24
ENDBRANCH  21  22
ENDBRANCH   5  21
TORSDOF 7
ENDMDL
MODEL 2
REMARK VINA RESULT:      -4.2     14.389     16.327
REMARK  Name = 3811512
REMARK  7 active torsions:
REMARK  status: ('A' for Active; 'I' for Inactive)
REMARK    1  A    between atoms: S_4  and  C_11
REMARK    2  A    between atoms: S_4  and  C_14
REMARK    3  A    between atoms: O_6  and  N_9
REMARK    4  A    between atoms: O_6  and  C_21
REMARK    5  A    between atoms: C_10  and  C_16
REMARK    6  A    between atoms: C_14  and  C_15
REMARK    7  A    between atoms: C_20  and  C_21
REMARK                            x       y       z     vdW  Elec       q    Type
REMARK                         _______ _______ _______ _____ _____    ______ ____
ROOT
ATOM      1  S   UNL     1     -13.381  10.334 -30.650  0.00  0.00    +0.000 S 
ATOM      2  N   UNL     1     -14.427   8.122 -31.464  0.00  0.00    +0.000 N 
ATOM      3  N   UNL     1     -13.311   9.082 -33.152  0.00  0.00    +0.000 NA
ATOM      4  C   UNL     1     -14.583   7.259 -32.524  0.00  0.00    +0.000 A 
ATOM      5  C   UNL     1     -13.918   7.918 -33.565  0.00  0.00    +0.000 A 
ATOM      6  C   UNL     1     -13.638   9.149 -31.894  0.00  0.00    +0.000 A 
ATOM      7  C   UNL     1     -14.881   8.262 -30.164  0.00  0.00    +0.000 A 
ATOM      8  C   UNL     1     -14.412   9.380 -29.581  0.00  0.00    +0.000 A 
ENDROOT
BRANCH   4  10
ATOM      9  N   UNL     1     -16.502   5.797 -33.119  0.00  0.00    +0.000 NA
ATOM     10  C   UNL     1     -15.334   6.037 -32.601  0.00  0.00    +0.000 C 
BRANCH   9  11
ATOM     11  O   UNL     1     -17.190   6.933 -33.559  0.00  0.00    +0.000 OA
BRANCH  11  12
ATOM     12  C   UNL     1     -18.485   6.932 -32.942  0.00  0.00    +0.000 C 
BRANCH  12  15
ATOM     13 CL   UNL     1     -23.524   7.590 -33.940  0.00  0.00    +0.000 Cl
ATOM     14 CL   UNL     1     -22.724   9.858 -36.132  0.00  0.00    +0.000 Cl
ATOM     15  C   UNL     1     -19.523   7.682 -33.750  0.00  0.00    +0.000 A 
ATOM     16  C   UNL     1     -20.878   7.372 -33.550  0.00  0.00    +0.000 A 
ATOM     17  C   UNL     1     -19.194   8.678 -34.679  0.00  0.00    +0.000 A 
ATOM     18  C   UNL     1     -21.886   8.032 -34.265  0.00  0.00    +0.000 A 
ATOM     19  C   UNL     1     -20.198   9.337 -35.397  0.00  0.00    +0.000 A 
ATOM     20  C   UNL     1     -21.542   9.015 -35.197  0.00  0.00    +0.000 A 
ENDBRANCH  12  15
ENDBRANCH  11  12
ENDBRANCH   9  11
ENDBRANCH   4  10
BRANCH   5  21
ATOM     21  S   UNL     1     -13.859   7.410 -35.246  0.00  0.00    +0.000 S 
BRANCH  21  22
ATOM     22  C   UNL     1     -12.238   8.057 -35.753  0.00  0.00    +0.000 C 
BRANCH  22  24
ATOM     23 CL   UNL     1      -8.295   3.679 -37.097  0.00  0.00    +0.000 Cl
ATOM     24  C   UNL     1     -11.255   6.950 -36.072  0.00  0.00    +0.000 A 
ATOM     25  C   UNL     1     -11.684   5.768 -36.699  0.00  0.00    +0.000 A 
ATOM     26  C   UNL     1      -9.893   7.089 -35.750  0.00  0.00    +0.000 A 
ATOM     27  C   UNL     1     -10.769   4.757 -37.014  0.00  0.00    +0.000 A 
ATOM     28  C   UNL     1      -8.981   6.077 -36.066  0.00  0.00    +0.000 A 
ATOM     29  C   UNL     1      -9.422   4.918 -36.700  0.00  0.00    +0.000 A 
ENDBRANCH  22  24
ENDBRANCH  21  22
ENDBRANCH   5  21
TORSDOF 7
ENDMDL
MODEL 3
REMARK VINA RESULT:      -4.2     17.663     19.870
REMARK  Name = 3811512
REMARK  7 active torsions:
REMARK  status: ('A' for Active; 'I' for Inactive)
REMARK    1  A    between atoms: S_4  and  C_11
REMARK    2  A    between atoms: S_4  and  C_14
REMARK    3  A    between atoms: O_6  and  N_9
REMARK    4  A    between atoms: O_6  and  C_21
REMARK    5  A    between atoms: C_10  and  C_16
REMARK    6  A    between atoms: C_14  and  C_15
REMARK    7  A    between atoms: C_20  and  C_21
REMARK                            x       y       z     vdW  Elec       q    Type
REMARK                         _______ _______ _______ _____ _____    ______ ____
ROOT
ATOM      1  S   UNL     1     -15.319   4.591 -32.430  0.00  0.00    +0.000 S 
ATOM      2  N   UNL     1     -13.937   2.490 -33.003  0.00  0.00    +0.000 N 
ATOM      3  N   UNL     1     -13.016   4.278 -33.989  0.00  0.00    +0.000 NA
ATOM      4  C   UNL     1     -12.839   1.998 -33.669  0.00  0.00    +0.000 A 
ATOM      5  C   UNL     1     -12.326   3.132 -34.309  0.00  0.00    +0.000 A 
ATOM      6  C   UNL     1     -13.956   3.841 -33.203  0.00  0.00    +0.000 A 
ATOM      7  C   UNL     1     -15.011   2.010 -32.275  0.00  0.00    +0.000 A 
ATOM      8  C   UNL     1     -15.840   2.995 -31.883  0.00  0.00    +0.000 A 
ENDROOT
BRANCH   4  10
ATOM      9  N   UNL     1     -11.410   0.023 -33.182  0.00  0.00    +0.000 NA
ATOM     10  C   UNL     1     -12.379   0.642 -33.789  0.00  0.00    +0.000 C 
BRANCH   9  11
ATOM     11  O   UNL     1     -10.610   0.841 -32.376  0.00  0.00    +0.000 OA
BRANCH  11  12
ATOM     12  C   UNL     1      -9.585   0.023 -31.795  0.00  0.00    +0.000 C 
BRANCH  12  15
ATOM     13 CL   UNL     1      -6.537   3.680 -33.830  0.00  0.00    +0.000 Cl
ATOM     14 CL   UNL     1      -4.222   2.841 -31.702  0.00  0.00    +0.000 Cl
ATOM     15  C   UNL     1      -8.238   0.712 -31.746  0.00  0.00    +0.000 A 
ATOM     16  C   UNL     1      -7.980   1.742 -32.666  0.00  0.00    +0.000 A 
ATOM     17  C   UNL     1      -7.243   0.377 -30.819  0.00  0.00    +0.000 A 
ATOM     18  C   UNL     1      -6.755   2.420 -32.669  0.00  0.00    +0.000 A 
ATOM     19  C   UNL     1      -6.016   1.050 -30.823  0.00  0.00    +0.000 A 
ATOM     20  C   UNL     1      -5.766   2.067 -31.746  0.00  0.00    +0.000 A 
ENDBRANCH  12  15
ENDBRANCH  11  12
ENDBRANCH   9  11
ENDBRANCH   4  10
BRANCH   5  21
ATOM     21  S   UNL     1     -10.987   3.165 -35.447  0.00  0.00    +0.000 S 
BRANCH  21  22
ATOM     22  C   UNL     1     -10.812   4.952 -35.733  0.00  0.00    +0.000 C 
BRANCH  22  24
ATOM     23 CL   UNL     1      -5.228   6.400 -37.536  0.00  0.00    +0.000 Cl
ATOM     24  C   UNL     1      -9.421   5.323 -36.203  0.00  0.00    +0.000 A 
ATOM     25  C   UNL     1      -8.897   6.602 -35.951  0.00  0.00    +0.000 A 
ATOM     26  C   UNL     1      -8.628   4.391 -36.894  0.00  0.00    +0.000 A 
ATOM     27  C   UNL     1      -7.602   6.935 -36.365  0.00  0.00    +0.000 A 
ATOM     28  C   UNL     1      -7.333   4.726 -37.307  0.00  0.00    +0.000 A 
ATOM     29  C   UNL     1      -6.825   5.995 -37.037  0.00  0.00    +0.000 A 
ENDBRANCH  22  24
ENDBRANCH  21  22
ENDBRANCH   5  21
TORSDOF 7
ENDMDL
MODEL 4
REMARK VINA RESULT:      -4.1     12.794     15.120
REMARK  Name = 3811512
REMARK  7 active torsions:
REMARK  status: ('A' for Active; 'I' for Inactive)
REMARK    1  A    between atoms: S_4  and  C_11
REMARK    2  A    between atoms: S_4  and  C_14
REMARK    3  A    between atoms: O_6  and  N_9
REMARK    4  A    between atoms: O_6  and  C_21
REMARK    5  A    between atoms: C_10  and  C_16
REMARK    6  A    between atoms: C_14  and  C_15
REMARK    7  A    between atoms: C_20  and  C_21
REMARK                            x       y       z     vdW  Elec       q    Type
REMARK                         _______ _______ _______ _____ _____    ______ ____
ROOT
ATOM      1  S   UNL     1     -11.091  16.703 -55.959  0.00  0.00    +0.000 S 
ATOM      2  N   UNL     1     -10.816  14.141 -55.859  0.00  0.00    +0.000 N 
ATOM      3  N   UNL     1     -10.469  14.846 -57.957  0.00  0.00    +0.000 NA
ATOM      4  C   UNL     1     -10.528  12.999 -56.570  0.00  0.00    +0.000 A 
ATOM      5  C   UNL     1     -10.371  13.475 -57.877  0.00  0.00    +0.000 A 
ATOM      6  C   UNL     1     -10.724  15.190 -56.729  0.00  0.00    +0.000 A 
ATOM      7  C   UNL     1     -11.216  14.496 -54.583  0.00  0.00    +0.000 A 
ATOM      8  C   UNL     1     -11.397  15.824 -54.459  0.00  0.00    +0.000 A 
ENDROOT
BRANCH   4  10
ATOM      9  N   UNL     1     -11.461  10.754 -56.054  0.00  0.00    +0.000 NA
ATOM     10  C   UNL     1     -10.506  11.632 -56.129  0.00  0.00    +0.000 C 
BRANCH   9  11
ATOM     11  O   UNL     1     -12.738  11.257 -56.329  0.00  0.00    +0.000 OA
BRANCH  11  12
ATOM     12  C   UNL     1     -13.139  10.765 -57.615  0.00  0.00    +0.000 C 
BRANCH  12  15
ATOM     13 CL   UNL     1     -14.645  15.564 -58.847  0.00  0.00    +0.000 Cl
ATOM     14 CL   UNL     1     -17.328  14.306 -60.190  0.00  0.00    +0.000 Cl
ATOM     15  C   UNL     1     -14.200  11.625 -58.269  0.00  0.00    +0.000 A 
ATOM     16  C   UNL     1     -14.019  13.018 -58.280  0.00  0.00    +0.000 A 
ATOM     17  C   UNL     1     -15.348  11.094 -58.873  0.00  0.00    +0.000 A 
ATOM     18  C   UNL     1     -14.962  13.867 -58.872  0.00  0.00    +0.000 A 
ATOM     19  C   UNL     1     -16.294  11.940 -59.461  0.00  0.00    +0.000 A 
ATOM     20  C   UNL     1     -16.108  13.324 -59.460  0.00  0.00    +0.000 A 
ENDBRANCH  12  15
ENDBRANCH  11  12
ENDBRANCH   9  11
ENDBRANCH   4  10
BRANCH   5  21
ATOM     21  S   UNL     1     -10.121  12.496 -59.316  0.00  0.00    +0.000 S 
BRANCH  21  22
ATOM     22  C   UNL     1     -10.555  13.679 -60.626  0.00  0.00    +0.000 C 
BRANCH  22  24
ATOM     23 CL   UNL     1     -15.790  12.331 -63.329  0.00  0.00    +0.000 Cl
ATOM     24  C   UNL     1     -11.877  13.344 -61.285  0.00  0.00    +0.000 A 
ATOM     25  C   UNL     1     -12.713  14.362 -61.775  0.00  0.00    +0.000 A 
ATOM     26  C   UNL     1     -12.288  12.007 -61.423  0.00  0.00    +0.000 A 
ATOM     27  C   UNL     1     -13.923  14.048 -62.405  0.00  0.00    +0.000 A 
ATOM     28  C   UNL     1     -13.498  11.696 -62.053  0.00  0.00    +0.000 A 
ATOM     29  C   UNL     1     -14.307  12.717 -62.544  0.00  0.00    +0.000 A 
ENDBRANCH  22  24
ENDBRANCH  21  22
ENDBRANCH   5  21
TORSDOF 7
ENDMDL
MODEL 5
REMARK VINA RESULT:      -4.1     19.976     22.424
REMARK  Name = 3811512
REMARK  7 active torsions:
REMARK  status: ('A' for Active; 'I' for Inactive)
REMARK    1  A    between atoms: S_4  and  C_11
REMARK    2  A    between atoms: S_4  and  C_14
REMARK    3  A    between atoms: O_6  and  N_9
REMARK    4  A    between atoms: O_6  and  C_21
REMARK    5  A    between atoms: C_10  and  C_16
REMARK    6  A    between atoms: C_14  and  C_15
REMARK    7  A    between atoms: C_20  and  C_21
REMARK                            x       y       z     vdW  Elec       q    Type
REMARK                         _______ _______ _______ _____ _____    ______ ____
ROOT
ATOM      1  S   UNL     1       1.053   5.072 -60.853  0.00  0.00    +0.000 S 
ATOM      2  N   UNL     1      -0.523   6.637 -59.544  0.00  0.00    +0.000 N 
ATOM      3  N   UNL     1      -1.726   5.382 -60.957  0.00  0.00    +0.000 NA
ATOM      4  C   UNL     1      -1.827   7.027 -59.338  0.00  0.00    +0.000 A 
ATOM      5  C   UNL     1      -2.534   6.260 -60.272  0.00  0.00    +0.000 A 
ATOM      6  C   UNL     1      -0.544   5.642 -60.479  0.00  0.00    +0.000 A 
ATOM      7  C   UNL     1       0.747   7.002 -59.133  0.00  0.00    +0.000 A 
ATOM      8  C   UNL     1       1.703   6.263 -59.724  0.00  0.00    +0.000 A 
ENDROOT
BRANCH   4  10
ATOM      9  N   UNL     1      -2.694   7.995 -57.220  0.00  0.00    +0.000 NA
ATOM     10  C   UNL     1      -2.346   8.048 -58.472  0.00  0.00    +0.000 C 
BRANCH   9  11
ATOM     11  O   UNL     1      -2.678   6.710 -56.664  0.00  0.00    +0.000 OA
BRANCH  11  12
ATOM     12  C   UNL     1      -3.501   6.727 -55.489  0.00  0.00    +0.000 C 
BRANCH  12  15
ATOM     13 CL   UNL     1      -3.356   1.637 -56.430  0.00  0.00    +0.000 Cl
ATOM     14 CL   UNL     1      -5.707   1.229 -54.218  0.00  0.00    +0.000 Cl
ATOM     15  C   UNL     1      -4.068   5.365 -55.148  0.00  0.00    +0.000 A 
ATOM     16  C   UNL     1      -3.565   4.243 -55.826  0.00  0.00    +0.000 A 
ATOM     17  C   UNL     1      -5.062   5.173 -54.180  0.00  0.00    +0.000 A 
ATOM     18  C   UNL     1      -4.046   2.956 -55.554  0.00  0.00    +0.000 A 
ATOM     19  C   UNL     1      -5.547   3.889 -53.909  0.00  0.00    +0.000 A 
ATOM     20  C   UNL     1      -5.046   2.780 -54.594  0.00  0.00    +0.000 A 
ENDBRANCH  12  15
ENDBRANCH  11  12
ENDBRANCH   9  11
ENDBRANCH   4  10
BRANCH   5  21
ATOM     21  S   UNL     1      -4.252   6.379 -60.625  0.00  0.00    +0.000 S 
BRANCH  21  22
ATOM     22  C   UNL     1      -4.959   5.399 -59.267  0.00  0.00    +0.000 C 
BRANCH  22  24
ATOM     23 CL   UNL     1      -7.171   0.136 -61.250  0.00  0.00    +0.000 Cl
ATOM     24  C   UNL     1      -5.528   4.081 -59.749  0.00  0.00    +0.000 A 
ATOM     25  C   UNL     1      -6.585   4.052 -60.674  0.00  0.00    +0.000 A 
ATOM     26  C   UNL     1      -5.004   2.862 -59.282  0.00  0.00    +0.000 A 
ATOM     27  C   UNL     1      -7.093   2.832 -61.137  0.00  0.00    +0.000 A 
ATOM     28  C   UNL     1      -5.514   1.645 -59.746  0.00  0.00    +0.000 A 
ATOM     29  C   UNL     1      -6.553   1.636 -60.673  0.00  0.00    +0.000 A 
ENDBRANCH  22  24
ENDBRANCH  21  22
ENDBRANCH   5  21
TORSDOF 7
ENDMDL
MODEL 6
REMARK VINA RESULT:      -4.0     21.165     23.062
REMARK  Name = 3811512
REMARK  7 active torsions:
REMARK  status: ('A' for Active; 'I' for Inactive)
REMARK    1  A    between atoms: S_4  and  C_11
REMARK    2  A    between atoms: S_4  and  C_14
REMARK    3  A    between atoms: O_6  and  N_9
REMARK    4  A    between atoms: O_6  and  C_21
REMARK    5  A    between atoms: C_10  and  C_16
REMARK    6  A    between atoms: C_14  and  C_15
REMARK    7  A    between atoms: C_20  and  C_21
REMARK                            x       y       z     vdW  Elec       q    Type
REMARK                         _______ _______ _______ _____ _____    ______ ____
ROOT
ATOM      1  S   UNL     1      -9.407  -8.681 -47.187  0.00  0.00    +0.000 S 
ATOM      2  N   UNL     1      -9.184  -6.115 -47.313  0.00  0.00    +0.000 N 
ATOM      3  N   UNL     1      -7.280  -6.990 -46.522  0.00  0.00    +0.000 NA
ATOM      4  C   UNL     1      -8.362  -5.033 -47.101  0.00  0.00    +0.000 A 
ATOM      5  C   UNL     1      -7.209  -5.616 -46.562  0.00  0.00    +0.000 A 
ATOM      6  C   UNL     1      -8.470  -7.233 -46.988  0.00  0.00    +0.000 A 
ATOM      7  C   UNL     1     -10.493  -6.368 -47.684  0.00  0.00    +0.000 A 
ATOM      8  C   UNL     1     -10.777  -7.683 -47.680  0.00  0.00    +0.000 A 
ENDROOT
BRANCH   4  10
ATOM      9  N   UNL     1      -8.434  -2.853 -48.293  0.00  0.00    +0.000 NA
ATOM     10  C   UNL     1      -8.636  -3.634 -47.272  0.00  0.00    +0.000 C 
BRANCH   9  11
ATOM     11  O   UNL     1      -7.724  -3.441 -49.345  0.00  0.00    +0.000 OA
BRANCH  11  12
ATOM     12  C   UNL     1      -8.417  -3.145 -50.566  0.00  0.00    +0.000 C 
BRANCH  12  15
ATOM     13 CL   UNL     1      -7.979  -0.838 -55.181  0.00  0.00    +0.000 Cl
ATOM     14 CL   UNL     1      -5.814   1.210 -53.876  0.00  0.00    +0.000 Cl
ATOM     15  C   UNL     1      -7.754  -2.045 -51.367  0.00  0.00    +0.000 A 
ATOM     16  C   UNL     1      -8.081  -1.920 -52.728  0.00  0.00    +0.000 A 
ATOM     17  C   UNL     1      -6.839  -1.141 -50.812  0.00  0.00    +0.000 A 
ATOM     18  C   UNL     1      -7.504  -0.921 -53.522  0.00  0.00    +0.000 A 
ATOM     19  C   UNL     1      -6.258  -0.145 -51.605  0.00  0.00    +0.000 A 
ATOM     20  C   UNL     1      -6.584  -0.033 -52.958  0.00  0.00    +0.000 A 
ENDBRANCH  12  15
ENDBRANCH  11  12
ENDBRANCH   9  11
ENDBRANCH   4  10
BRANCH   5  21
ATOM     21  S   UNL     1      -5.807  -4.760 -45.938  0.00  0.00    +0.000 S 
BRANCH  21  22
ATOM     22  C   UNL     1      -5.863  -5.225 -44.181  0.00  0.00    +0.000 C 
BRANCH  22  24
ATOM     23 CL   UNL     1      -7.779  -0.737 -40.615  0.00  0.00    +0.000 Cl
ATOM     24  C   UNL     1      -6.351  -4.090 -43.305  0.00  0.00    +0.000 A 
ATOM     25  C   UNL     1      -7.663  -4.084 -42.804  0.00  0.00    +0.000 A 
ATOM     26  C   UNL     1      -5.495  -3.025 -42.972  0.00  0.00    +0.000 A 
ATOM     27  C   UNL     1      -8.104  -3.047 -41.974  0.00  0.00    +0.000 A 
ATOM     28  C   UNL     1      -5.939  -1.989 -42.142  0.00  0.00    +0.000 A 
ATOM     29  C   UNL     1      -7.239  -2.007 -41.645  0.00  0.00    +0.000 A 
ENDBRANCH  22  24
ENDBRANCH  21  22
ENDBRANCH   5  21
TORSDOF 7
ENDMDL
MODEL 7
REMARK VINA RESULT:      -3.8     13.666     16.267
REMARK  Name = 3811512
REMARK  7 active torsions:
REMARK  status: ('A' for Active; 'I' for Inactive)
REMARK    1  A    between atoms: S_4  and  C_11
REMARK    2  A    between atoms: S_4  and  C_14
REMARK    3  A    between atoms: O_6  and  N_9
REMARK    4  A    between atoms: O_6  and  C_21
REMARK    5  A    between atoms: C_10  and  C_16
REMARK    6  A    between atoms: C_14  and  C_15
REMARK    7  A    between atoms: C_20  and  C_21
REMARK                            x       y       z     vdW  Elec       q    Type
REMARK                         _______ _______ _______ _____ _____    ______ ____
ROOT
ATOM      1  S   UNL     1     -24.581  10.722 -58.316  0.00  0.00    +0.000 S 
ATOM      2  N   UNL     1     -22.228  10.048 -57.504  0.00  0.00    +0.000 N 
ATOM      3  N   UNL     1     -23.767   9.195 -56.118  0.00  0.00    +0.000 NA
ATOM      4  C   UNL     1     -21.505   9.359 -56.559  0.00  0.00    +0.000 A 
ATOM      5  C   UNL     1     -22.495   8.888 -55.688  0.00  0.00    +0.000 A 
ATOM      6  C   UNL     1     -23.549   9.875 -57.205  0.00  0.00    +0.000 A 
ATOM      7  C   UNL     1     -21.997  10.881 -58.585  0.00  0.00    +0.000 A 
ATOM      8  C   UNL     1     -23.140  11.321 -59.141  0.00  0.00    +0.000 A 
ENDROOT
BRANCH   4  10
ATOM      9  N   UNL     1     -19.255   8.359 -56.900  0.00  0.00    +0.000 NA
ATOM     10  C   UNL     1     -20.081   9.236 -56.412  0.00  0.00    +0.000 C 
BRANCH   9  11
ATOM     11  O   UNL     1     -19.866   7.294 -57.572  0.00  0.00    +0.000 OA
BRANCH  11  12
ATOM     12  C   UNL     1     -19.892   6.168 -56.684  0.00  0.00    +0.000 C 
BRANCH  12  15
ATOM     13 CL   UNL     1     -24.507   5.636 -58.972  0.00  0.00    +0.000 Cl
ATOM     14 CL   UNL     1     -24.779   2.703 -57.590  0.00  0.00    +0.000 Cl
ATOM     15  C   UNL     1     -21.099   5.279 -56.896  0.00  0.00    +0.000 A 
ATOM     16  C   UNL     1     -22.142   5.751 -57.710  0.00  0.00    +0.000 A 
ATOM     17  C   UNL     1     -21.218   4.004 -56.327  0.00  0.00    +0.000 A 
ATOM     18  C   UNL     1     -23.284   4.975 -57.947  0.00  0.00    +0.000 A 
ATOM     19  C   UNL     1     -22.359   3.228 -56.559  0.00  0.00    +0.000 A 
ATOM     20  C   UNL     1     -23.394   3.710 -57.363  0.00  0.00    +0.000 A 
ENDBRANCH  12  15
ENDBRANCH  11  12
ENDBRANCH   9  11
ENDBRANCH   4  10
BRANCH   5  21
ATOM     21  S   UNL     1     -22.228   8.037 -54.174  0.00  0.00    +0.000 S 
BRANCH  21  22
ATOM     22  C   UNL     1     -23.095   9.122 -53.002  0.00  0.00    +0.000 C 
BRANCH  22  24
ATOM     23 CL   UNL     1     -23.685   6.592 -47.545  0.00  0.00    +0.000 Cl
ATOM     24  C   UNL     1     -23.223   8.495 -51.629  0.00  0.00    +0.000 A 
ATOM     25  C   UNL     1     -23.695   9.246 -50.539  0.00  0.00    +0.000 A 
ATOM     26  C   UNL     1     -22.878   7.148 -51.423  0.00  0.00    +0.000 A 
ATOM     27  C   UNL     1     -23.836   8.658 -49.277  0.00  0.00    +0.000 A 
ATOM     28  C   UNL     1     -23.020   6.563 -50.160  0.00  0.00    +0.000 A 
ATOM     29  C   UNL     1     -23.502   7.319 -49.095  0.00  0.00    +0.000 A 
ENDBRANCH  22  24
ENDBRANCH  21  22
ENDBRANCH   5  21
TORSDOF 7
ENDMDL
MODEL 8
REMARK VINA RESULT:      -3.8     16.045     18.492
REMARK  Name = 3811512
REMARK  7 active torsions:
REMARK  status: ('A' for Active; 'I' for Inactive)
REMARK    1  A    between atoms: S_4  and  C_11
REMARK    2  A    between atoms: S_4  and  C_14
REMARK    3  A    between atoms: O_6  and  N_9
REMARK    4  A    between atoms: O_6  and  C_21
REMARK    5  A    between atoms: C_10  and  C_16
REMARK    6  A    between atoms: C_14  and  C_15
REMARK    7  A    between atoms: C_20  and  C_21
REMARK                            x       y       z     vdW  Elec       q    Type
REMARK                         _______ _______ _______ _____ _____    ______ ____
ROOT
ATOM      1  S   UNL     1     -12.801   3.949 -30.267  0.00  0.00    +0.000 S 
ATOM      2  N   UNL     1     -13.209   5.306 -32.421  0.00  0.00    +0.000 N 
ATOM      3  N   UNL     1     -11.263   5.931 -31.505  0.00  0.00    +0.000 NA
ATOM      4  C   UNL     1     -12.715   6.270 -33.269  0.00  0.00    +0.000 A 
ATOM      5  C   UNL     1     -11.531   6.668 -32.636  0.00  0.00    +0.000 A 
ATOM      6  C   UNL     1     -12.286   5.131 -31.430  0.00  0.00    +0.000 A 
ATOM      7  C   UNL     1     -14.356   4.548 -32.267  0.00  0.00    +0.000 A 
ATOM      8  C   UNL     1     -14.302   3.762 -31.176  0.00  0.00    +0.000 A 
ENDROOT
BRANCH   4  10
ATOM      9  N   UNL     1     -13.221   6.458 -35.695  0.00  0.00    +0.000 NA
ATOM     10  C   UNL     1     -13.305   6.831 -34.452  0.00  0.00    +0.000 C 
BRANCH   9  11
ATOM     11  O   UNL     1     -12.311   5.420 -35.932  0.00  0.00    +0.000 OA
BRANCH  11  12
ATOM     12  C   UNL     1     -11.153   5.983 -36.564  0.00  0.00    +0.000 C 
BRANCH  12  15
ATOM     13 CL   UNL     1      -5.978   5.980 -36.407  0.00  0.00    +0.000 Cl
ATOM     14 CL   UNL     1      -6.069   2.812 -35.671  0.00  0.00    +0.000 Cl
ATOM     15  C   UNL     1      -9.900   5.167 -36.331  0.00  0.00    +0.000 A 
ATOM     16  C   UNL     1      -8.654   5.805 -36.453  0.00  0.00    +0.000 A 
ATOM     17  C   UNL     1      -9.926   3.809 -35.989  0.00  0.00    +0.000 A 
ATOM     18  C   UNL     1      -7.458   5.106 -36.247  0.00  0.00    +0.000 A 
ATOM     19  C   UNL     1      -8.733   3.106 -35.787  0.00  0.00    +0.000 A 
ATOM     20  C   UNL     1      -7.499   3.748 -35.918  0.00  0.00    +0.000 A 
ENDBRANCH  12  15
ENDBRANCH  11  12
ENDBRANCH   9  11
ENDBRANCH   4  10
BRANCH   5  21
ATOM     21  S   UNL     1     -10.477   7.981 -33.137  0.00  0.00    +0.000 S 
BRANCH  21  22
ATOM     22  C   UNL     1     -10.655   9.129 -31.738  0.00  0.00    +0.000 C 
BRANCH  22  24
ATOM     23 CL   UNL     1      -6.086   8.566 -27.823  0.00  0.00    +0.000 Cl
ATOM     24  C   UNL     1      -9.515   9.007 -30.749  0.00  0.00    +0.000 A 
ATOM     25  C   UNL     1      -9.730   8.464 -29.471  0.00  0.00    +0.000 A 
ATOM     26  C   UNL     1      -8.220   9.429 -31.095  0.00  0.00    +0.000 A 
ATOM     27  C   UNL     1      -8.671   8.330 -28.566  0.00  0.00    +0.000 A 
ATOM     28  C   UNL     1      -7.162   9.294 -30.189  0.00  0.00    +0.000 A 
ATOM     29  C   UNL     1      -7.392   8.741 -28.931  0.00  0.00    +0.000 A 
ENDBRANCH  22  24
ENDBRANCH  21  22
ENDBRANCH   5  21
TORSDOF 7
ENDMDL
MODEL 9
REMARK VINA RESULT:      -3.8     12.554     14.497
REMARK  Name = 3811512
REMARK  7 active torsions:
REMARK  status: ('A' for Active; 'I' for Inactive)
REMARK    1  A    between atoms: S_4  and  C_11
REMARK    2  A    between atoms: S_4  and  C_14
REMARK    3  A    between atoms: O_6  and  N_9
REMARK    4  A    between atoms: O_6  and  C_21
REMARK    5  A    between atoms: C_10  and  C_16
REMARK    6  A    between atoms: C_14  and  C_15
REMARK    7  A    between atoms: C_20  and  C_21
REMARK                            x       y       z     vdW  Elec       q    Type
REMARK                         _______ _______ _______ _____ _____    ______ ____
ROOT
ATOM      1  S   UNL     1     -16.533  16.214 -57.579  0.00  0.00    +0.000 S 
ATOM      2  N   UNL     1     -17.750  14.154 -58.542  0.00  0.00    +0.000 N 
ATOM      3  N   UNL     1     -15.658  13.586 -57.978  0.00  0.00    +0.000 NA
ATOM      4  C   UNL     1     -17.653  12.818 -58.853  0.00  0.00    +0.000 A 
ATOM      5  C   UNL     1     -16.323  12.518 -58.536  0.00  0.00    +0.000 A 
ATOM      6  C   UNL     1     -16.555  14.528 -57.997  0.00  0.00    +0.000 A 
ATOM      7  C   UNL     1     -18.658  15.190 -58.681  0.00  0.00    +0.000 A 
ATOM      8  C   UNL     1     -18.175  16.354 -58.210  0.00  0.00    +0.000 A 
ENDROOT
BRANCH   4  10
ATOM      9  N   UNL     1     -19.365  11.019 -58.944  0.00  0.00    +0.000 NA
ATOM     10  C   UNL     1     -18.624  11.952 -59.463  0.00  0.00    +0.000 C 
BRANCH   9  11
ATOM     11  O   UNL     1     -19.083  10.727 -57.604  0.00  0.00    +0.000 OA
BRANCH  11  12
ATOM     12  C   UNL     1     -18.557   9.395 -57.543  0.00  0.00    +0.000 C 
BRANCH  12  15
ATOM     13 CL   UNL     1     -22.076   5.825 -58.841  0.00  0.00    +0.000 Cl
ATOM     14 CL   UNL     1     -22.645   5.332 -55.675  0.00  0.00    +0.000 Cl
ATOM     15  C   UNL     1     -19.568   8.384 -57.047  0.00  0.00    +0.000 A 
ATOM     16  C   UNL     1     -20.295   7.645 -57.996  0.00  0.00    +0.000 A 
ATOM     17  C   UNL     1     -19.805   8.144 -55.688  0.00  0.00    +0.000 A 
ATOM     18  C   UNL     1     -21.243   6.692 -57.601  0.00  0.00    +0.000 A 
ATOM     19  C   UNL     1     -20.755   7.197 -55.290  0.00  0.00    +0.000 A 
ATOM     20  C   UNL     1     -21.477   6.473 -56.241  0.00  0.00    +0.000 A 
ENDBRANCH  12  15
ENDBRANCH  11  12
ENDBRANCH   9  11
ENDBRANCH   4  10
BRANCH   5  21
ATOM     21  S   UNL     1     -15.504  10.991 -58.830  0.00  0.00    +0.000 S 
BRANCH  21  22
ATOM     22  C   UNL     1     -13.944  11.563 -59.566  0.00  0.00    +0.000 C 
BRANCH  22  24
ATOM     23 CL   UNL     1      -9.457  11.845 -55.526  0.00  0.00    +0.000 Cl
ATOM     24  C   UNL     1     -12.829  11.651 -58.545  0.00  0.00    +0.000 A 
ATOM     25  C   UNL     1     -12.962  11.047 -57.283  0.00  0.00    +0.000 A 
ATOM     26  C   UNL     1     -11.637  12.334 -58.845  0.00  0.00    +0.000 A 
ATOM     27  C   UNL     1     -11.920  11.109 -56.350  0.00  0.00    +0.000 A 
ATOM     28  C   UNL     1     -10.598  12.395 -57.910  0.00  0.00    +0.000 A 
ATOM     29  C   UNL     1     -10.743  11.779 -56.670  0.00  0.00    +0.000 A 
ENDBRANCH  22  24
ENDBRANCH  21  22
ENDBRANCH   5  21
TORSDOF 7
ENDMDL
MODEL 10
REMARK VINA RESULT:      -3.8     12.416     14.555
REMARK  Name = 3811512
REMARK  7 active torsions:
REMARK  status: ('A' for Active; 'I' for Inactive)
REMARK    1  A    between atoms: S_4  and  C_11
REMARK    2  A    between atoms: S_4  and  C_14
REMARK    3  A    between atoms: O_6  and  N_9
REMARK    4  A    between atoms: O_6  and  C_21
REMARK    5  A    between atoms: C_10  and  C_16
REMARK    6  A    between atoms: C_14  and  C_15
REMARK    7  A    between atoms: C_20  and  C_21
REMARK                            x       y       z     vdW  Elec       q    Type
REMARK                         _______ _______ _______ _____ _____    ______ ____
ROOT
ATOM      1  S   UNL     1     -27.053   2.484 -50.877  0.00  0.00    +0.000 S 
ATOM      2  N   UNL     1     -25.205   4.246 -50.513  0.00  0.00    +0.000 N 
ATOM      3  N   UNL     1     -26.177   4.586 -52.503  0.00  0.00    +0.000 NA
ATOM      4  C   UNL     1     -24.557   5.340 -51.038  0.00  0.00    +0.000 A 
ATOM      5  C   UNL     1     -25.156   5.486 -52.295  0.00  0.00    +0.000 A 
ATOM      6  C   UNL     1     -26.169   3.881 -51.410  0.00  0.00    +0.000 A 
ATOM      7  C   UNL     1     -25.112   3.414 -49.412  0.00  0.00    +0.000 A 
ATOM      8  C   UNL     1     -26.028   2.429 -49.441  0.00  0.00    +0.000 A 
ENDROOT
BRANCH   4  10
ATOM      9  N   UNL     1     -23.398   6.880 -49.469  0.00  0.00    +0.000 NA
ATOM     10  C   UNL     1     -23.457   6.092 -50.501  0.00  0.00    +0.000 C 
BRANCH   9  11
ATOM     11  O   UNL     1     -24.631   7.134 -48.858  0.00  0.00    +0.000 OA
BRANCH  11  12
ATOM     12  C   UNL     1     -24.609   8.479 -48.360  0.00  0.00    +0.000 C 
BRANCH  12  15
ATOM     13 CL   UNL     1     -23.980  11.548 -44.238  0.00  0.00    +0.000 Cl
ATOM     14 CL   UNL     1     -23.469   8.895 -42.424  0.00  0.00    +0.000 Cl
ATOM     15  C   UNL     1     -24.327   8.552 -46.875  0.00  0.00    +0.000 A 
ATOM     16  C   UNL     1     -24.271   9.817 -46.267  0.00  0.00    +0.000 A 
ATOM     17  C   UNL     1     -24.130   7.417 -46.078  0.00  0.00    +0.000 A 
ATOM     18  C   UNL     1     -24.016   9.952 -44.896  0.00  0.00    +0.000 A 
ATOM     19  C   UNL     1     -23.872   7.548 -44.709  0.00  0.00    +0.000 A 
ATOM     20  C   UNL     1     -23.810   8.811 -44.115  0.00  0.00    +0.000 A 
ENDBRANCH  12  15
ENDBRANCH  11  12
ENDBRANCH   9  11
ENDBRANCH   4  10
BRANCH   5  21
ATOM     21  S   UNL     1     -24.685   6.629 -53.544  0.00  0.00    +0.000 S 
BRANCH  21  22
ATOM     22  C   UNL     1     -23.788   5.545 -54.694  0.00  0.00    +0.000 C 
BRANCH  22  24
ATOM     23 CL   UNL     1     -18.426   7.834 -56.288  0.00  0.00    +0.000 Cl
ATOM     24  C   UNL     1     -22.453   6.130 -55.109  0.00  0.00    +0.000 A 
ATOM     25  C   UNL     1     -22.007   7.349 -54.571  0.00  0.00    +0.000 A 
ATOM     26  C   UNL     1     -21.636   5.460 -56.036  0.00  0.00    +0.000 A 
ATOM     27  C   UNL     1     -20.763   7.875 -54.937  0.00  0.00    +0.000 A 
ATOM     28  C   UNL     1     -20.393   5.989 -56.400  0.00  0.00    +0.000 A 
ATOM     29  C   UNL     1     -19.961   7.191 -55.846  0.00  0.00    +0.000 A 
ENDBRANCH  22  24
ENDBRANCH  21  22
ENDBRANCH   5  21
TORSDOF 7
ENDMDL
