MODEL 1
REMARK VINA RESULT:      -6.3      0.000      0.000
REMARK  Name = 3811512
REMARK  7 active torsions:
REMARK  status: ('A' for Active; 'I' for Inactive)
REMARK    1  A    between atoms: S_4  and  C_11
REMARK    2  A    between atoms: S_4  and  C_14
REMARK    3  A    between atoms: O_6  and  N_9
REMARK    4  A    between atoms: O_6  and  C_21
REMARK    5  A    between atoms: C_10  and  C_16
REMARK    6  A    between atoms: C_14  and  C_15
REMARK    7  A    between atoms: C_20  and  C_21
REMARK                            x       y       z     vdW  Elec       q    Type
REMARK                         _______ _______ _______ _____ _____    ______ ____
ROOT
ATOM      1  S   UNL     1      13.158  17.093  25.578  0.00  0.00    +0.000 S 
ATOM      2  N   UNL     1      11.993  14.793  25.526  0.00  0.00    +0.000 N 
ATOM      3  N   UNL     1      11.040  16.145  24.015  0.00  0.00    +0.000 NA
ATOM      4  C   UNL     1      11.013  14.027  24.938  0.00  0.00    +0.000 A 
ATOM      5  C   UNL     1      10.412  14.920  24.043  0.00  0.00    +0.000 A 
ATOM      6  C   UNL     1      11.976  16.011  24.908  0.00  0.00    +0.000 A 
ATOM      7  C   UNL     1      12.902  14.697  26.564  0.00  0.00    +0.000 A 
ATOM      8  C   UNL     1      13.612  15.829  26.723  0.00  0.00    +0.000 A 
ENDROOT
BRANCH   4  10
ATOM      9  N   UNL     1      11.009  11.550  24.730  0.00  0.00    +0.000 NA
ATOM     10  C   UNL     1      10.610  12.681  25.233  0.00  0.00    +0.000 C 
BRANCH   9  11
ATOM     11  O   UNL     1      11.880  11.673  23.640  0.00  0.00    +0.000 OA
BRANCH  11  12
ATOM     12  C   UNL     1      11.108  11.531  22.440  0.00  0.00    +0.000 C 
BRANCH  12  15
ATOM     13 CL   UNL     1      10.932   6.420  21.625  0.00  0.00    +0.000 Cl
ATOM     14 CL   UNL     1      12.902   6.828  19.067  0.00  0.00    +0.000 Cl
ATOM     15  C   UNL     1      11.568  10.376  21.577  0.00  0.00    +0.000 A 
ATOM     16  C   UNL     1      11.136   9.081  21.908  0.00  0.00    +0.000 A 
ATOM     17  C   UNL     1      12.396  10.540  20.459  0.00  0.00    +0.000 A 
ATOM     18  C   UNL     1      11.525   7.970  21.147  0.00  0.00    +0.000 A 
ATOM     19  C   UNL     1      12.790   9.433  19.699  0.00  0.00    +0.000 A 
ATOM     20  C   UNL     1      12.361   8.149  20.041  0.00  0.00    +0.000 A 
ENDBRANCH  12  15
ENDBRANCH  11  12
ENDBRANCH   9  11
ENDBRANCH   4  10
BRANCH   5  21
ATOM     21  S   UNL     1       8.986  14.608  23.064  0.00  0.00    +0.000 S 
BRANCH  21  22
ATOM     22  C   UNL     1       8.402  16.298  22.743  0.00  0.00    +0.000 C 
BRANCH  22  24
ATOM     23 CL   UNL     1       2.799  17.152  24.844  0.00  0.00    +0.000 Cl
ATOM     24  C   UNL     1       6.993  16.523  23.252  0.00  0.00    +0.000 A 
ATOM     25  C   UNL     1       5.955  15.644  22.900  0.00  0.00    +0.000 A 
ATOM     26  C   UNL     1       6.701  17.613  24.090  0.00  0.00    +0.000 A 
ATOM     27  C   UNL     1       4.659  15.840  23.391  0.00  0.00    +0.000 A 
ATOM     28  C   UNL     1       5.404  17.807  24.579  0.00  0.00    +0.000 A 
ATOM     29  C   UNL     1       4.391  16.917  24.231  0.00  0.00    +0.000 A 
ENDBRANCH  22  24
ENDBRANCH  21  22
ENDBRANCH   5  21
TORSDOF 7
ENDMDL
MODEL 2
REMARK VINA RESULT:      -6.3     29.163     30.713
REMARK  Name = 3811512
REMARK  7 active torsions:
REMARK  status: ('A' for Active; 'I' for Inactive)
REMARK    1  A    between atoms: S_4  and  C_11
REMARK    2  A    between atoms: S_4  and  C_14
REMARK    3  A    between atoms: O_6  and  N_9
REMARK    4  A    between atoms: O_6  and  C_21
REMARK    5  A    between atoms: C_10  and  C_16
REMARK    6  A    between atoms: C_14  and  C_15
REMARK    7  A    between atoms: C_20  and  C_21
REMARK                            x       y       z     vdW  Elec       q    Type
REMARK                         _______ _______ _______ _____ _____    ______ ____
ROOT
ATOM      1  S   UNL     1      -4.425 -15.450  14.111  0.00  0.00    +0.000 S 
ATOM      2  N   UNL     1      -2.943 -13.372  14.475  0.00  0.00    +0.000 N 
ATOM      3  N   UNL     1      -4.740 -13.247  15.806  0.00  0.00    +0.000 NA
ATOM      4  C   UNL     1      -2.785 -12.194  15.169  0.00  0.00    +0.000 A 
ATOM      5  C   UNL     1      -3.948 -12.130  15.946  0.00  0.00    +0.000 A 
ATOM      6  C   UNL     1      -4.091 -13.955  14.929  0.00  0.00    +0.000 A 
ATOM      7  C   UNL     1      -2.324 -14.063  13.449  0.00  0.00    +0.000 A 
ATOM      8  C   UNL     1      -2.975 -15.198  13.136  0.00  0.00    +0.000 A 
ENDROOT
BRANCH   4  10
ATOM      9  N   UNL     1      -1.638 -10.192  14.245  0.00  0.00    +0.000 NA
ATOM     10  C   UNL     1      -1.753 -11.202  15.056  0.00  0.00    +0.000 C 
BRANCH   9  11
ATOM     11  O   UNL     1      -2.611 -10.138  13.240  0.00  0.00    +0.000 OA
BRANCH  11  12
ATOM     12  C   UNL     1      -1.951 -10.298  11.977  0.00  0.00    +0.000 C 
BRANCH  12  15
ATOM     13 CL   UNL     1      -5.118 -12.889   8.804  0.00  0.00    +0.000 Cl
ATOM     14 CL   UNL     1      -5.762 -10.092   7.271  0.00  0.00    +0.000 Cl
ATOM     15  C   UNL     1      -2.902 -10.215  10.802  0.00  0.00    +0.000 A 
ATOM     16  C   UNL     1      -3.515 -11.397  10.354  0.00  0.00    +0.000 A 
ATOM     17  C   UNL     1      -3.207  -9.014  10.149  0.00  0.00    +0.000 A 
ATOM     18  C   UNL     1      -4.406 -11.387   9.273  0.00  0.00    +0.000 A 
ATOM     19  C   UNL     1      -4.094  -9.001   9.067  0.00  0.00    +0.000 A 
ATOM     20  C   UNL     1      -4.691 -10.183   8.624  0.00  0.00    +0.000 A 
ENDBRANCH  12  15
ENDBRANCH  11  12
ENDBRANCH   9  11
ENDBRANCH   4  10
BRANCH   5  21
ATOM     21  S   UNL     1      -4.439 -10.790  16.972  0.00  0.00    +0.000 S 
BRANCH  21  22
ATOM     22  C   UNL     1      -5.791 -10.072  15.991  0.00  0.00    +0.000 C 
BRANCH  22  24
ATOM     23 CL   UNL     1     -10.996  -9.864  19.056  0.00  0.00    +0.000 Cl
ATOM     24  C   UNL     1      -7.088 -10.003  16.770  0.00  0.00    +0.000 A 
ATOM     25  C   UNL     1      -8.150  -9.198  16.324  0.00  0.00    +0.000 A 
ATOM     26  C   UNL     1      -7.254 -10.748  17.950  0.00  0.00    +0.000 A 
ATOM     27  C   UNL     1      -9.356  -9.154  17.032  0.00  0.00    +0.000 A 
ATOM     28  C   UNL     1      -8.462 -10.702  18.656  0.00  0.00    +0.000 A 
ATOM     29  C   UNL     1      -9.508  -9.909  18.192  0.00  0.00    +0.000 A 
ENDBRANCH  22  24
ENDBRANCH  21  22
ENDBRANCH   5  21
TORSDOF 7
ENDMDL
MODEL 3
REMARK VINA RESULT:      -6.2     24.504     28.053
REMARK  Name = 3811512
REMARK  7 active torsions:
REMARK  status: ('A' for Active; 'I' for Inactive)
REMARK    1  A    between atoms: S_4  and  C_11
REMARK    2  A    between atoms: S_4  and  C_14
REMARK    3  A    between atoms: O_6  and  N_9
REMARK    4  A    between atoms: O_6  and  C_21
REMARK    5  A    between atoms: C_10  and  C_16
REMARK    6  A    between atoms: C_14  and  C_15
REMARK    7  A    between atoms: C_20  and  C_21
REMARK                            x       y       z     vdW  Elec       q    Type
REMARK                         _______ _______ _______ _____ _____    ______ ____
ROOT
ATOM      1  S   UNL     1     -19.897   5.398  21.873  0.00  0.00    +0.000 S 
ATOM      2  N   UNL     1     -18.308   3.758  23.070  0.00  0.00    +0.000 N 
ATOM      3  N   UNL     1     -17.222   5.671  22.647  0.00  0.00    +0.000 NA
ATOM      4  C   UNL     1     -17.044   3.565  23.579  0.00  0.00    +0.000 A 
ATOM      5  C   UNL     1     -16.388   4.757  23.248  0.00  0.00    +0.000 A 
ATOM      6  C   UNL     1     -18.351   5.029  22.574  0.00  0.00    +0.000 A 
ATOM      7  C   UNL     1     -19.470   3.033  22.874  0.00  0.00    +0.000 A 
ATOM      8  C   UNL     1     -20.422   3.757  22.259  0.00  0.00    +0.000 A 
ENDROOT
BRANCH   4  10
ATOM      9  N   UNL     1     -16.094   2.191  25.419  0.00  0.00    +0.000 NA
ATOM     10  C   UNL     1     -16.478   2.397  24.194  0.00  0.00    +0.000 C 
BRANCH   9  11
ATOM     11  O   UNL     1     -16.119   3.327  26.237  0.00  0.00    +0.000 OA
BRANCH  11  12
ATOM     12  C   UNL     1     -16.842   2.996  27.430  0.00  0.00    +0.000 C 
BRANCH  12  15
ATOM     13 CL   UNL     1     -13.788  -0.025  30.322  0.00  0.00    +0.000 Cl
ATOM     14 CL   UNL     1     -13.271   2.506  32.301  0.00  0.00    +0.000 Cl
ATOM     15  C   UNL     1     -15.952   2.904  28.651  0.00  0.00    +0.000 A 
ATOM     16  C   UNL     1     -15.340   1.673  28.942  0.00  0.00    +0.000 A 
ATOM     17  C   UNL     1     -15.701   3.992  29.498  0.00  0.00    +0.000 A 
ATOM     18  C   UNL     1     -14.503   1.524  30.055  0.00  0.00    +0.000 A 
ATOM     19  C   UNL     1     -14.869   3.845  30.612  0.00  0.00    +0.000 A 
ATOM     20  C   UNL     1     -14.272   2.616  30.897  0.00  0.00    +0.000 A 
ENDBRANCH  12  15
ENDBRANCH  11  12
ENDBRANCH   9  11
ENDBRANCH   4  10
BRANCH   5  21
ATOM     21  S   UNL     1     -14.683   5.107  23.496  0.00  0.00    +0.000 S 
BRANCH  21  22
ATOM     22  C   UNL     1     -14.073   5.116  21.784  0.00  0.00    +0.000 C 
BRANCH  22  24
ATOM     23 CL   UNL     1     -11.460  10.382  20.384  0.00  0.00    +0.000 Cl
ATOM     24  C   UNL     1     -13.427   6.435  21.414  0.00  0.00    +0.000 A 
ATOM     25  C   UNL     1     -14.117   7.646  21.591  0.00  0.00    +0.000 A 
ATOM     26  C   UNL     1     -12.122   6.470  20.891  0.00  0.00    +0.000 A 
ATOM     27  C   UNL     1     -13.509   8.865  21.271  0.00  0.00    +0.000 A 
ATOM     28  C   UNL     1     -11.517   7.690  20.572  0.00  0.00    +0.000 A 
ATOM     29  C   UNL     1     -12.212   8.882  20.767  0.00  0.00    +0.000 A 
ENDBRANCH  22  24
ENDBRANCH  21  22
ENDBRANCH   5  21
TORSDOF 7
ENDMDL
MODEL 4
REMARK VINA RESULT:      -6.0     18.869     22.734
REMARK  Name = 3811512
REMARK  7 active torsions:
REMARK  status: ('A' for Active; 'I' for Inactive)
REMARK    1  A    between atoms: S_4  and  C_11
REMARK    2  A    between atoms: S_4  and  C_14
REMARK    3  A    between atoms: O_6  and  N_9
REMARK    4  A    between atoms: O_6  and  C_21
REMARK    5  A    between atoms: C_10  and  C_16
REMARK    6  A    between atoms: C_14  and  C_15
REMARK    7  A    between atoms: C_20  and  C_21
REMARK                            x       y       z     vdW  Elec       q    Type
REMARK                         _______ _______ _______ _____ _____    ______ ____
ROOT
ATOM      1  S   UNL     1     -12.312  10.124  13.124  0.00  0.00    +0.000 S 
ATOM      2  N   UNL     1     -11.109   9.615  15.348  0.00  0.00    +0.000 N 
ATOM      3  N   UNL     1     -11.055  11.821  14.960  0.00  0.00    +0.000 NA
ATOM      4  C   UNL     1     -10.439  10.145  16.426  0.00  0.00    +0.000 A 
ATOM      5  C   UNL     1     -10.383  11.510  16.120  0.00  0.00    +0.000 A 
ATOM      6  C   UNL     1     -11.474  10.660  14.548  0.00  0.00    +0.000 A 
ATOM      7  C   UNL     1     -11.441   8.371  14.841  0.00  0.00    +0.000 A 
ATOM      8  C   UNL     1     -12.095   8.458  13.669  0.00  0.00    +0.000 A 
ENDROOT
BRANCH   4  10
ATOM      9  N   UNL     1     -10.339   9.125  18.690  0.00  0.00    +0.000 NA
ATOM     10  C   UNL     1      -9.836   9.474  17.543  0.00  0.00    +0.000 C 
BRANCH   9  11
ATOM     11  O   UNL     1     -11.639   9.587  18.921  0.00  0.00    +0.000 OA
BRANCH  11  12
ATOM     12  C   UNL     1     -12.552   8.549  18.541  0.00  0.00    +0.000 C 
BRANCH  12  15
ATOM     13 CL   UNL     1     -16.376   6.480  21.352  0.00  0.00    +0.000 Cl
ATOM     14 CL   UNL     1     -14.137   4.933  23.137  0.00  0.00    +0.000 Cl
ATOM     15  C   UNL     1     -12.919   7.636  19.691  0.00  0.00    +0.000 A 
ATOM     16  C   UNL     1     -14.278   7.467  20.003  0.00  0.00    +0.000 A 
ATOM     17  C   UNL     1     -11.966   6.945  20.452  0.00  0.00    +0.000 A 
ATOM     18  C   UNL     1     -14.682   6.634  21.054  0.00  0.00    +0.000 A 
ATOM     19  C   UNL     1     -12.367   6.116  21.505  0.00  0.00    +0.000 A 
ATOM     20  C   UNL     1     -13.720   5.960  21.812  0.00  0.00    +0.000 A 
ENDBRANCH  12  15
ENDBRANCH  11  12
ENDBRANCH   9  11
ENDBRANCH   4  10
BRANCH   5  21
ATOM     21  S   UNL     1      -9.531  12.745  17.035  0.00  0.00    +0.000 S 
BRANCH  21  22
ATOM     22  C   UNL     1      -8.370  13.372  15.784  0.00  0.00    +0.000 C 
BRANCH  22  24
ATOM     23 CL   UNL     1      -3.429  15.833  18.246  0.00  0.00    +0.000 Cl
ATOM     24  C   UNL     1      -7.125  13.969  16.407  0.00  0.00    +0.000 A 
ATOM     25  C   UNL     1      -5.928  14.054  15.677  0.00  0.00    +0.000 A 
ATOM     26  C   UNL     1      -7.148  14.455  17.726  0.00  0.00    +0.000 A 
ATOM     27  C   UNL     1      -4.785  14.628  16.246  0.00  0.00    +0.000 A 
ATOM     28  C   UNL     1      -6.005  15.029  18.293  0.00  0.00    +0.000 A 
ATOM     29  C   UNL     1      -4.831  15.116  17.549  0.00  0.00    +0.000 A 
ENDBRANCH  22  24
ENDBRANCH  21  22
ENDBRANCH   5  21
TORSDOF 7
ENDMDL
MODEL 5
REMARK VINA RESULT:      -5.8     16.863     21.049
REMARK  Name = 3811512
REMARK  7 active torsions:
REMARK  status: ('A' for Active; 'I' for Inactive)
REMARK    1  A    between atoms: S_4  and  C_11
REMARK    2  A    between atoms: S_4  and  C_14
REMARK    3  A    between atoms: O_6  and  N_9
REMARK    4  A    between atoms: O_6  and  C_21
REMARK    5  A    between atoms: C_10  and  C_16
REMARK    6  A    between atoms: C_14  and  C_15
REMARK    7  A    between atoms: C_20  and  C_21
REMARK                            x       y       z     vdW  Elec       q    Type
REMARK                         _______ _______ _______ _____ _____    ______ ____
ROOT
ATOM      1  S   UNL     1      13.811   9.435   4.664  0.00  0.00    +0.000 S 
ATOM      2  N   UNL     1      12.601   7.791   6.240  0.00  0.00    +0.000 N 
ATOM      3  N   UNL     1      12.295   7.149   4.116  0.00  0.00    +0.000 NA
ATOM      4  C   UNL     1      11.836   6.652   6.325  0.00  0.00    +0.000 A 
ATOM      5  C   UNL     1      11.625   6.315   4.982  0.00  0.00    +0.000 A 
ATOM      6  C   UNL     1      12.865   8.001   4.917  0.00  0.00    +0.000 A 
ATOM      7  C   UNL     1      13.100   8.772   7.079  0.00  0.00    +0.000 A 
ATOM      8  C   UNL     1      13.779   9.719   6.406  0.00  0.00    +0.000 A 
ENDROOT
BRANCH   4  10
ATOM      9  N   UNL     1      10.048   5.935   7.896  0.00  0.00    +0.000 NA
ATOM     10  C   UNL     1      11.279   6.013   7.484  0.00  0.00    +0.000 C 
BRANCH   9  11
ATOM     11  O   UNL     1       9.138   6.703   7.160  0.00  0.00    +0.000 OA
BRANCH  11  12
ATOM     12  C   UNL     1       8.723   7.804   7.979  0.00  0.00    +0.000 C 
BRANCH  12  15
ATOM     13 CL   UNL     1      10.100  10.882   4.050  0.00  0.00    +0.000 Cl
ATOM     14 CL   UNL     1      11.257  13.017   6.216  0.00  0.00    +0.000 Cl
ATOM     15  C   UNL     1       9.357   9.115   7.568  0.00  0.00    +0.000 A 
ATOM     16  C   UNL     1       9.458   9.408   6.198  0.00  0.00    +0.000 A 
ATOM     17  C   UNL     1       9.837  10.054   8.491  0.00  0.00    +0.000 A 
ATOM     18  C   UNL     1      10.032  10.606   5.753  0.00  0.00    +0.000 A 
ATOM     19  C   UNL     1      10.414  11.250   8.049  0.00  0.00    +0.000 A 
ATOM     20  C   UNL     1      10.517  11.528   6.685  0.00  0.00    +0.000 A 
ENDBRANCH  12  15
ENDBRANCH  11  12
ENDBRANCH   9  11
ENDBRANCH   4  10
BRANCH   5  21
ATOM     21  S   UNL     1      10.598   5.020   4.385  0.00  0.00    +0.000 S 
BRANCH  21  22
ATOM     22  C   UNL     1      10.076   5.695   2.781  0.00  0.00    +0.000 C 
BRANCH  22  24
ATOM     23 CL   UNL     1      12.759   2.873  -1.842  0.00  0.00    +0.000 Cl
ATOM     24  C   UNL     1      10.761   5.005   1.619  0.00  0.00    +0.000 A 
ATOM     25  C   UNL     1      11.940   4.268   1.818  0.00  0.00    +0.000 A 
ATOM     26  C   UNL     1      10.224   5.086   0.323  0.00  0.00    +0.000 A 
ATOM     27  C   UNL     1      12.558   3.611   0.748  0.00  0.00    +0.000 A 
ATOM     28  C   UNL     1      10.845   4.428  -0.746  0.00  0.00    +0.000 A 
ATOM     29  C   UNL     1      12.005   3.691  -0.527  0.00  0.00    +0.000 A 
ENDBRANCH  22  24
ENDBRANCH  21  22
ENDBRANCH   5  21
TORSDOF 7
ENDMDL
MODEL 6
REMARK VINA RESULT:      -5.8      7.424      9.911
REMARK  Name = 3811512
REMARK  7 active torsions:
REMARK  status: ('A' for Active; 'I' for Inactive)
REMARK    1  A    between atoms: S_4  and  C_11
REMARK    2  A    between atoms: S_4  and  C_14
REMARK    3  A    between atoms: O_6  and  N_9
REMARK    4  A    between atoms: O_6  and  C_21
REMARK    5  A    between atoms: C_10  and  C_16
REMARK    6  A    between atoms: C_14  and  C_15
REMARK    7  A    between atoms: C_20  and  C_21
REMARK                            x       y       z     vdW  Elec       q    Type
REMARK                         _______ _______ _______ _____ _____    ______ ____
ROOT
ATOM      1  S   UNL     1       5.791  19.717  16.912  0.00  0.00    +0.000 S 
ATOM      2  N   UNL     1       6.260  17.380  17.897  0.00  0.00    +0.000 N 
ATOM      3  N   UNL     1       4.168  17.446  17.101  0.00  0.00    +0.000 NA
ATOM      4  C   UNL     1       5.754  16.124  18.136  0.00  0.00    +0.000 A 
ATOM      5  C   UNL     1       4.437  16.224  17.673  0.00  0.00    +0.000 A 
ATOM      6  C   UNL     1       5.288  18.090  17.253  0.00  0.00    +0.000 A 
ATOM      7  C   UNL     1       7.404  18.109  18.174  0.00  0.00    +0.000 A 
ATOM      8  C   UNL     1       7.327  19.370  17.711  0.00  0.00    +0.000 A 
ENDROOT
BRANCH   4  10
ATOM      9  N   UNL     1       6.547  14.773  20.066  0.00  0.00    +0.000 NA
ATOM     10  C   UNL     1       6.366  15.006  18.800  0.00  0.00    +0.000 C 
BRANCH   9  11
ATOM     11  O   UNL     1       6.204  15.836  20.909  0.00  0.00    +0.000 OA
BRANCH  11  12
ATOM     12  C   UNL     1       6.250  15.360  22.261  0.00  0.00    +0.000 C 
BRANCH  12  15
ATOM     13 CL   UNL     1       5.506  19.307  25.530  0.00  0.00    +0.000 Cl
ATOM     14 CL   UNL     1       2.440  18.298  25.945  0.00  0.00    +0.000 Cl
ATOM     15  C   UNL     1       5.275  16.077  23.171  0.00  0.00    +0.000 A 
ATOM     16  C   UNL     1       5.722  17.211  23.870  0.00  0.00    +0.000 A 
ATOM     17  C   UNL     1       3.946  15.667  23.340  0.00  0.00    +0.000 A 
ATOM     18  C   UNL     1       4.868  17.919  24.725  0.00  0.00    +0.000 A 
ATOM     19  C   UNL     1       3.092  16.370  24.196  0.00  0.00    +0.000 A 
ATOM     20  C   UNL     1       3.548  17.492  24.892  0.00  0.00    +0.000 A 
ENDBRANCH  12  15
ENDBRANCH  11  12
ENDBRANCH   9  11
ENDBRANCH   4  10
BRANCH   5  21
ATOM     21  S   UNL     1       3.191  14.991  17.813  0.00  0.00    +0.000 S 
BRANCH  21  22
ATOM     22  C   UNL     1       2.574  15.304  19.493  0.00  0.00    +0.000 C 
BRANCH  22  24
ATOM     23 CL   UNL     1      -3.345  16.523  19.605  0.00  0.00    +0.000 Cl
ATOM     24  C   UNL     1       1.086  15.590  19.512  0.00  0.00    +0.000 A 
ATOM     25  C   UNL     1       0.287  15.159  20.585  0.00  0.00    +0.000 A 
ATOM     26  C   UNL     1       0.481  16.298  18.460  0.00  0.00    +0.000 A 
ATOM     27  C   UNL     1      -1.083  15.446  20.612  0.00  0.00    +0.000 A 
ATOM     28  C   UNL     1      -0.889  16.583  18.489  0.00  0.00    +0.000 A 
ATOM     29  C   UNL     1      -1.662  16.160  19.567  0.00  0.00    +0.000 A 
ENDBRANCH  22  24
ENDBRANCH  21  22
ENDBRANCH   5  21
TORSDOF 7
ENDMDL
MODEL 7
REMARK VINA RESULT:      -5.7     36.649     38.427
REMARK  Name = 3811512
REMARK  7 active torsions:
REMARK  status: ('A' for Active; 'I' for Inactive)
REMARK    1  A    between atoms: S_4  and  C_11
REMARK    2  A    between atoms: S_4  and  C_14
REMARK    3  A    between atoms: O_6  and  N_9
REMARK    4  A    between atoms: O_6  and  C_21
REMARK    5  A    between atoms: C_10  and  C_16
REMARK    6  A    between atoms: C_14  and  C_15
REMARK    7  A    between atoms: C_20  and  C_21
REMARK                            x       y       z     vdW  Elec       q    Type
REMARK                         _______ _______ _______ _____ _____    ______ ____
ROOT
ATOM      1  S   UNL     1       0.042 -18.292   0.084  0.00  0.00    +0.000 S 
ATOM      2  N   UNL     1       2.554 -17.948  -0.387  0.00  0.00    +0.000 N 
ATOM      3  N   UNL     1       2.291 -18.784   1.675  0.00  0.00    +0.000 NA
ATOM      4  C   UNL     1       3.832 -18.075   0.106  0.00  0.00    +0.000 A 
ATOM      5  C   UNL     1       3.620 -18.548   1.407  0.00  0.00    +0.000 A 
ATOM      6  C   UNL     1       1.705 -18.419   0.572  0.00  0.00    +0.000 A 
ATOM      7  C   UNL     1       1.919 -17.439  -1.506  0.00  0.00    +0.000 A 
ATOM      8  C   UNL     1       0.581 -17.552  -1.425  0.00  0.00    +0.000 A 
ENDROOT
BRANCH   4  10
ATOM      9  N   UNL     1       5.840 -16.669  -0.307  0.00  0.00    +0.000 NA
ATOM     10  C   UNL     1       5.082 -17.709  -0.498  0.00  0.00    +0.000 C 
BRANCH   9  11
ATOM     11  O   UNL     1       5.288 -15.691   0.528  0.00  0.00    +0.000 OA
BRANCH  11  12
ATOM     12  C   UNL     1       5.018 -14.530  -0.269  0.00  0.00    +0.000 C 
BRANCH  12  15
ATOM     13 CL   UNL     1       0.313 -14.380   1.888  0.00  0.00    +0.000 Cl
ATOM     14 CL   UNL     1      -0.926 -13.633  -1.026  0.00  0.00    +0.000 Cl
ATOM     15  C   UNL     1       3.538 -14.296  -0.487  0.00  0.00    +0.000 A 
ATOM     16  C   UNL     1       2.673 -14.422   0.612  0.00  0.00    +0.000 A 
ATOM     17  C   UNL     1       2.995 -13.950  -1.731  0.00  0.00    +0.000 A 
ATOM     18  C   UNL     1       1.294 -14.215   0.476  0.00  0.00    +0.000 A 
ATOM     19  C   UNL     1       1.618 -13.747  -1.870  0.00  0.00    +0.000 A 
ATOM     20  C   UNL     1       0.765 -13.882  -0.774  0.00  0.00    +0.000 A 
ENDBRANCH  12  15
ENDBRANCH  11  12
ENDBRANCH   9  11
ENDBRANCH   4  10
BRANCH   5  21
ATOM     21  S   UNL     1       4.853 -18.794   2.636  0.00  0.00    +0.000 S 
BRANCH  21  22
ATOM     22  C   UNL     1       4.617 -17.319   3.671  0.00  0.00    +0.000 C 
BRANCH  22  24
ATOM     23 CL   UNL     1       3.172 -18.652   9.386  0.00  0.00    +0.000 Cl
ATOM     24  C   UNL     1       4.257 -17.674   5.099  0.00  0.00    +0.000 A 
ATOM     25  C   UNL     1       5.259 -17.884   6.060  0.00  0.00    +0.000 A 
ATOM     26  C   UNL     1       2.911 -17.794   5.488  0.00  0.00    +0.000 A 
ATOM     27  C   UNL     1       4.923 -18.188   7.385  0.00  0.00    +0.000 A 
ATOM     28  C   UNL     1       2.578 -18.098   6.812  0.00  0.00    +0.000 A 
ATOM     29  C   UNL     1       3.585 -18.289   7.755  0.00  0.00    +0.000 A 
ENDBRANCH  22  24
ENDBRANCH  21  22
ENDBRANCH   5  21
TORSDOF 7
ENDMDL
MODEL 8
REMARK VINA RESULT:      -5.7     22.103     24.211
REMARK  Name = 3811512
REMARK  7 active torsions:
REMARK  status: ('A' for Active; 'I' for Inactive)
REMARK    1  A    between atoms: S_4  and  C_11
REMARK    2  A    between atoms: S_4  and  C_14
REMARK    3  A    between atoms: O_6  and  N_9
REMARK    4  A    between atoms: O_6  and  C_21
REMARK    5  A    between atoms: C_10  and  C_16
REMARK    6  A    between atoms: C_14  and  C_15
REMARK    7  A    between atoms: C_20  and  C_21
REMARK                            x       y       z     vdW  Elec       q    Type
REMARK                         _______ _______ _______ _____ _____    ______ ____
ROOT
ATOM      1  S   UNL     1     -14.826  10.269  14.038  0.00  0.00    +0.000 S 
ATOM      2  N   UNL     1     -12.773   9.223  15.195  0.00  0.00    +0.000 N 
ATOM      3  N   UNL     1     -12.525  11.448  15.106  0.00  0.00    +0.000 NA
ATOM      4  C   UNL     1     -11.564   9.466  15.804  0.00  0.00    +0.000 A 
ATOM      5  C   UNL     1     -11.424  10.854  15.681  0.00  0.00    +0.000 A 
ATOM      6  C   UNL     1     -13.298  10.434  14.846  0.00  0.00    +0.000 A 
ATOM      7  C   UNL     1     -13.537   8.139  14.800  0.00  0.00    +0.000 A 
ATOM      8  C   UNL     1     -14.669   8.516  14.178  0.00  0.00    +0.000 A 
ENDROOT
BRANCH   4  10
ATOM      9  N   UNL     1     -10.534   7.980  17.510  0.00  0.00    +0.000 NA
ATOM     10  C   UNL     1     -10.608   8.535  16.336  0.00  0.00    +0.000 C 
BRANCH   9  11
ATOM     11  O   UNL     1     -11.460   8.462  18.442  0.00  0.00    +0.000 OA
BRANCH  11  12
ATOM     12  C   UNL     1     -11.004   8.091  19.750  0.00  0.00    +0.000 C 
BRANCH  12  15
ATOM     13 CL   UNL     1     -15.335   9.247  22.343  0.00  0.00    +0.000 Cl
ATOM     14 CL   UNL     1     -15.498   6.147  23.319  0.00  0.00    +0.000 Cl
ATOM     15  C   UNL     1     -12.117   7.577  20.638  0.00  0.00    +0.000 A 
ATOM     16  C   UNL     1     -13.105   8.480  21.063  0.00  0.00    +0.000 A 
ATOM     17  C   UNL     1     -12.213   6.240  21.045  0.00  0.00    +0.000 A 
ATOM     18  C   UNL     1     -14.162   8.065  21.883  0.00  0.00    +0.000 A 
ATOM     19  C   UNL     1     -13.266   5.823  21.867  0.00  0.00    +0.000 A 
ATOM     20  C   UNL     1     -14.238   6.730  22.291  0.00  0.00    +0.000 A 
ENDBRANCH  12  15
ENDBRANCH  11  12
ENDBRANCH   9  11
ENDBRANCH   4  10
BRANCH   5  21
ATOM     21  S   UNL     1     -10.016  11.801  16.140  0.00  0.00    +0.000 S 
BRANCH  21  22
ATOM     22  C   UNL     1     -10.031  11.602  17.946  0.00  0.00    +0.000 C 
BRANCH  22  24
ATOM     23 CL   UNL     1     -14.445  14.755  20.612  0.00  0.00    +0.000 Cl
ATOM     24  C   UNL     1     -11.151  12.386  18.599  0.00  0.00    +0.000 A 
ATOM     25  C   UNL     1     -12.037  11.762  19.492  0.00  0.00    +0.000 A 
ATOM     26  C   UNL     1     -11.318  13.755  18.326  0.00  0.00    +0.000 A 
ATOM     27  C   UNL     1     -13.056  12.494  20.113  0.00  0.00    +0.000 A 
ATOM     28  C   UNL     1     -12.338  14.485  18.947  0.00  0.00    +0.000 A 
ATOM     29  C   UNL     1     -13.198  13.852  19.840  0.00  0.00    +0.000 A 
ENDBRANCH  22  24
ENDBRANCH  21  22
ENDBRANCH   5  21
TORSDOF 7
ENDMDL
MODEL 9
REMARK VINA RESULT:      -5.6     22.649     24.379
REMARK  Name = 3811512
REMARK  7 active torsions:
REMARK  status: ('A' for Active; 'I' for Inactive)
REMARK    1  A    between atoms: S_4  and  C_11
REMARK    2  A    between atoms: S_4  and  C_14
REMARK    3  A    between atoms: O_6  and  N_9
REMARK    4  A    between atoms: O_6  and  C_21
REMARK    5  A    between atoms: C_10  and  C_16
REMARK    6  A    between atoms: C_14  and  C_15
REMARK    7  A    between atoms: C_20  and  C_21
REMARK                            x       y       z     vdW  Elec       q    Type
REMARK                         _______ _______ _______ _____ _____    ______ ____
ROOT
ATOM      1  S   UNL     1      -5.431  13.298   7.633  0.00  0.00    +0.000 S 
ATOM      2  N   UNL     1      -3.177  13.106   6.395  0.00  0.00    +0.000 N 
ATOM      3  N   UNL     1      -3.657  11.150   7.376  0.00  0.00    +0.000 NA
ATOM      4  C   UNL     1      -2.125  12.283   6.069  0.00  0.00    +0.000 A 
ATOM      5  C   UNL     1      -2.437  11.095   6.741  0.00  0.00    +0.000 A 
ATOM      6  C   UNL     1      -4.056  12.364   7.130  0.00  0.00    +0.000 A 
ATOM      7  C   UNL     1      -3.542  14.432   6.246  0.00  0.00    +0.000 A 
ATOM      8  C   UNL     1      -4.721  14.704   6.835  0.00  0.00    +0.000 A 
ENDROOT
BRANCH   4  10
ATOM      9  N   UNL     1      -0.669  12.431   4.060  0.00  0.00    +0.000 NA
ATOM     10  C   UNL     1      -0.933  12.579   5.325  0.00  0.00    +0.000 C 
BRANCH   9  11
ATOM     11  O   UNL     1      -1.659  11.761   3.333  0.00  0.00    +0.000 OA
BRANCH  11  12
ATOM     12  C   UNL     1      -1.030  11.124   2.213  0.00  0.00    +0.000 C 
BRANCH  12  15
ATOM     13 CL   UNL     1      -5.831  11.547   0.319  0.00  0.00    +0.000 Cl
ATOM     14 CL   UNL     1      -5.087   9.277  -1.891  0.00  0.00    +0.000 Cl
ATOM     15  C   UNL     1      -2.021  10.646   1.173  0.00  0.00    +0.000 A 
ATOM     16  C   UNL     1      -3.313  11.199   1.178  0.00  0.00    +0.000 A 
ATOM     17  C   UNL     1      -1.707   9.688   0.201  0.00  0.00    +0.000 A 
ATOM     18  C   UNL     1      -4.275  10.801   0.241  0.00  0.00    +0.000 A 
ATOM     19  C   UNL     1      -2.666   9.286  -0.734  0.00  0.00    +0.000 A 
ATOM     20  C   UNL     1      -3.950   9.835  -0.716  0.00  0.00    +0.000 A 
ENDBRANCH  12  15
ENDBRANCH  11  12
ENDBRANCH   9  11
ENDBRANCH   4  10
BRANCH   5  21
ATOM     21  S   UNL     1      -1.419   9.665   6.851  0.00  0.00    +0.000 S 
BRANCH  21  22
ATOM     22  C   UNL     1      -1.571   8.996   5.168  0.00  0.00    +0.000 C 
BRANCH  22  24
ATOM     23 CL   UNL     1      -7.131   6.863   4.134  0.00  0.00    +0.000 Cl
ATOM     24  C   UNL     1      -2.957   8.452   4.891  0.00  0.00    +0.000 A 
ATOM     25  C   UNL     1      -3.327   7.172   5.337  0.00  0.00    +0.000 A 
ATOM     26  C   UNL     1      -3.899   9.221   4.187  0.00  0.00    +0.000 A 
ATOM     27  C   UNL     1      -4.617   6.681   5.102  0.00  0.00    +0.000 A 
ATOM     28  C   UNL     1      -5.188   8.728   3.953  0.00  0.00    +0.000 A 
ATOM     29  C   UNL     1      -5.541   7.463   4.415  0.00  0.00    +0.000 A 
ENDBRANCH  22  24
ENDBRANCH  21  22
ENDBRANCH   5  21
TORSDOF 7
ENDMDL
MODEL 10
REMARK VINA RESULT:      -5.6      8.131     10.863
REMARK  Name = 3811512
REMARK  7 active torsions:
REMARK  status: ('A' for Active; 'I' for Inactive)
REMARK    1  A    between atoms: S_4  and  C_11
REMARK    2  A    between atoms: S_4  and  C_14
REMARK    3  A    between atoms: O_6  and  N_9
REMARK    4  A    between atoms: O_6  and  C_21
REMARK    5  A    between atoms: C_10  and  C_16
REMARK    6  A    between atoms: C_14  and  C_15
REMARK    7  A    between atoms: C_20  and  C_21
REMARK                            x       y       z     vdW  Elec       q    Type
REMARK                         _______ _______ _______ _____ _____    ______ ____
ROOT
ATOM      1  S   UNL     1      -1.240  20.353  22.768  0.00  0.00    +0.000 S 
ATOM      2  N   UNL     1      -0.682  17.869  23.177  0.00  0.00    +0.000 N 
ATOM      3  N   UNL     1      -0.779  18.257  20.973  0.00  0.00    +0.000 NA
ATOM      4  C   UNL     1      -0.403  16.655  22.594  0.00  0.00    +0.000 A 
ATOM      5  C   UNL     1      -0.524  16.929  21.227  0.00  0.00    +0.000 A 
ATOM      6  C   UNL     1      -0.854  18.770  22.166  0.00  0.00    +0.000 A 
ATOM      7  C   UNL     1      -0.892  18.390  24.442  0.00  0.00    +0.000 A 
ATOM      8  C   UNL     1      -1.188  19.701  24.408  0.00  0.00    +0.000 A 
ENDROOT
BRANCH   4  10
ATOM      9  N   UNL     1       0.849  14.965  23.919  0.00  0.00    +0.000 NA
ATOM     10  C   UNL     1      -0.160  15.381  23.213  0.00  0.00    +0.000 C 
BRANCH   9  11
ATOM     11  O   UNL     1       1.925  15.858  23.981  0.00  0.00    +0.000 OA
BRANCH  11  12
ATOM     12  C   UNL     1       3.071  15.209  23.415  0.00  0.00    +0.000 C 
BRANCH  12  15
ATOM     13 CL   UNL     1       5.301  19.351  25.579  0.00  0.00    +0.000 Cl
ATOM     14 CL   UNL     1       8.116  18.471  24.204  0.00  0.00    +0.000 Cl
ATOM     15  C   UNL     1       4.348  16.002  23.598  0.00  0.00    +0.000 A 
ATOM     16  C   UNL     1       4.304  17.167  24.381  0.00  0.00    +0.000 A 
ATOM     17  C   UNL     1       5.572  15.620  23.032  0.00  0.00    +0.000 A 
ATOM     18  C   UNL     1       5.452  17.943  24.591  0.00  0.00    +0.000 A 
ATOM     19  C   UNL     1       6.718  16.395  23.237  0.00  0.00    +0.000 A 
ATOM     20  C   UNL     1       6.663  17.556  24.010  0.00  0.00    +0.000 A 
ENDBRANCH  12  15
ENDBRANCH  11  12
ENDBRANCH   9  11
ENDBRANCH   4  10
BRANCH   5  21
ATOM     21  S   UNL     1      -0.425  15.757  19.920  0.00  0.00    +0.000 S 
BRANCH  21  22
ATOM     22  C   UNL     1       1.234  15.066  20.192  0.00  0.00    +0.000 C 
BRANCH  22  24
ATOM     23 CL   UNL     1       5.378  17.769  16.721  0.00  0.00    +0.000 Cl
ATOM     24  C   UNL     1       2.278  15.724  19.314  0.00  0.00    +0.000 A 
ATOM     25  C   UNL     1       1.979  16.082  17.989  0.00  0.00    +0.000 A 
ATOM     26  C   UNL     1       3.565  15.994  19.813  0.00  0.00    +0.000 A 
ATOM     27  C   UNL     1       2.938  16.713  17.188  0.00  0.00    +0.000 A 
ATOM     28  C   UNL     1       4.522  16.624  19.010  0.00  0.00    +0.000 A 
ATOM     29  C   UNL     1       4.202  16.984  17.703  0.00  0.00    +0.000 A 
ENDBRANCH  22  24
ENDBRANCH  21  22
ENDBRANCH   5  21
TORSDOF 7
ENDMDL
