REMARK  Name = 3811512
REMARK  7 active torsions:
REMARK  status: ('A' for Active; 'I' for Inactive)
REMARK    1  A    between atoms: S_4  and  C_11
REMARK    2  A    between atoms: S_4  and  C_14
REMARK    3  A    between atoms: O_6  and  N_9
REMARK    4  A    between atoms: O_6  and  C_21
REMARK    5  A    between atoms: C_10  and  C_16
REMARK    6  A    between atoms: C_14  and  C_15
REMARK    7  A    between atoms: C_20  and  C_21
REMARK                            x       y       z     vdW  Elec       q    Type
REMARK                         _______ _______ _______ _____ _____    ______ ____
ROOT
ATOM      1  S   UNL     1       2.423   0.250   6.442  0.00  0.00    +0.000 S 
ATOM      2  N   UNL     1       3.532   1.534   4.500  0.00  0.00    +0.000 N 
ATOM      3  N   UNL     1       3.331  -0.627   3.945  0.00  0.00    +0.000 NA
ATOM      4  C   UNL     1       4.056   1.447   3.231  0.00  0.00    +0.000 A 
ATOM      5  C   UNL     1       3.959   0.080   2.945  0.00  0.00    +0.000 A 
ATOM      6  C   UNL     1       3.091   0.287   4.839  0.00  0.00    +0.000 A 
ATOM      7  C   UNL     1       3.394   2.476   5.504  0.00  0.00    +0.000 A 
ATOM      8  C   UNL     1       2.813   1.964   6.604  0.00  0.00    +0.000 A 
ENDROOT
BRANCH   4  10
ATOM      9  N   UNL     1       4.433   3.746   2.365  0.00  0.00    +0.000 NA
ATOM     10  C   UNL     1       4.665   2.468   2.425  0.00  0.00    +0.000 C 
BRANCH   9  11
ATOM     11  O   UNL     1       3.330   4.174   3.113  0.00  0.00    +0.000 OA
BRANCH  11  12
ATOM     12  C   UNL     1       3.220   5.596   2.964  0.00  0.00    +0.000 C 
BRANCH  12  15
ATOM     13 CL   UNL     1       0.203   9.772   3.486  0.00  0.00    +0.000 Cl
ATOM     14 CL   UNL     1      -2.121   7.856   4.718  0.00  0.00    +0.000 Cl
ATOM     15  C   UNL     1       1.875   6.132   3.406  0.00  0.00    +0.000 A 
ATOM     16  C   UNL     1       1.634   7.511   3.290  0.00  0.00    +0.000 A 
ATOM     17  C   UNL     1       0.857   5.315   3.915  0.00  0.00    +0.000 A 
ATOM     18  C   UNL     1       0.409   8.068   3.679  0.00  0.00    +0.000 A 
ATOM     19  C   UNL     1      -0.366   5.869   4.308  0.00  0.00    +0.000 A 
ATOM     20  C   UNL     1      -0.593   7.242   4.196  0.00  0.00    +0.000 A 
ENDBRANCH  12  15
ENDBRANCH  11  12
ENDBRANCH   9  11
ENDBRANCH   4  10
BRANCH   5  21
ATOM     21  S   UNL     1       4.586  -0.729   1.516  0.00  0.00    +0.000 S 
BRANCH  21  22
ATOM     22  C   UNL     1       3.576  -2.240   1.495  0.00  0.00    +0.000 C 
BRANCH  22  24
ATOM     23 CL   UNL     1       5.141  -6.064  -2.916  0.00  0.00    +0.000 Cl
ATOM     24  C   UNL     1       3.985  -3.186   0.385  0.00  0.00    +0.000 A 
ATOM     25  C   UNL     1       4.905  -4.220   0.627  0.00  0.00    +0.000 A 
ATOM     26  C   UNL     1       3.446  -3.049  -0.906  0.00  0.00    +0.000 A 
ATOM     27  C   UNL     1       5.263  -5.108  -0.394  0.00  0.00    +0.000 A 
ATOM     28  C   UNL     1       3.806  -3.938  -1.925  0.00  0.00    +0.000 A 
ATOM     29  C   UNL     1       4.709  -4.965  -1.663  0.00  0.00    +0.000 A 
ENDBRANCH  22  24
ENDBRANCH  21  22
ENDBRANCH   5  21
TORSDOF 7
