MODEL 1
REMARK VINA RESULT:      -6.0      0.000      0.000
REMARK  Name = 3814067
REMARK  5 active torsions:
REMARK  status: ('A' for Active; 'I' for Inactive)
REMARK    1  A    between atoms: O_4  and  N_7
REMARK    2  A    between atoms: O_4  and  C_20
REMARK    3  A    between atoms: C_8  and  C_13
REMARK    4  A    between atoms: C_9  and  C_11
REMARK    5  A    between atoms: C_17  and  C_20
REMARK                            x       y       z     vdW  Elec       q    Type
REMARK                         _______ _______ _______ _____ _____    ______ ____
ROOT
ATOM      1  S   UNL     1      -9.562   1.755 -32.675  0.00  0.00    +0.000 S 
ATOM      2  N   UNL     1     -10.054   2.909 -34.912  0.00  0.00    +0.000 N 
ATOM      3  N   UNL     1      -7.982   3.443 -34.268  0.00  0.00    +0.000 NA
ATOM      4  C   UNL     1      -9.599   3.768 -35.884  0.00  0.00    +0.000 A 
ATOM      5  C   UNL     1      -8.298   4.074 -35.467  0.00  0.00    +0.000 A 
ATOM      6  C   UNL     1      -9.077   2.801 -33.975  0.00  0.00    +0.000 A 
ATOM      7  C   UNL     1     -11.183   2.155 -34.669  0.00  0.00    +0.000 A 
ATOM      8  C   UNL     1     -11.106   1.499 -33.503  0.00  0.00    +0.000 A 
ENDROOT
BRANCH   5   9
ATOM      9  C   UNL     1      -7.332   4.917 -36.169  0.00  0.00    +0.000 A 
ATOM     10  C   UNL     1      -6.078   4.389 -36.511  0.00  0.00    +0.000 A 
ATOM     11  C   UNL     1      -7.617   6.242 -36.531  0.00  0.00    +0.000 A 
ATOM     12  C   UNL     1      -5.162   5.141 -37.254  0.00  0.00    +0.000 A 
ATOM     13  C   UNL     1      -6.710   6.989 -37.289  0.00  0.00    +0.000 A 
ATOM     14  C   UNL     1      -5.488   6.434 -37.660  0.00  0.00    +0.000 A 
ENDBRANCH   5   9
BRANCH   4  16
ATOM     15  N   UNL     1     -11.166   5.156 -37.151  0.00  0.00    +0.000 NA
ATOM     16  C   UNL     1     -10.310   4.182 -37.059  0.00  0.00    +0.000 C 
BRANCH  15  17
ATOM     17  O   UNL     1     -11.345   5.837 -35.937  0.00  0.00    +0.000 OA
BRANCH  17  18
ATOM     18  C   UNL     1     -11.534   7.240 -36.149  0.00  0.00    +0.000 C 
BRANCH  18  21
ATOM     19 CL   UNL     1     -14.598   7.295 -35.533  0.00  0.00    +0.000 Cl
ATOM     20 CL   UNL     1      -9.374   8.602 -34.359  0.00  0.00    +0.000 Cl
ATOM     21  C   UNL     1     -12.003   7.979 -34.920  0.00  0.00    +0.000 A 
ATOM     22  C   UNL     1     -13.368   8.064 -34.587  0.00  0.00    +0.000 A 
ATOM     23  C   UNL     1     -11.086   8.651 -34.089  0.00  0.00    +0.000 A 
ATOM     24  C   UNL     1     -13.794   8.779 -33.460  0.00  0.00    +0.000 A 
ATOM     25  C   UNL     1     -11.518   9.385 -32.980  0.00  0.00    +0.000 A 
ATOM     26  C   UNL     1     -12.871   9.446 -32.661  0.00  0.00    +0.000 A 
ENDBRANCH  18  21
ENDBRANCH  17  18
ENDBRANCH  15  17
ENDBRANCH   4  16
TORSDOF 5
ENDMDL
MODEL 2
REMARK VINA RESULT:      -5.6     21.189     23.475
REMARK  Name = 3814067
REMARK  5 active torsions:
REMARK  status: ('A' for Active; 'I' for Inactive)
REMARK    1  A    between atoms: O_4  and  N_7
REMARK    2  A    between atoms: O_4  and  C_20
REMARK    3  A    between atoms: C_8  and  C_13
REMARK    4  A    between atoms: C_9  and  C_11
REMARK    5  A    between atoms: C_17  and  C_20
REMARK                            x       y       z     vdW  Elec       q    Type
REMARK                         _______ _______ _______ _____ _____    ______ ____
ROOT
ATOM      1  S   UNL     1      -7.465   3.122 -61.462  0.00  0.00    +0.000 S 
ATOM      2  N   UNL     1      -5.376   2.467 -60.126  0.00  0.00    +0.000 N 
ATOM      3  N   UNL     1      -6.168   4.394 -59.321  0.00  0.00    +0.000 NA
ATOM      4  C   UNL     1      -4.489   2.820 -59.138  0.00  0.00    +0.000 A 
ATOM      5  C   UNL     1      -5.016   4.019 -58.639  0.00  0.00    +0.000 A 
ATOM      6  C   UNL     1      -6.304   3.454 -60.212  0.00  0.00    +0.000 A 
ATOM      7  C   UNL     1      -5.563   1.412 -60.995  0.00  0.00    +0.000 A 
ATOM      8  C   UNL     1      -6.614   1.608 -61.802  0.00  0.00    +0.000 A 
ENDROOT
BRANCH   5   9
ATOM      9  C   UNL     1      -4.487   4.810 -57.528  0.00  0.00    +0.000 A 
ATOM     10  C   UNL     1      -4.782   4.428 -56.211  0.00  0.00    +0.000 A 
ATOM     11  C   UNL     1      -3.677   5.937 -57.730  0.00  0.00    +0.000 A 
ATOM     12  C   UNL     1      -4.226   5.113 -55.126  0.00  0.00    +0.000 A 
ATOM     13  C   UNL     1      -3.107   6.611 -56.646  0.00  0.00    +0.000 A 
ATOM     14  C   UNL     1      -3.372   6.192 -55.345  0.00  0.00    +0.000 A 
ENDBRANCH   5   9
BRANCH   4  16
ATOM     15  N   UNL     1      -3.286   1.197 -57.759  0.00  0.00    +0.000 NA
ATOM     16  C   UNL     1      -3.339   2.075 -58.715  0.00  0.00    +0.000 C 
BRANCH  15  17
ATOM     17  O   UNL     1      -4.528   0.998 -57.136  0.00  0.00    +0.000 OA
BRANCH  17  18
ATOM     18  C   UNL     1      -4.373   0.404 -55.843  0.00  0.00    +0.000 C 
BRANCH  18  21
ATOM     19 CL   UNL     1      -5.910   1.977 -53.620  0.00  0.00    +0.000 Cl
ATOM     20 CL   UNL     1      -5.328  -2.320 -57.022  0.00  0.00    +0.000 Cl
ATOM     21  C   UNL     1      -5.648  -0.192 -55.296  0.00  0.00    +0.000 A 
ATOM     22  C   UNL     1      -6.384   0.448 -54.280  0.00  0.00    +0.000 A 
ATOM     23  C   UNL     1      -6.114  -1.438 -55.754  0.00  0.00    +0.000 A 
ATOM     24  C   UNL     1      -7.549  -0.131 -53.759  0.00  0.00    +0.000 A 
ATOM     25  C   UNL     1      -7.263  -2.024 -55.211  0.00  0.00    +0.000 A 
ATOM     26  C   UNL     1      -7.984  -1.369 -54.218  0.00  0.00    +0.000 A 
ENDBRANCH  18  21
ENDBRANCH  17  18
ENDBRANCH  15  17
ENDBRANCH   4  16
TORSDOF 5
ENDMDL
MODEL 3
REMARK VINA RESULT:      -5.3     19.984     22.285
REMARK  Name = 3814067
REMARK  5 active torsions:
REMARK  status: ('A' for Active; 'I' for Inactive)
REMARK    1  A    between atoms: O_4  and  N_7
REMARK    2  A    between atoms: O_4  and  C_20
REMARK    3  A    between atoms: C_8  and  C_13
REMARK    4  A    between atoms: C_9  and  C_11
REMARK    5  A    between atoms: C_17  and  C_20
REMARK                            x       y       z     vdW  Elec       q    Type
REMARK                         _______ _______ _______ _____ _____    ______ ____
ROOT
ATOM      1  S   UNL     1      -5.417   1.478 -60.382  0.00  0.00    +0.000 S 
ATOM      2  N   UNL     1      -3.912   1.547 -58.307  0.00  0.00    +0.000 N 
ATOM      3  N   UNL     1      -5.058   3.460 -58.427  0.00  0.00    +0.000 NA
ATOM      4  C   UNL     1      -3.463   2.287 -57.240  0.00  0.00    +0.000 A 
ATOM      5  C   UNL     1      -4.207   3.471 -57.327  0.00  0.00    +0.000 A 
ATOM      6  C   UNL     1      -4.806   2.311 -58.985  0.00  0.00    +0.000 A 
ATOM      7  C   UNL     1      -3.708   0.285 -58.826  0.00  0.00    +0.000 A 
ATOM      8  C   UNL     1      -4.409   0.088 -59.952  0.00  0.00    +0.000 A 
ENDROOT
BRANCH   5   9
ATOM      9  C   UNL     1      -4.163   4.601 -56.400  0.00  0.00    +0.000 A 
ATOM     10  C   UNL     1      -4.792   4.489 -55.150  0.00  0.00    +0.000 A 
ATOM     11  C   UNL     1      -3.498   5.797 -56.706  0.00  0.00    +0.000 A 
ATOM     12  C   UNL     1      -4.700   5.519 -54.208  0.00  0.00    +0.000 A 
ATOM     13  C   UNL     1      -3.390   6.819 -55.759  0.00  0.00    +0.000 A 
ATOM     14  C   UNL     1      -3.981   6.675 -54.506  0.00  0.00    +0.000 A 
ENDBRANCH   5   9
BRANCH   4  16
ATOM     15  N   UNL     1      -2.734   1.248 -55.149  0.00  0.00    +0.000 NA
ATOM     16  C   UNL     1      -2.498   1.878 -56.261  0.00  0.00    +0.000 C 
BRANCH  15  17
ATOM     17  O   UNL     1      -4.095   0.956 -54.968  0.00  0.00    +0.000 OA
BRANCH  17  18
ATOM     18  C   UNL     1      -4.276  -0.323 -54.351  0.00  0.00    +0.000 C 
BRANCH  18  21
ATOM     19 CL   UNL     1      -6.282  -0.875 -56.684  0.00  0.00    +0.000 Cl
ATOM     20 CL   UNL     1      -5.057  -0.385 -51.333  0.00  0.00    +0.000 Cl
ATOM     21  C   UNL     1      -5.712  -0.626 -54.002  0.00  0.00    +0.000 A 
ATOM     22  C   UNL     1      -6.678  -0.866 -54.998  0.00  0.00    +0.000 A 
ATOM     23  C   UNL     1      -6.143  -0.630 -52.662  0.00  0.00    +0.000 A 
ATOM     24  C   UNL     1      -8.015  -1.117 -54.663  0.00  0.00    +0.000 A 
ATOM     25  C   UNL     1      -7.484  -0.855 -52.334  0.00  0.00    +0.000 A 
ATOM     26  C   UNL     1      -8.420  -1.103 -53.333  0.00  0.00    +0.000 A 
ENDBRANCH  18  21
ENDBRANCH  17  18
ENDBRANCH  15  17
ENDBRANCH   4  16
TORSDOF 5
ENDMDL
MODEL 4
REMARK VINA RESULT:      -5.2      1.976      2.409
REMARK  Name = 3814067
REMARK  5 active torsions:
REMARK  status: ('A' for Active; 'I' for Inactive)
REMARK    1  A    between atoms: O_4  and  N_7
REMARK    2  A    between atoms: O_4  and  C_20
REMARK    3  A    between atoms: C_8  and  C_13
REMARK    4  A    between atoms: C_9  and  C_11
REMARK    5  A    between atoms: C_17  and  C_20
REMARK                            x       y       z     vdW  Elec       q    Type
REMARK                         _______ _______ _______ _____ _____    ______ ____
ROOT
ATOM      1  S   UNL     1      -8.233   0.410 -32.426  0.00  0.00    +0.000 S 
ATOM      2  N   UNL     1      -9.674   1.790 -34.038  0.00  0.00    +0.000 N 
ATOM      3  N   UNL     1      -7.654   2.732 -33.894  0.00  0.00    +0.000 NA
ATOM      4  C   UNL     1      -9.755   2.908 -34.833  0.00  0.00    +0.000 A 
ATOM      5  C   UNL     1      -8.475   3.470 -34.739  0.00  0.00    +0.000 A 
ATOM      6  C   UNL     1      -8.435   1.775 -33.483  0.00  0.00    +0.000 A 
ATOM      7  C   UNL     1     -10.482   0.727 -33.693  0.00  0.00    +0.000 A 
ATOM      8  C   UNL     1      -9.885  -0.092 -32.817  0.00  0.00    +0.000 A 
ENDROOT
BRANCH   5   9
ATOM      9  C   UNL     1      -7.991   4.661 -35.436  0.00  0.00    +0.000 A 
ATOM     10  C   UNL     1      -6.928   4.542 -36.344  0.00  0.00    +0.000 A 
ATOM     11  C   UNL     1      -8.563   5.927 -35.242  0.00  0.00    +0.000 A 
ATOM     12  C   UNL     1      -6.495   5.644 -37.087  0.00  0.00    +0.000 A 
ATOM     13  C   UNL     1      -8.143   7.025 -35.998  0.00  0.00    +0.000 A 
ATOM     14  C   UNL     1      -7.117   6.881 -36.928  0.00  0.00    +0.000 A 
ENDBRANCH   5   9
BRANCH   4  16
ATOM     15  N   UNL     1     -11.901   4.031 -35.181  0.00  0.00    +0.000 NA
ATOM     16  C   UNL     1     -10.890   3.330 -35.602  0.00  0.00    +0.000 C 
BRANCH  15  17
ATOM     17  O   UNL     1     -11.787   4.390 -33.829  0.00  0.00    +0.000 OA
BRANCH  17  18
ATOM     18  C   UNL     1     -11.881   5.808 -33.657  0.00  0.00    +0.000 C 
BRANCH  18  21
ATOM     19 CL   UNL     1     -14.373   5.195 -31.872  0.00  0.00    +0.000 Cl
ATOM     20 CL   UNL     1     -11.979   7.554 -36.240  0.00  0.00    +0.000 Cl
ATOM     21  C   UNL     1     -13.216   6.379 -34.071  0.00  0.00    +0.000 A 
ATOM     22  C   UNL     1     -14.386   6.130 -33.329  0.00  0.00    +0.000 A 
ATOM     23  C   UNL     1     -13.340   7.142 -35.248  0.00  0.00    +0.000 A 
ATOM     24  C   UNL     1     -15.624   6.639 -33.741  0.00  0.00    +0.000 A 
ATOM     25  C   UNL     1     -14.583   7.626 -35.668  0.00  0.00    +0.000 A 
ATOM     26  C   UNL     1     -15.725   7.380 -34.913  0.00  0.00    +0.000 A 
ENDBRANCH  18  21
ENDBRANCH  17  18
ENDBRANCH  15  17
ENDBRANCH   4  16
TORSDOF 5
ENDMDL
MODEL 5
REMARK VINA RESULT:      -5.2      3.020      4.577
REMARK  Name = 3814067
REMARK  5 active torsions:
REMARK  status: ('A' for Active; 'I' for Inactive)
REMARK    1  A    between atoms: O_4  and  N_7
REMARK    2  A    between atoms: O_4  and  C_20
REMARK    3  A    between atoms: C_8  and  C_13
REMARK    4  A    between atoms: C_9  and  C_11
REMARK    5  A    between atoms: C_17  and  C_20
REMARK                            x       y       z     vdW  Elec       q    Type
REMARK                         _______ _______ _______ _____ _____    ______ ____
ROOT
ATOM      1  S   UNL     1      -9.086   4.313 -36.017  0.00  0.00    +0.000 S 
ATOM      2  N   UNL     1     -10.782   6.235 -36.089  0.00  0.00    +0.000 N 
ATOM      3  N   UNL     1      -9.170   6.754 -34.633  0.00  0.00    +0.000 NA
ATOM      4  C   UNL     1     -11.159   7.452 -35.573  0.00  0.00    +0.000 A 
ATOM      5  C   UNL     1     -10.127   7.762 -34.678  0.00  0.00    +0.000 A 
ATOM      6  C   UNL     1      -9.637   5.863 -35.460  0.00  0.00    +0.000 A 
ATOM      7  C   UNL     1     -11.239   5.350 -37.044  0.00  0.00    +0.000 A 
ATOM      8  C   UNL     1     -10.471   4.254 -37.118  0.00  0.00    +0.000 A 
ENDROOT
BRANCH   5   9
ATOM      9  C   UNL     1      -9.997   8.983 -33.885  0.00  0.00    +0.000 A 
ATOM     10  C   UNL     1      -9.196   8.973 -32.733  0.00  0.00    +0.000 A 
ATOM     11  C   UNL     1     -10.636  10.180 -34.241  0.00  0.00    +0.000 A 
ATOM     12  C   UNL     1      -8.984  10.143 -31.998  0.00  0.00    +0.000 A 
ATOM     13  C   UNL     1     -10.410  11.354 -33.518  0.00  0.00    +0.000 A 
ATOM     14  C   UNL     1      -9.576  11.338 -32.403  0.00  0.00    +0.000 A 
ENDBRANCH   5   9
BRANCH   4  16
ATOM     15  N   UNL     1     -13.549   7.977 -35.587  0.00  0.00    +0.000 NA
ATOM     16  C   UNL     1     -12.319   8.212 -35.938  0.00  0.00    +0.000 C 
BRANCH  15  17
ATOM     17  O   UNL     1     -13.669   6.857 -34.750  0.00  0.00    +0.000 OA
BRANCH  17  18
ATOM     18  C   UNL     1     -14.557   7.116 -33.658  0.00  0.00    +0.000 C 
BRANCH  18  21
ATOM     19 CL   UNL     1     -16.014   9.859 -33.311  0.00  0.00    +0.000 Cl
ATOM     20 CL   UNL     1     -12.038   6.265 -32.028  0.00  0.00    +0.000 Cl
ATOM     21  C   UNL     1     -14.006   8.096 -32.652  0.00  0.00    +0.000 A 
ATOM     22  C   UNL     1     -14.596   9.359 -32.453  0.00  0.00    +0.000 A 
ATOM     23  C   UNL     1     -12.848   7.794 -31.911  0.00  0.00    +0.000 A 
ATOM     24  C   UNL     1     -14.057  10.272 -31.538  0.00  0.00    +0.000 A 
ATOM     25  C   UNL     1     -12.299   8.719 -31.017  0.00  0.00    +0.000 A 
ATOM     26  C   UNL     1     -12.905   9.957 -30.826  0.00  0.00    +0.000 A 
ENDBRANCH  18  21
ENDBRANCH  17  18
ENDBRANCH  15  17
ENDBRANCH   4  16
TORSDOF 5
ENDMDL
MODEL 6
REMARK VINA RESULT:      -5.2     22.993     24.939
REMARK  Name = 3814067
REMARK  5 active torsions:
REMARK  status: ('A' for Active; 'I' for Inactive)
REMARK    1  A    between atoms: O_4  and  N_7
REMARK    2  A    between atoms: O_4  and  C_20
REMARK    3  A    between atoms: C_8  and  C_13
REMARK    4  A    between atoms: C_9  and  C_11
REMARK    5  A    between atoms: C_17  and  C_20
REMARK                            x       y       z     vdW  Elec       q    Type
REMARK                         _______ _______ _______ _____ _____    ______ ____
ROOT
ATOM      1  S   UNL     1     -24.411  12.072 -55.401  0.00  0.00    +0.000 S 
ATOM      2  N   UNL     1     -23.404   9.980 -54.311  0.00  0.00    +0.000 N 
ATOM      3  N   UNL     1     -22.402  10.318 -56.278  0.00  0.00    +0.000 NA
ATOM      4  C   UNL     1     -22.528   8.930 -54.438  0.00  0.00    +0.000 A 
ATOM      5  C   UNL     1     -21.902   9.173 -55.667  0.00  0.00    +0.000 A 
ATOM      6  C   UNL     1     -23.314  10.725 -55.442  0.00  0.00    +0.000 A 
ATOM      7  C   UNL     1     -24.294  10.454 -53.368  0.00  0.00    +0.000 A 
ATOM      8  C   UNL     1     -24.941  11.547 -53.796  0.00  0.00    +0.000 A 
ENDROOT
BRANCH   5   9
ATOM      9  C   UNL     1     -20.833   8.381 -56.274  0.00  0.00    +0.000 A 
ATOM     10  C   UNL     1     -20.180   7.404 -55.508  0.00  0.00    +0.000 A 
ATOM     11  C   UNL     1     -20.440   8.551 -57.610  0.00  0.00    +0.000 A 
ATOM     12  C   UNL     1     -19.211   6.574 -56.080  0.00  0.00    +0.000 A 
ATOM     13  C   UNL     1     -19.485   7.711 -58.188  0.00  0.00    +0.000 A 
ATOM     14  C   UNL     1     -18.879   6.715 -57.426  0.00  0.00    +0.000 A 
ENDBRANCH   5   9
BRANCH   4  16
ATOM     15  N   UNL     1     -22.971   6.774 -53.370  0.00  0.00    +0.000 NA
ATOM     16  C   UNL     1     -22.303   7.883 -53.483  0.00  0.00    +0.000 C 
BRANCH  15  17
ATOM     17  O   UNL     1     -23.988   6.652 -54.329  0.00  0.00    +0.000 OA
BRANCH  17  18
ATOM     18  C   UNL     1     -23.829   5.462 -55.108  0.00  0.00    +0.000 C 
BRANCH  18  21
ATOM     19 CL   UNL     1     -25.322   7.709 -56.687  0.00  0.00    +0.000 Cl
ATOM     20 CL   UNL     1     -21.518   3.740 -56.300  0.00  0.00    +0.000 Cl
ATOM     21  C   UNL     1     -23.419   5.726 -56.537  0.00  0.00    +0.000 A 
ATOM     22  C   UNL     1     -24.058   6.708 -57.318  0.00  0.00    +0.000 A 
ATOM     23  C   UNL     1     -22.411   4.958 -57.150  0.00  0.00    +0.000 A 
ATOM     24  C   UNL     1     -23.689   6.922 -58.652  0.00  0.00    +0.000 A 
ATOM     25  C   UNL     1     -22.065   5.159 -58.491  0.00  0.00    +0.000 A 
ATOM     26  C   UNL     1     -22.700   6.143 -59.241  0.00  0.00    +0.000 A 
ENDBRANCH  18  21
ENDBRANCH  17  18
ENDBRANCH  15  17
ENDBRANCH   4  16
TORSDOF 5
ENDMDL
MODEL 7
REMARK VINA RESULT:      -5.2     17.978     20.011
REMARK  Name = 3814067
REMARK  5 active torsions:
REMARK  status: ('A' for Active; 'I' for Inactive)
REMARK    1  A    between atoms: O_4  and  N_7
REMARK    2  A    between atoms: O_4  and  C_20
REMARK    3  A    between atoms: C_8  and  C_13
REMARK    4  A    between atoms: C_9  and  C_11
REMARK    5  A    between atoms: C_17  and  C_20
REMARK                            x       y       z     vdW  Elec       q    Type
REMARK                         _______ _______ _______ _____ _____    ______ ____
ROOT
ATOM      1  S   UNL     1      -5.662  -6.674 -50.173  0.00  0.00    +0.000 S 
ATOM      2  N   UNL     1      -6.910  -4.469 -50.573  0.00  0.00    +0.000 N 
ATOM      3  N   UNL     1      -5.874  -5.061 -52.462  0.00  0.00    +0.000 NA
ATOM      4  C   UNL     1      -7.184  -3.450 -51.453  0.00  0.00    +0.000 A 
ATOM      5  C   UNL     1      -6.541  -3.852 -52.631  0.00  0.00    +0.000 A 
ATOM      6  C   UNL     1      -6.100  -5.352 -51.213  0.00  0.00    +0.000 A 
ATOM      7  C   UNL     1      -7.243  -4.812 -49.279  0.00  0.00    +0.000 A 
ATOM      8  C   UNL     1      -6.641  -5.945 -48.891  0.00  0.00    +0.000 A 
ENDROOT
BRANCH   5   9
ATOM      9  C   UNL     1      -6.551  -3.152 -53.914  0.00  0.00    +0.000 A 
ATOM     10  C   UNL     1      -5.700  -3.586 -54.941  0.00  0.00    +0.000 A 
ATOM     11  C   UNL     1      -7.398  -2.062 -54.167  0.00  0.00    +0.000 A 
ATOM     12  C   UNL     1      -5.743  -2.991 -56.206  0.00  0.00    +0.000 A 
ATOM     13  C   UNL     1      -7.455  -1.479 -55.436  0.00  0.00    +0.000 A 
ATOM     14  C   UNL     1      -6.636  -1.952 -56.458  0.00  0.00    +0.000 A 
ENDBRANCH   5   9
BRANCH   4  16
ATOM     15  N   UNL     1      -7.584  -1.135 -50.768  0.00  0.00    +0.000 NA
ATOM     16  C   UNL     1      -7.992  -2.293 -51.197  0.00  0.00    +0.000 C 
BRANCH  15  17
ATOM     17  O   UNL     1      -6.194  -1.086 -50.581  0.00  0.00    +0.000 OA
BRANCH  17  18
ATOM     18  C   UNL     1      -5.627   0.078 -51.190  0.00  0.00    +0.000 C 
BRANCH  18  21
ATOM     19 CL   UNL     1      -6.034   1.742 -53.805  0.00  0.00    +0.000 Cl
ATOM     20 CL   UNL     1      -3.492  -2.173 -50.875  0.00  0.00    +0.000 Cl
ATOM     21  C   UNL     1      -4.748  -0.230 -52.378  0.00  0.00    +0.000 A 
ATOM     22  C   UNL     1      -4.885   0.463 -53.596  0.00  0.00    +0.000 A 
ATOM     23  C   UNL     1      -3.791  -1.261 -52.319  0.00  0.00    +0.000 A 
ATOM     24  C   UNL     1      -4.085   0.147 -54.701  0.00  0.00    +0.000 A 
ATOM     25  C   UNL     1      -3.013  -1.590 -53.433  0.00  0.00    +0.000 A 
ATOM     26  C   UNL     1      -3.155  -0.884 -54.623  0.00  0.00    +0.000 A 
ENDBRANCH  18  21
ENDBRANCH  17  18
ENDBRANCH  15  17
ENDBRANCH   4  16
TORSDOF 5
ENDMDL
MODEL 8
REMARK VINA RESULT:      -5.1     24.510     26.346
REMARK  Name = 3814067
REMARK  5 active torsions:
REMARK  status: ('A' for Active; 'I' for Inactive)
REMARK    1  A    between atoms: O_4  and  N_7
REMARK    2  A    between atoms: O_4  and  C_20
REMARK    3  A    between atoms: C_8  and  C_13
REMARK    4  A    between atoms: C_9  and  C_11
REMARK    5  A    between atoms: C_17  and  C_20
REMARK                            x       y       z     vdW  Elec       q    Type
REMARK                         _______ _______ _______ _____ _____    ______ ____
ROOT
ATOM      1  S   UNL     1     -24.464   4.442 -61.676  0.00  0.00    +0.000 S 
ATOM      2  N   UNL     1     -25.034   5.688 -59.507  0.00  0.00    +0.000 N 
ATOM      3  N   UNL     1     -23.138   6.526 -60.340  0.00  0.00    +0.000 NA
ATOM      4  C   UNL     1     -24.644   6.637 -58.593  0.00  0.00    +0.000 A 
ATOM      5  C   UNL     1     -23.466   7.158 -59.145  0.00  0.00    +0.000 A 
ATOM      6  C   UNL     1     -24.084   5.641 -60.477  0.00  0.00    +0.000 A 
ATOM      7  C   UNL     1     -26.097   4.827 -59.688  0.00  0.00    +0.000 A 
ATOM      8  C   UNL     1     -25.944   4.065 -60.780  0.00  0.00    +0.000 A 
ENDROOT
BRANCH   5   9
ATOM      9  C   UNL     1     -22.654   8.245 -58.602  0.00  0.00    +0.000 A 
ATOM     10  C   UNL     1     -21.296   8.327 -58.946  0.00  0.00    +0.000 A 
ATOM     11  C   UNL     1     -23.186   9.226 -57.753  0.00  0.00    +0.000 A 
ATOM     12  C   UNL     1     -20.511   9.399 -58.510  0.00  0.00    +0.000 A 
ATOM     13  C   UNL     1     -22.407  10.308 -57.331  0.00  0.00    +0.000 A 
ATOM     14  C   UNL     1     -21.073  10.400 -57.720  0.00  0.00    +0.000 A 
ENDBRANCH   5   9
BRANCH   4  16
ATOM     15  N   UNL     1     -25.163   6.523 -56.206  0.00  0.00    +0.000 NA
ATOM     16  C   UNL     1     -25.342   7.010 -57.397  0.00  0.00    +0.000 C 
BRANCH  15  17
ATOM     17  O   UNL     1     -24.153   5.550 -56.163  0.00  0.00    +0.000 OA
BRANCH  17  18
ATOM     18  C   UNL     1     -23.322   5.711 -55.009  0.00  0.00    +0.000 C 
BRANCH  18  21
ATOM     19 CL   UNL     1     -22.432   8.532 -53.997  0.00  0.00    +0.000 Cl
ATOM     20 CL   UNL     1     -21.483   3.784 -56.630  0.00  0.00    +0.000 Cl
ATOM     21  C   UNL     1     -21.924   6.178 -55.331  0.00  0.00    +0.000 A 
ATOM     22  C   UNL     1     -21.457   7.444 -54.927  0.00  0.00    +0.000 A 
ATOM     23  C   UNL     1     -21.054   5.376 -56.095  0.00  0.00    +0.000 A 
ATOM     24  C   UNL     1     -20.168   7.878 -55.259  0.00  0.00    +0.000 A 
ATOM     25  C   UNL     1     -19.777   5.826 -56.446  0.00  0.00    +0.000 A 
ATOM     26  C   UNL     1     -19.331   7.074 -56.025  0.00  0.00    +0.000 A 
ENDBRANCH  18  21
ENDBRANCH  17  18
ENDBRANCH  15  17
ENDBRANCH   4  16
TORSDOF 5
ENDMDL
MODEL 9
REMARK VINA RESULT:      -5.1     23.953     26.030
REMARK  Name = 3814067
REMARK  5 active torsions:
REMARK  status: ('A' for Active; 'I' for Inactive)
REMARK    1  A    between atoms: O_4  and  N_7
REMARK    2  A    between atoms: O_4  and  C_20
REMARK    3  A    between atoms: C_8  and  C_13
REMARK    4  A    between atoms: C_9  and  C_11
REMARK    5  A    between atoms: C_17  and  C_20
REMARK                            x       y       z     vdW  Elec       q    Type
REMARK                         _______ _______ _______ _____ _____    ______ ____
ROOT
ATOM      1  S   UNL     1     -20.103  11.221 -59.612  0.00  0.00    +0.000 S 
ATOM      2  N   UNL     1     -21.986  10.503 -58.026  0.00  0.00    +0.000 N 
ATOM      3  N   UNL     1     -21.586   8.842 -59.464  0.00  0.00    +0.000 NA
ATOM      4  C   UNL     1     -22.906   9.535 -57.701  0.00  0.00    +0.000 A 
ATOM      5  C   UNL     1     -22.624   8.501 -58.603  0.00  0.00    +0.000 A 
ATOM      6  C   UNL     1     -21.281  10.053 -59.095  0.00  0.00    +0.000 A 
ATOM      7  C   UNL     1     -21.608  11.744 -57.556  0.00  0.00    +0.000 A 
ATOM      8  C   UNL     1     -20.636  12.286 -58.302  0.00  0.00    +0.000 A 
ENDROOT
BRANCH   5   9
ATOM      9  C   UNL     1     -23.278   7.195 -58.666  0.00  0.00    +0.000 A 
ATOM     10  C   UNL     1     -24.531   7.023 -58.059  0.00  0.00    +0.000 A 
ATOM     11  C   UNL     1     -22.704   6.100 -59.329  0.00  0.00    +0.000 A 
ATOM     12  C   UNL     1     -25.221   5.812 -58.170  0.00  0.00    +0.000 A 
ATOM     13  C   UNL     1     -23.400   4.895 -59.456  0.00  0.00    +0.000 A 
ATOM     14  C   UNL     1     -24.664   4.755 -58.887  0.00  0.00    +0.000 A 
ENDBRANCH   5   9
BRANCH   4  16
ATOM     15  N   UNL     1     -23.642   9.464 -55.369  0.00  0.00    +0.000 NA
ATOM     16  C   UNL     1     -23.872   9.593 -56.642  0.00  0.00    +0.000 C 
BRANCH  15  17
ATOM     17  O   UNL     1     -22.283   9.270 -55.080  0.00  0.00    +0.000 OA
BRANCH  17  18
ATOM     18  C   UNL     1     -22.084   8.106 -54.271  0.00  0.00    +0.000 C 
BRANCH  18  21
ATOM     19 CL   UNL     1     -24.277   5.886 -54.444  0.00  0.00    +0.000 Cl
ATOM     20 CL   UNL     1     -19.303   7.918 -55.670  0.00  0.00    +0.000 Cl
ATOM     21  C   UNL     1     -21.780   6.862 -55.068  0.00  0.00    +0.000 A 
ATOM     22  C   UNL     1     -22.709   5.810 -55.176  0.00  0.00    +0.000 A 
ATOM     23  C   UNL     1     -20.529   6.693 -55.692  0.00  0.00    +0.000 A 
ATOM     24  C   UNL     1     -22.404   4.647 -55.894  0.00  0.00    +0.000 A 
ATOM     25  C   UNL     1     -20.219   5.518 -56.385  0.00  0.00    +0.000 A 
ATOM     26  C   UNL     1     -21.157   4.497 -56.491  0.00  0.00    +0.000 A 
ENDBRANCH  18  21
ENDBRANCH  17  18
ENDBRANCH  15  17
ENDBRANCH   4  16
TORSDOF 5
ENDMDL
MODEL 10
REMARK VINA RESULT:      -5.1     15.495     17.056
REMARK  Name = 3814067
REMARK  5 active torsions:
REMARK  status: ('A' for Active; 'I' for Inactive)
REMARK    1  A    between atoms: O_4  and  N_7
REMARK    2  A    between atoms: O_4  and  C_20
REMARK    3  A    between atoms: C_8  and  C_13
REMARK    4  A    between atoms: C_9  and  C_11
REMARK    5  A    between atoms: C_17  and  C_20
REMARK                            x       y       z     vdW  Elec       q    Type
REMARK                         _______ _______ _______ _____ _____    ______ ____
ROOT
ATOM      1  S   UNL     1     -12.425  19.829 -41.112  0.00  0.00    +0.000 S 
ATOM      2  N   UNL     1     -12.095  18.268 -43.120  0.00  0.00    +0.000 N 
ATOM      3  N   UNL     1     -14.244  18.214 -42.515  0.00  0.00    +0.000 NA
ATOM      4  C   UNL     1     -12.673  17.358 -43.973  0.00  0.00    +0.000 A 
ATOM      5  C   UNL     1     -14.018  17.356 -43.586  0.00  0.00    +0.000 A 
ATOM      6  C   UNL     1     -13.059  18.692 -42.263  0.00  0.00    +0.000 A 
ATOM      7  C   UNL     1     -10.853  18.840 -42.934  0.00  0.00    +0.000 A 
ATOM      8  C   UNL     1     -10.840  19.676 -41.886  0.00  0.00    +0.000 A 
ENDROOT
BRANCH   5   9
ATOM      9  C   UNL     1     -15.103  16.594 -44.203  0.00  0.00    +0.000 A 
ATOM     10  C   UNL     1     -14.798  15.457 -44.965  0.00  0.00    +0.000 A 
ATOM     11  C   UNL     1     -16.451  16.951 -44.050  0.00  0.00    +0.000 A 
ATOM     12  C   UNL     1     -15.815  14.660 -45.501  0.00  0.00    +0.000 A 
ATOM     13  C   UNL     1     -17.468  16.146 -44.570  0.00  0.00    +0.000 A 
ATOM     14  C   UNL     1     -17.150  14.994 -45.285  0.00  0.00    +0.000 A 
ENDBRANCH   5   9
BRANCH   4  16
ATOM     15  N   UNL     1     -11.850  17.050 -46.257  0.00  0.00    +0.000 NA
ATOM     16  C   UNL     1     -12.020  16.646 -45.033  0.00  0.00    +0.000 C 
BRANCH  15  17
ATOM     17  O   UNL     1     -12.370  18.334 -46.481  0.00  0.00    +0.000 OA
BRANCH  17  18
ATOM     18  C   UNL     1     -12.839  18.479 -47.825  0.00  0.00    +0.000 C 
BRANCH  18  21
ATOM     19 CL   UNL     1     -12.537  15.909 -49.578  0.00  0.00    +0.000 Cl
ATOM     20 CL   UNL     1     -15.547  19.463 -46.632  0.00  0.00    +0.000 Cl
ATOM     21  C   UNL     1     -14.076  17.668 -48.125  0.00  0.00    +0.000 A 
ATOM     22  C   UNL     1     -14.023  16.510 -48.923  0.00  0.00    +0.000 A 
ATOM     23  C   UNL     1     -15.337  18.077 -47.652  0.00  0.00    +0.000 A 
ATOM     24  C   UNL     1     -15.183  15.783 -49.219  0.00  0.00    +0.000 A 
ATOM     25  C   UNL     1     -16.496  17.362 -47.972  0.00  0.00    +0.000 A 
ATOM     26  C   UNL     1     -16.420  16.213 -48.751  0.00  0.00    +0.000 A 
ENDBRANCH  18  21
ENDBRANCH  17  18
ENDBRANCH  15  17
ENDBRANCH   4  16
TORSDOF 5
ENDMDL
