MODEL 1
REMARK VINA RESULT:      -5.7      0.000      0.000
REMARK  Name = 3814067
REMARK  5 active torsions:
REMARK  status: ('A' for Active; 'I' for Inactive)
REMARK    1  A    between atoms: O_4  and  N_7
REMARK    2  A    between atoms: O_4  and  C_20
REMARK    3  A    between atoms: C_8  and  C_13
REMARK    4  A    between atoms: C_9  and  C_11
REMARK    5  A    between atoms: C_17  and  C_20
REMARK                            x       y       z     vdW  Elec       q    Type
REMARK                         _______ _______ _______ _____ _____    ______ ____
ROOT
ATOM      1  S   UNL     1      10.919  15.281  22.814  0.00  0.00    +0.000 S 
ATOM      2  N   UNL     1      12.602  13.358  23.033  0.00  0.00    +0.000 N 
ATOM      3  N   UNL     1      10.723  12.567  22.121  0.00  0.00    +0.000 NA
ATOM      4  C   UNL     1      12.835  12.013  22.870  0.00  0.00    +0.000 A 
ATOM      5  C   UNL     1      11.652  11.545  22.283  0.00  0.00    +0.000 A 
ATOM      6  C   UNL     1      11.332  13.604  22.620  0.00  0.00    +0.000 A 
ATOM      7  C   UNL     1      13.300  14.464  23.471  0.00  0.00    +0.000 A 
ATOM      8  C   UNL     1      12.546  15.572  23.450  0.00  0.00    +0.000 A 
ENDROOT
BRANCH   5   9
ATOM      9  C   UNL     1      11.376  10.177  21.847  0.00  0.00    +0.000 A 
ATOM     10  C   UNL     1      11.701   9.794  20.537  0.00  0.00    +0.000 A 
ATOM     11  C   UNL     1      10.805   9.220  22.698  0.00  0.00    +0.000 A 
ATOM     12  C   UNL     1      11.526   8.473  20.113  0.00  0.00    +0.000 A 
ATOM     13  C   UNL     1      10.646   7.895  22.281  0.00  0.00    +0.000 A 
ATOM     14  C   UNL     1      11.017   7.520  20.993  0.00  0.00    +0.000 A 
ENDBRANCH   5   9
BRANCH   4  16
ATOM     15  N   UNL     1      14.985  10.961  22.365  0.00  0.00    +0.000 NA
ATOM     16  C   UNL     1      14.043  11.309  23.190  0.00  0.00    +0.000 C 
BRANCH  15  17
ATOM     17  O   UNL     1      14.730  11.369  21.047  0.00  0.00    +0.000 OA
BRANCH  17  18
ATOM     18  C   UNL     1      15.689  10.821  20.137  0.00  0.00    +0.000 C 
BRANCH  18  21
ATOM     19 CL   UNL     1      16.185   7.882  21.080  0.00  0.00    +0.000 Cl
ATOM     20 CL   UNL     1      14.112  11.576  17.555  0.00  0.00    +0.000 Cl
ATOM     21  C   UNL     1      15.145   9.696  19.290  0.00  0.00    +0.000 A 
ATOM     22  C   UNL     1      15.345   8.347  19.639  0.00  0.00    +0.000 A 
ATOM     23  C   UNL     1      14.458   9.964  18.091  0.00  0.00    +0.000 A 
ATOM     24  C   UNL     1      14.861   7.312  18.829  0.00  0.00    +0.000 A 
ATOM     25  C   UNL     1      14.001   8.927  17.272  0.00  0.00    +0.000 A 
ATOM     26  C   UNL     1      14.197   7.600  17.642  0.00  0.00    +0.000 A 
ENDBRANCH  18  21
ENDBRANCH  17  18
ENDBRANCH  15  17
ENDBRANCH   4  16
TORSDOF 5
ENDMDL
MODEL 2
REMARK VINA RESULT:      -5.0      3.088      4.930
REMARK  Name = 3814067
REMARK  5 active torsions:
REMARK  status: ('A' for Active; 'I' for Inactive)
REMARK    1  A    between atoms: O_4  and  N_7
REMARK    2  A    between atoms: O_4  and  C_20
REMARK    3  A    between atoms: C_8  and  C_13
REMARK    4  A    between atoms: C_9  and  C_11
REMARK    5  A    between atoms: C_17  and  C_20
REMARK                            x       y       z     vdW  Elec       q    Type
REMARK                         _______ _______ _______ _____ _____    ______ ____
ROOT
ATOM      1  S   UNL     1      16.920  14.145  23.058  0.00  0.00    +0.000 S 
ATOM      2  N   UNL     1      16.262  12.752  21.007  0.00  0.00    +0.000 N 
ATOM      3  N   UNL     1      17.019  11.377  22.596  0.00  0.00    +0.000 NA
ATOM      4  C   UNL     1      16.216  11.503  20.436  0.00  0.00    +0.000 A 
ATOM      5  C   UNL     1      16.678  10.660  21.454  0.00  0.00    +0.000 A 
ATOM      6  C   UNL     1      16.786  12.611  22.252  0.00  0.00    +0.000 A 
ATOM      7  C   UNL     1      15.914  14.041  20.662  0.00  0.00    +0.000 A 
ATOM      8  C   UNL     1      16.222  14.919  21.626  0.00  0.00    +0.000 A 
ENDROOT
BRANCH   5   9
ATOM      9  C   UNL     1      16.786   9.203  21.400  0.00  0.00    +0.000 A 
ATOM     10  C   UNL     1      15.623   8.423  21.490  0.00  0.00    +0.000 A 
ATOM     11  C   UNL     1      18.017   8.548  21.247  0.00  0.00    +0.000 A 
ATOM     12  C   UNL     1      15.682   7.032  21.360  0.00  0.00    +0.000 A 
ATOM     13  C   UNL     1      18.075   7.159  21.099  0.00  0.00    +0.000 A 
ATOM     14  C   UNL     1      16.907   6.403  21.143  0.00  0.00    +0.000 A 
ENDBRANCH   5   9
BRANCH   4  16
ATOM     15  N   UNL     1      14.534  10.853  18.783  0.00  0.00    +0.000 NA
ATOM     16  C   UNL     1      15.745  11.181  19.119  0.00  0.00    +0.000 C 
BRANCH  15  17
ATOM     17  O   UNL     1      13.649  10.854  19.872  0.00  0.00    +0.000 OA
BRANCH  17  18
ATOM     18  C   UNL     1      12.385  10.283  19.517  0.00  0.00    +0.000 C 
BRANCH  18  21
ATOM     19 CL   UNL     1      13.135   7.528  18.245  0.00  0.00    +0.000 Cl
ATOM     20 CL   UNL     1      11.009  10.598  22.298  0.00  0.00    +0.000 Cl
ATOM     21  C   UNL     1      12.054   9.027  20.285  0.00  0.00    +0.000 A 
ATOM     22  C   UNL     1      12.343   7.749  19.769  0.00  0.00    +0.000 A 
ATOM     23  C   UNL     1      11.396   9.094  21.528  0.00  0.00    +0.000 A 
ATOM     24  C   UNL     1      12.002   6.590  20.477  0.00  0.00    +0.000 A 
ATOM     25  C   UNL     1      11.034   7.933  22.219  0.00  0.00    +0.000 A 
ATOM     26  C   UNL     1      11.341   6.680  21.697  0.00  0.00    +0.000 A 
ENDBRANCH  18  21
ENDBRANCH  17  18
ENDBRANCH  15  17
ENDBRANCH   4  16
TORSDOF 5
ENDMDL
MODEL 3
REMARK VINA RESULT:      -5.0     24.655     26.369
REMARK  Name = 3814067
REMARK  5 active torsions:
REMARK  status: ('A' for Active; 'I' for Inactive)
REMARK    1  A    between atoms: O_4  and  N_7
REMARK    2  A    between atoms: O_4  and  C_20
REMARK    3  A    between atoms: C_8  and  C_13
REMARK    4  A    between atoms: C_9  and  C_11
REMARK    5  A    between atoms: C_17  and  C_20
REMARK                            x       y       z     vdW  Elec       q    Type
REMARK                         _______ _______ _______ _____ _____    ______ ____
ROOT
ATOM      1  S   UNL     1     -13.868  15.343  22.942  0.00  0.00    +0.000 S 
ATOM      2  N   UNL     1     -14.531  13.049  23.878  0.00  0.00    +0.000 N 
ATOM      3  N   UNL     1     -12.622  13.694  24.842  0.00  0.00    +0.000 NA
ATOM      4  C   UNL     1     -14.187  12.003  24.700  0.00  0.00    +0.000 A 
ATOM      5  C   UNL     1     -13.000  12.438  25.304  0.00  0.00    +0.000 A 
ATOM      6  C   UNL     1     -13.548  13.982  23.973  0.00  0.00    +0.000 A 
ATOM      7  C   UNL     1     -15.573  13.382  23.037  0.00  0.00    +0.000 A 
ATOM      8  C   UNL     1     -15.371  14.560  22.431  0.00  0.00    +0.000 A 
ENDROOT
BRANCH   5   9
ATOM      9  C   UNL     1     -12.224  11.725  26.318  0.00  0.00    +0.000 A 
ATOM     10  C   UNL     1     -12.382  12.065  27.669  0.00  0.00    +0.000 A 
ATOM     11  C   UNL     1     -11.331  10.694  25.990  0.00  0.00    +0.000 A 
ATOM     12  C   UNL     1     -11.717  11.349  28.670  0.00  0.00    +0.000 A 
ATOM     13  C   UNL     1     -10.680   9.966  26.990  0.00  0.00    +0.000 A 
ATOM     14  C   UNL     1     -10.882  10.286  28.330  0.00  0.00    +0.000 A 
ENDBRANCH   5   9
BRANCH   4  16
ATOM     15  N   UNL     1     -14.725   9.646  24.324  0.00  0.00    +0.000 NA
ATOM     16  C   UNL     1     -14.931  10.793  24.900  0.00  0.00    +0.000 C 
BRANCH  15  17
ATOM     17  O   UNL     1     -13.632   9.669  23.444  0.00  0.00    +0.000 OA
BRANCH  17  18
ATOM     18  C   UNL     1     -13.980   9.126  22.167  0.00  0.00    +0.000 C 
BRANCH  18  21
ATOM     19 CL   UNL     1     -12.864   6.307  21.405  0.00  0.00    +0.000 Cl
ATOM     20 CL   UNL     1     -12.854  11.806  21.039  0.00  0.00    +0.000 Cl
ATOM     21  C   UNL     1     -12.819   9.052  21.205  0.00  0.00    +0.000 A 
ATOM     22  C   UNL     1     -12.250   7.820  20.830  0.00  0.00    +0.000 A 
ATOM     23  C   UNL     1     -12.236  10.224  20.689  0.00  0.00    +0.000 A 
ATOM     24  C   UNL     1     -11.153   7.766  19.961  0.00  0.00    +0.000 A 
ATOM     25  C   UNL     1     -11.124  10.166  19.842  0.00  0.00    +0.000 A 
ATOM     26  C   UNL     1     -10.585   8.938  19.473  0.00  0.00    +0.000 A 
ENDBRANCH  18  21
ENDBRANCH  17  18
ENDBRANCH  15  17
ENDBRANCH   4  16
TORSDOF 5
ENDMDL
MODEL 4
REMARK VINA RESULT:      -4.9      2.994      4.759
REMARK  Name = 3814067
REMARK  5 active torsions:
REMARK  status: ('A' for Active; 'I' for Inactive)
REMARK    1  A    between atoms: O_4  and  N_7
REMARK    2  A    between atoms: O_4  and  C_20
REMARK    3  A    between atoms: C_8  and  C_13
REMARK    4  A    between atoms: C_9  and  C_11
REMARK    5  A    between atoms: C_17  and  C_20
REMARK                            x       y       z     vdW  Elec       q    Type
REMARK                         _______ _______ _______ _____ _____    ______ ____
ROOT
ATOM      1  S   UNL     1      16.446  14.006  23.451  0.00  0.00    +0.000 S 
ATOM      2  N   UNL     1      16.041  12.774  21.238  0.00  0.00    +0.000 N 
ATOM      3  N   UNL     1      16.612  11.280  22.797  0.00  0.00    +0.000 NA
ATOM      4  C   UNL     1      16.069  11.572  20.573  0.00  0.00    +0.000 A 
ATOM      5  C   UNL     1      16.412  10.653  21.572  0.00  0.00    +0.000 A 
ATOM      6  C   UNL     1      16.415  12.538  22.522  0.00  0.00    +0.000 A 
ATOM      7  C   UNL     1      15.730  14.088  20.952  0.00  0.00    +0.000 A 
ATOM      8  C   UNL     1      15.918  14.888  22.010  0.00  0.00    +0.000 A 
ENDROOT
BRANCH   5   9
ATOM      9  C   UNL     1      16.532   9.203  21.422  0.00  0.00    +0.000 A 
ATOM     10  C   UNL     1      17.807   8.626  21.323  0.00  0.00    +0.000 A 
ATOM     11  C   UNL     1      15.413   8.358  21.386  0.00  0.00    +0.000 A 
ATOM     12  C   UNL     1      17.961   7.237  21.260  0.00  0.00    +0.000 A 
ATOM     13  C   UNL     1      15.567   6.969  21.341  0.00  0.00    +0.000 A 
ATOM     14  C   UNL     1      16.840   6.409  21.290  0.00  0.00    +0.000 A 
ENDBRANCH   5   9
BRANCH   4  16
ATOM     15  N   UNL     1      14.607  11.012  18.693  0.00  0.00    +0.000 NA
ATOM     16  C   UNL     1      15.759  11.353  19.190  0.00  0.00    +0.000 C 
BRANCH  15  17
ATOM     17  O   UNL     1      13.610  10.883  19.673  0.00  0.00    +0.000 OA
BRANCH  17  18
ATOM     18  C   UNL     1      12.474  10.174  19.170  0.00  0.00    +0.000 C 
BRANCH  18  21
ATOM     19 CL   UNL     1      11.161  10.814  21.934  0.00  0.00    +0.000 Cl
ATOM     20 CL   UNL     1      12.936   7.285  18.091  0.00  0.00    +0.000 Cl
ATOM     21  C   UNL     1      12.047   9.019  20.044  0.00  0.00    +0.000 A 
ATOM     22  C   UNL     1      11.467   9.228  21.309  0.00  0.00    +0.000 A 
ATOM     23  C   UNL     1      12.263   7.689  19.636  0.00  0.00    +0.000 A 
ATOM     24  C   UNL     1      11.104   8.148  22.124  0.00  0.00    +0.000 A 
ATOM     25  C   UNL     1      11.923   6.615  20.465  0.00  0.00    +0.000 A 
ATOM     26  C   UNL     1      11.338   6.843  21.707  0.00  0.00    +0.000 A 
ENDBRANCH  18  21
ENDBRANCH  17  18
ENDBRANCH  15  17
ENDBRANCH   4  16
TORSDOF 5
ENDMDL
MODEL 5
REMARK VINA RESULT:      -4.9     10.775     13.316
REMARK  Name = 3814067
REMARK  5 active torsions:
REMARK  status: ('A' for Active; 'I' for Inactive)
REMARK    1  A    between atoms: O_4  and  N_7
REMARK    2  A    between atoms: O_4  and  C_20
REMARK    3  A    between atoms: C_8  and  C_13
REMARK    4  A    between atoms: C_9  and  C_11
REMARK    5  A    between atoms: C_17  and  C_20
REMARK                            x       y       z     vdW  Elec       q    Type
REMARK                         _______ _______ _______ _____ _____    ______ ____
ROOT
ATOM      1  S   UNL     1       5.434  20.486  23.621  0.00  0.00    +0.000 S 
ATOM      2  N   UNL     1       4.646  18.048  23.741  0.00  0.00    +0.000 N 
ATOM      3  N   UNL     1       4.838  18.636  21.595  0.00  0.00    +0.000 NA
ATOM      4  C   UNL     1       4.239  16.939  23.040  0.00  0.00    +0.000 A 
ATOM      5  C   UNL     1       4.384  17.326  21.702  0.00  0.00    +0.000 A 
ATOM      6  C   UNL     1       4.935  19.018  22.836  0.00  0.00    +0.000 A 
ATOM      7  C   UNL     1       4.841  18.403  25.060  0.00  0.00    +0.000 A 
ATOM      8  C   UNL     1       5.233  19.678  25.183  0.00  0.00    +0.000 A 
ENDROOT
BRANCH   5   9
ATOM      9  C   UNL     1       4.135  16.499  20.522  0.00  0.00    +0.000 A 
ATOM     10  C   UNL     1       2.829  16.392  20.021  0.00  0.00    +0.000 A 
ATOM     11  C   UNL     1       5.162  15.814  19.856  0.00  0.00    +0.000 A 
ATOM     12  C   UNL     1       2.569  15.676  18.848  0.00  0.00    +0.000 A 
ATOM     13  C   UNL     1       4.906  15.114  18.674  0.00  0.00    +0.000 A 
ATOM     14  C   UNL     1       3.612  15.055  18.164  0.00  0.00    +0.000 A 
ENDBRANCH   5   9
BRANCH   4  16
ATOM     15  N   UNL     1       2.604  15.301  23.834  0.00  0.00    +0.000 NA
ATOM     16  C   UNL     1       3.823  15.683  23.594  0.00  0.00    +0.000 C 
BRANCH  15  17
ATOM     17  O   UNL     1       1.652  16.265  23.470  0.00  0.00    +0.000 OA
BRANCH  17  18
ATOM     18  C   UNL     1       0.346  15.691  23.358  0.00  0.00    +0.000 C 
BRANCH  18  21
ATOM     19 CL   UNL     1      -1.074  18.474  23.417  0.00  0.00    +0.000 Cl
ATOM     20 CL   UNL     1       0.325  13.779  20.894  0.00  0.00    +0.000 Cl
ATOM     21  C   UNL     1      -0.407  16.136  22.127  0.00  0.00    +0.000 A 
ATOM     22  C   UNL     1      -1.087  17.368  22.085  0.00  0.00    +0.000 A 
ATOM     23  C   UNL     1      -0.491  15.305  20.994  0.00  0.00    +0.000 A 
ATOM     24  C   UNL     1      -1.808  17.757  20.949  0.00  0.00    +0.000 A 
ATOM     25  C   UNL     1      -1.234  15.687  19.872  0.00  0.00    +0.000 A 
ATOM     26  C   UNL     1      -1.888  16.914  19.846  0.00  0.00    +0.000 A 
ENDBRANCH  18  21
ENDBRANCH  17  18
ENDBRANCH  15  17
ENDBRANCH   4  16
TORSDOF 5
ENDMDL
MODEL 6
REMARK VINA RESULT:      -4.8     26.122     28.202
REMARK  Name = 3814067
REMARK  5 active torsions:
REMARK  status: ('A' for Active; 'I' for Inactive)
REMARK    1  A    between atoms: O_4  and  N_7
REMARK    2  A    between atoms: O_4  and  C_20
REMARK    3  A    between atoms: C_8  and  C_13
REMARK    4  A    between atoms: C_9  and  C_11
REMARK    5  A    between atoms: C_17  and  C_20
REMARK                            x       y       z     vdW  Elec       q    Type
REMARK                         _______ _______ _______ _____ _____    ______ ____
ROOT
ATOM      1  S   UNL     1     -16.885   4.061  22.815  0.00  0.00    +0.000 S 
ATOM      2  N   UNL     1     -16.512   6.530  22.226  0.00  0.00    +0.000 N 
ATOM      3  N   UNL     1     -16.464   5.327  20.344  0.00  0.00    +0.000 NA
ATOM      4  C   UNL     1     -16.245   7.445  21.237  0.00  0.00    +0.000 A 
ATOM      5  C   UNL     1     -16.236   6.672  20.069  0.00  0.00    +0.000 A 
ATOM      6  C   UNL     1     -16.580   5.306  21.641  0.00  0.00    +0.000 A 
ATOM      7  C   UNL     1     -16.734   6.540  23.588  0.00  0.00    +0.000 A 
ATOM      8  C   UNL     1     -16.921   5.305  24.074  0.00  0.00    +0.000 A 
ENDROOT
BRANCH   5   9
ATOM      9  C   UNL     1     -16.047   7.156  18.702  0.00  0.00    +0.000 A 
ATOM     10  C   UNL     1     -14.885   7.873  18.382  0.00  0.00    +0.000 A 
ATOM     11  C   UNL     1     -16.984   6.917  17.686  0.00  0.00    +0.000 A 
ATOM     12  C   UNL     1     -14.635   8.280  17.067  0.00  0.00    +0.000 A 
ATOM     13  C   UNL     1     -16.727   7.306  16.369  0.00  0.00    +0.000 A 
ATOM     14  C   UNL     1     -15.547   7.977  16.058  0.00  0.00    +0.000 A 
ENDBRANCH   5   9
BRANCH   4  16
ATOM     15  N   UNL     1     -14.991   9.479  21.763  0.00  0.00    +0.000 NA
ATOM     16  C   UNL     1     -16.076   8.860  21.404  0.00  0.00    +0.000 C 
BRANCH  15  17
ATOM     17  O   UNL     1     -13.912   8.606  21.971  0.00  0.00    +0.000 OA
BRANCH  17  18
ATOM     18  C   UNL     1     -12.661   9.254  21.717  0.00  0.00    +0.000 C 
BRANCH  18  21
ATOM     19 CL   UNL     1     -12.014  11.524  19.668  0.00  0.00    +0.000 Cl
ATOM     20 CL   UNL     1     -12.077   6.233  21.208  0.00  0.00    +0.000 Cl
ATOM     21  C   UNL     1     -12.040   8.870  20.396  0.00  0.00    +0.000 A 
ATOM     22  C   UNL     1     -11.738   9.834  19.415  0.00  0.00    +0.000 A 
ATOM     23  C   UNL     1     -11.787   7.521  20.084  0.00  0.00    +0.000 A 
ATOM     24  C   UNL     1     -11.190   9.461  18.181  0.00  0.00    +0.000 A 
ATOM     25  C   UNL     1     -11.264   7.152  18.840  0.00  0.00    +0.000 A 
ATOM     26  C   UNL     1     -10.961   8.121  17.890  0.00  0.00    +0.000 A 
ENDBRANCH  18  21
ENDBRANCH  17  18
ENDBRANCH  15  17
ENDBRANCH   4  16
TORSDOF 5
ENDMDL
MODEL 7
REMARK VINA RESULT:      -4.8      2.901      5.278
REMARK  Name = 3814067
REMARK  5 active torsions:
REMARK  status: ('A' for Active; 'I' for Inactive)
REMARK    1  A    between atoms: O_4  and  N_7
REMARK    2  A    between atoms: O_4  and  C_20
REMARK    3  A    between atoms: C_8  and  C_13
REMARK    4  A    between atoms: C_9  and  C_11
REMARK    5  A    between atoms: C_17  and  C_20
REMARK                            x       y       z     vdW  Elec       q    Type
REMARK                         _______ _______ _______ _____ _____    ______ ____
ROOT
ATOM      1  S   UNL     1      15.425  14.565  24.983  0.00  0.00    +0.000 S 
ATOM      2  N   UNL     1      13.183  13.325  25.116  0.00  0.00    +0.000 N 
ATOM      3  N   UNL     1      12.821  15.380  24.318  0.00  0.00    +0.000 NA
ATOM      4  C   UNL     1      11.821  13.397  24.948  0.00  0.00    +0.000 A 
ATOM      5  C   UNL     1      11.622  14.684  24.432  0.00  0.00    +0.000 A 
ATOM      6  C   UNL     1      13.700  14.534  24.776  0.00  0.00    +0.000 A 
ATOM      7  C   UNL     1      14.111  12.382  25.508  0.00  0.00    +0.000 A 
ATOM      8  C   UNL     1      15.355  12.880  25.524  0.00  0.00    +0.000 A 
ENDROOT
BRANCH   5   9
ATOM      9  C   UNL     1      10.349  15.273  24.020  0.00  0.00    +0.000 A 
ATOM     10  C   UNL     1       9.959  16.510  24.553  0.00  0.00    +0.000 A 
ATOM     11  C   UNL     1       9.501  14.650  23.093  0.00  0.00    +0.000 A 
ATOM     12  C   UNL     1       8.788  17.140  24.119  0.00  0.00    +0.000 A 
ATOM     13  C   UNL     1       8.339  15.286  22.645  0.00  0.00    +0.000 A 
ATOM     14  C   UNL     1       7.990  16.536  23.149  0.00  0.00    +0.000 A 
ENDBRANCH   5   9
BRANCH   4  16
ATOM     15  N   UNL     1      10.500  11.418  24.379  0.00  0.00    +0.000 NA
ATOM     16  C   UNL     1      10.872  12.352  25.203  0.00  0.00    +0.000 C 
BRANCH  15  17
ATOM     17  O   UNL     1      11.155  11.495  23.140  0.00  0.00    +0.000 OA
BRANCH  17  18
ATOM     18  C   UNL     1      12.025  10.376  22.940  0.00  0.00    +0.000 C 
BRANCH  18  21
ATOM     19 CL   UNL     1      13.743  11.896  20.817  0.00  0.00    +0.000 Cl
ATOM     20 CL   UNL     1      10.329   7.835  22.309  0.00  0.00    +0.000 Cl
ATOM     21  C   UNL     1      12.029   9.861  21.521  0.00  0.00    +0.000 A 
ATOM     22  C   UNL     1      12.763  10.504  20.506  0.00  0.00    +0.000 A 
ATOM     23  C   UNL     1      11.254   8.743  21.158  0.00  0.00    +0.000 A 
ATOM     24  C   UNL     1      12.734  10.034  19.186  0.00  0.00    +0.000 A 
ATOM     25  C   UNL     1      11.208   8.295  19.834  0.00  0.00    +0.000 A 
ATOM     26  C   UNL     1      11.952   8.936  18.848  0.00  0.00    +0.000 A 
ENDBRANCH  18  21
ENDBRANCH  17  18
ENDBRANCH  15  17
ENDBRANCH   4  16
TORSDOF 5
ENDMDL
MODEL 8
REMARK VINA RESULT:      -4.7      2.904      5.673
REMARK  Name = 3814067
REMARK  5 active torsions:
REMARK  status: ('A' for Active; 'I' for Inactive)
REMARK    1  A    between atoms: O_4  and  N_7
REMARK    2  A    between atoms: O_4  and  C_20
REMARK    3  A    between atoms: C_8  and  C_13
REMARK    4  A    between atoms: C_9  and  C_11
REMARK    5  A    between atoms: C_17  and  C_20
REMARK                            x       y       z     vdW  Elec       q    Type
REMARK                         _______ _______ _______ _____ _____    ______ ____
ROOT
ATOM      1  S   UNL     1      15.555  12.267  16.988  0.00  0.00    +0.000 S 
ATOM      2  N   UNL     1      15.615  11.452  19.419  0.00  0.00    +0.000 N 
ATOM      3  N   UNL     1      13.958  10.403  18.349  0.00  0.00    +0.000 NA
ATOM      4  C   UNL     1      15.025  10.665  20.379  0.00  0.00    +0.000 A 
ATOM      5  C   UNL     1      14.004  10.007  19.682  0.00  0.00    +0.000 A 
ATOM      6  C   UNL     1      14.911  11.286  18.269  0.00  0.00    +0.000 A 
ATOM      7  C   UNL     1      16.692  12.308  19.326  0.00  0.00    +0.000 A 
ATOM      8  C   UNL     1      16.792  12.857  18.108  0.00  0.00    +0.000 A 
ENDROOT
BRANCH   5   9
ATOM      9  C   UNL     1      13.088   9.002  20.219  0.00  0.00    +0.000 A 
ATOM     10  C   UNL     1      11.712   9.274  20.252  0.00  0.00    +0.000 A 
ATOM     11  C   UNL     1      13.533   7.759  20.692  0.00  0.00    +0.000 A 
ATOM     12  C   UNL     1      10.801   8.304  20.683  0.00  0.00    +0.000 A 
ATOM     13  C   UNL     1      12.622   6.783  21.106  0.00  0.00    +0.000 A 
ATOM     14  C   UNL     1      11.256   7.051  21.090  0.00  0.00    +0.000 A 
ENDBRANCH   5   9
BRANCH   4  16
ATOM     15  N   UNL     1      14.952  11.188  22.768  0.00  0.00    +0.000 NA
ATOM     16  C   UNL     1      15.432  10.539  21.749  0.00  0.00    +0.000 C 
BRANCH  15  17
ATOM     17  O   UNL     1      13.920  12.069  22.413  0.00  0.00    +0.000 OA
BRANCH  17  18
ATOM     18  C   UNL     1      12.647  11.587  22.858  0.00  0.00    +0.000 C 
BRANCH  18  21
ATOM     19 CL   UNL     1      12.193  13.078  20.148  0.00  0.00    +0.000 Cl
ATOM     20 CL   UNL     1      10.953  12.091  25.427  0.00  0.00    +0.000 Cl
ATOM     21  C   UNL     1      11.551  12.622  22.786  0.00  0.00    +0.000 A 
ATOM     22  C   UNL     1      11.299  13.349  21.607  0.00  0.00    +0.000 A 
ATOM     23  C   UNL     1      10.775  12.929  23.919  0.00  0.00    +0.000 A 
ATOM     24  C   UNL     1      10.299  14.329  21.561  0.00  0.00    +0.000 A 
ATOM     25  C   UNL     1       9.795  13.927  23.876  0.00  0.00    +0.000 A 
ATOM     26  C   UNL     1       9.553  14.624  22.697  0.00  0.00    +0.000 A 
ENDBRANCH  18  21
ENDBRANCH  17  18
ENDBRANCH  15  17
ENDBRANCH   4  16
TORSDOF 5
ENDMDL
MODEL 9
REMARK VINA RESULT:      -4.7     30.368     33.315
REMARK  Name = 3814067
REMARK  5 active torsions:
REMARK  status: ('A' for Active; 'I' for Inactive)
REMARK    1  A    between atoms: O_4  and  N_7
REMARK    2  A    between atoms: O_4  and  C_20
REMARK    3  A    between atoms: C_8  and  C_13
REMARK    4  A    between atoms: C_9  and  C_11
REMARK    5  A    between atoms: C_17  and  C_20
REMARK                            x       y       z     vdW  Elec       q    Type
REMARK                         _______ _______ _______ _____ _____    ______ ____
ROOT
ATOM      1  S   UNL     1      -6.544 -10.848  40.744  0.00  0.00    +0.000 S 
ATOM      2  N   UNL     1      -6.706  -8.485  39.760  0.00  0.00    +0.000 N 
ATOM      3  N   UNL     1      -4.776  -8.671  40.868  0.00  0.00    +0.000 NA
ATOM      4  C   UNL     1      -6.127  -7.243  39.657  0.00  0.00    +0.000 A 
ATOM      5  C   UNL     1      -4.914  -7.390  40.343  0.00  0.00    +0.000 A 
ATOM      6  C   UNL     1      -5.887  -9.255  40.521  0.00  0.00    +0.000 A 
ATOM      7  C   UNL     1      -7.841  -9.119  39.298  0.00  0.00    +0.000 A 
ATOM      8  C   UNL     1      -7.932 -10.377  39.751  0.00  0.00    +0.000 A 
ENDROOT
BRANCH   5   9
ATOM      9  C   UNL     1      -3.871  -6.378  40.499  0.00  0.00    +0.000 A 
ATOM     10  C   UNL     1      -3.757  -5.690  41.717  0.00  0.00    +0.000 A 
ATOM     11  C   UNL     1      -2.962  -6.074  39.475  0.00  0.00    +0.000 A 
ATOM     12  C   UNL     1      -2.721  -4.775  41.928  0.00  0.00    +0.000 A 
ATOM     13  C   UNL     1      -1.916  -5.173  39.691  0.00  0.00    +0.000 A 
ATOM     14  C   UNL     1      -1.788  -4.533  40.921  0.00  0.00    +0.000 A 
ENDBRANCH   5   9
BRANCH   4  16
ATOM     15  N   UNL     1      -7.530  -5.256  39.396  0.00  0.00    +0.000 NA
ATOM     16  C   UNL     1      -6.654  -6.109  38.955  0.00  0.00    +0.000 C 
BRANCH  15  17
ATOM     17  O   UNL     1      -7.939  -5.529  40.710  0.00  0.00    +0.000 OA
BRANCH  17  18
ATOM     18  C   UNL     1      -8.145  -4.323  41.452  0.00  0.00    +0.000 C 
BRANCH  18  21
ATOM     19 CL   UNL     1     -10.289  -5.689  43.271  0.00  0.00    +0.000 Cl
ATOM     20 CL   UNL     1      -8.755  -1.944  39.531  0.00  0.00    +0.000 Cl
ATOM     21  C   UNL     1      -9.564  -3.813  41.392  0.00  0.00    +0.000 A 
ATOM     22  C   UNL     1     -10.589  -4.390  42.166  0.00  0.00    +0.000 A 
ATOM     23  C   UNL     1      -9.918  -2.768  40.517  0.00  0.00    +0.000 A 
ATOM     24  C   UNL     1     -11.908  -3.927  42.079  0.00  0.00    +0.000 A 
ATOM     25  C   UNL     1     -11.242  -2.328  40.414  0.00  0.00    +0.000 A 
ATOM     26  C   UNL     1     -12.237  -2.903  41.198  0.00  0.00    +0.000 A 
ENDBRANCH  18  21
ENDBRANCH  17  18
ENDBRANCH  15  17
ENDBRANCH   4  16
TORSDOF 5
ENDMDL
MODEL 10
REMARK VINA RESULT:      -4.6     30.321     32.228
REMARK  Name = 3814067
REMARK  5 active torsions:
REMARK  status: ('A' for Active; 'I' for Inactive)
REMARK    1  A    between atoms: O_4  and  N_7
REMARK    2  A    between atoms: O_4  and  C_20
REMARK    3  A    between atoms: C_8  and  C_13
REMARK    4  A    between atoms: C_9  and  C_11
REMARK    5  A    between atoms: C_17  and  C_20
REMARK                            x       y       z     vdW  Elec       q    Type
REMARK                         _______ _______ _______ _____ _____    ______ ____
ROOT
ATOM      1  S   UNL     1     -18.545   6.243  25.857  0.00  0.00    +0.000 S 
ATOM      2  N   UNL     1     -18.904   5.019  28.083  0.00  0.00    +0.000 N 
ATOM      3  N   UNL     1     -16.871   4.516  27.307  0.00  0.00    +0.000 NA
ATOM      4  C   UNL     1     -18.392   4.133  29.000  0.00  0.00    +0.000 A 
ATOM      5  C   UNL     1     -17.115   3.847  28.502  0.00  0.00    +0.000 A 
ATOM      6  C   UNL     1     -17.983   5.160  27.095  0.00  0.00    +0.000 A 
ATOM      7  C   UNL     1     -20.049   5.773  27.927  0.00  0.00    +0.000 A 
ATOM      8  C   UNL     1     -20.040   6.465  26.779  0.00  0.00    +0.000 A 
ENDROOT
BRANCH   5   9
ATOM      9  C   UNL     1     -16.108   2.988  29.122  0.00  0.00    +0.000 A 
ATOM     10  C   UNL     1     -14.904   3.553  29.570  0.00  0.00    +0.000 A 
ATOM     11  C   UNL     1     -16.305   1.611  29.301  0.00  0.00    +0.000 A 
ATOM     12  C   UNL     1     -13.954   2.775  30.240  0.00  0.00    +0.000 A 
ATOM     13  C   UNL     1     -15.365   0.837  29.987  0.00  0.00    +0.000 A 
ATOM     14  C   UNL     1     -14.196   1.421  30.467  0.00  0.00    +0.000 A 
ENDBRANCH   5   9
BRANCH   4  16
ATOM     15  N   UNL     1     -19.042   4.278  31.355  0.00  0.00    +0.000 NA
ATOM     16  C   UNL     1     -19.033   3.680  30.201  0.00  0.00    +0.000 C 
BRANCH  15  17
ATOM     17  O   UNL     1     -18.347   5.498  31.338  0.00  0.00    +0.000 OA
BRANCH  17  18
ATOM     18  C   UNL     1     -17.836   5.824  32.635  0.00  0.00    +0.000 C 
BRANCH  18  21
ATOM     19 CL   UNL     1     -15.980   3.371  33.189  0.00  0.00    +0.000 Cl
ATOM     20 CL   UNL     1     -16.789   8.712  32.098  0.00  0.00    +0.000 Cl
ATOM     21  C   UNL     1     -16.344   6.047  32.657  0.00  0.00    +0.000 A 
ATOM     22  C   UNL     1     -15.445   4.995  32.919  0.00  0.00    +0.000 A 
ATOM     23  C   UNL     1     -15.804   7.333  32.463  0.00  0.00    +0.000 A 
ATOM     24  C   UNL     1     -14.063   5.221  32.967  0.00  0.00    +0.000 A 
ATOM     25  C   UNL     1     -14.426   7.557  32.539  0.00  0.00    +0.000 A 
ATOM     26  C   UNL     1     -13.554   6.502  32.786  0.00  0.00    +0.000 A 
ENDBRANCH  18  21
ENDBRANCH  17  18
ENDBRANCH  15  17
ENDBRANCH   4  16
TORSDOF 5
ENDMDL
