REMARK  Name = 3814067
REMARK  5 active torsions:
REMARK  status: ('A' for Active; 'I' for Inactive)
REMARK    1  A    between atoms: O_4  and  N_7
REMARK    2  A    between atoms: O_4  and  C_20
REMARK    3  A    between atoms: C_8  and  C_13
REMARK    4  A    between atoms: C_9  and  C_11
REMARK    5  A    between atoms: C_17  and  C_20
REMARK                            x       y       z     vdW  Elec       q    Type
REMARK                         _______ _______ _______ _____ _____    ______ ____
ROOT
ATOM      1  S   UNL     1       5.491   4.669   4.448  0.00  0.00    +0.000 S 
ATOM      2  N   UNL     1       3.226   3.549   4.007  0.00  0.00    +0.000 N 
ATOM      3  N   UNL     1       3.388   5.371   2.725  0.00  0.00    +0.000 NA
ATOM      4  C   UNL     1       2.025   3.613   3.342  0.00  0.00    +0.000 A 
ATOM      5  C   UNL     1       2.158   4.750   2.535  0.00  0.00    +0.000 A 
ATOM      6  C   UNL     1       3.955   4.633   3.636  0.00  0.00    +0.000 A 
ATOM      7  C   UNL     1       3.852   2.700   4.896  0.00  0.00    +0.000 A 
ATOM      8  C   UNL     1       5.057   3.158   5.262  0.00  0.00    +0.000 A 
ENDROOT
BRANCH   5   9
ATOM      9  C   UNL     1       1.180   5.258   1.574  0.00  0.00    +0.000 A 
ATOM     10  C   UNL     1       1.629   5.905   0.413  0.00  0.00    +0.000 A 
ATOM     11  C   UNL     1      -0.202   5.110   1.762  0.00  0.00    +0.000 A 
ATOM     12  C   UNL     1       0.724   6.330  -0.565  0.00  0.00    +0.000 A 
ATOM     13  C   UNL     1      -1.106   5.518   0.777  0.00  0.00    +0.000 A 
ATOM     14  C   UNL     1      -0.642   6.117  -0.391  0.00  0.00    +0.000 A 
ENDBRANCH   5   9
BRANCH   4  16
ATOM     15  N   UNL     1       0.466   2.150   4.531  0.00  0.00    +0.000 NA
ATOM     16  C   UNL     1       0.941   2.679   3.443  0.00  0.00    +0.000 C 
BRANCH  15  17
ATOM     17  O   UNL     1       1.121   2.604   5.686  0.00  0.00    +0.000 OA
BRANCH  17  18
ATOM     18  C   UNL     1       0.338   2.360   6.859  0.00  0.00    +0.000 C 
BRANCH  18  21
ATOM     19 CL   UNL     1       2.378   0.500   8.325  0.00  0.00    +0.000 Cl
ATOM     20 CL   UNL     1      -2.428   1.402   5.783  0.00  0.00    +0.000 Cl
ATOM     21  C   UNL     1      -0.027   0.908   7.050  0.00  0.00    +0.000 A 
ATOM     22  C   UNL     1       0.848   0.005   7.683  0.00  0.00    +0.000 A 
ATOM     23  C   UNL     1      -1.242   0.399   6.553  0.00  0.00    +0.000 A 
ATOM     24  C   UNL     1       0.511  -1.347   7.827  0.00  0.00    +0.000 A 
ATOM     25  C   UNL     1      -1.562  -0.957   6.676  0.00  0.00    +0.000 A 
ATOM     26  C   UNL     1      -0.689  -1.830   7.317  0.00  0.00    +0.000 A 
ENDBRANCH  18  21
ENDBRANCH  17  18
ENDBRANCH  15  17
ENDBRANCH   4  16
TORSDOF 5
