MODEL 1
REMARK VINA RESULT:      -5.7      0.000      0.000
REMARK  Name = 3816731
REMARK  7 active torsions:
REMARK  status: ('A' for Active; 'I' for Inactive)
REMARK    1  A    between atoms: S_3  and  C_10
REMARK    2  A    between atoms: S_3  and  C_13
REMARK    3  A    between atoms: O_5  and  N_8
REMARK    4  A    between atoms: O_5  and  C_20
REMARK    5  A    between atoms: C_9  and  C_15
REMARK    6  A    between atoms: C_13  and  C_14
REMARK    7  A    between atoms: C_17  and  C_20
REMARK                            x       y       z     vdW  Elec       q    Type
REMARK                         _______ _______ _______ _____ _____    ______ ____
ROOT
ATOM      1  S   UNL     1     -23.984   8.521 -48.910  0.00  0.00    +0.000 S 
ATOM      2  N   UNL     1     -24.960   6.660 -50.387  0.00  0.00    +0.000 N 
ATOM      3  N   UNL     1     -23.309   7.672 -51.509  0.00  0.00    +0.000 NA
ATOM      4  C   UNL     1     -24.935   6.041 -51.616  0.00  0.00    +0.000 A 
ATOM      5  C   UNL     1     -23.902   6.700 -52.284  0.00  0.00    +0.000 A 
ATOM      6  C   UNL     1     -23.996   7.616 -50.399  0.00  0.00    +0.000 A 
ATOM      7  C   UNL     1     -25.687   6.579 -49.214  0.00  0.00    +0.000 A 
ATOM      8  C   UNL     1     -25.327   7.529 -48.334  0.00  0.00    +0.000 A 
ENDROOT
BRANCH   4  10
ATOM      9  N   UNL     1     -25.672   3.701 -51.775  0.00  0.00    +0.000 NA
ATOM     10  C   UNL     1     -25.775   4.963 -52.078  0.00  0.00    +0.000 C 
BRANCH   9  11
ATOM     11  O   UNL     1     -24.761   3.508 -50.734  0.00  0.00    +0.000 OA
BRANCH  11  12
ATOM     12  C   UNL     1     -24.639   2.131 -50.400  0.00  0.00    +0.000 C 
BRANCH  12  15
ATOM     13 CL   UNL     1     -26.564   4.356 -46.090  0.00  0.00    +0.000 Cl
ATOM     14 CL   UNL     1     -26.150   1.500 -44.586  0.00  0.00    +0.000 Cl
ATOM     15  C   UNL     1     -25.100   2.000 -48.970  0.00  0.00    +0.000 A 
ATOM     16  C   UNL     1     -25.619   3.091 -48.259  0.00  0.00    +0.000 A 
ATOM     17  C   UNL     1     -24.983   0.761 -48.322  0.00  0.00    +0.000 A 
ATOM     18  C   UNL     1     -25.966   2.955 -46.908  0.00  0.00    +0.000 A 
ATOM     19  C   UNL     1     -25.328   0.624 -46.978  0.00  0.00    +0.000 A 
ATOM     20  C   UNL     1     -25.804   1.724 -46.263  0.00  0.00    +0.000 A 
ENDBRANCH  12  15
ENDBRANCH  11  12
ENDBRANCH   9  11
ENDBRANCH   4  10
BRANCH   5  21
ATOM     21  S   UNL     1     -23.484   6.452 -53.969  0.00  0.00    +0.000 S 
BRANCH  21  22
ATOM     22  C   UNL     1     -22.296   7.790 -54.297  0.00  0.00    +0.000 C 
BRANCH  22  23
ATOM     23  C   UNL     1     -21.158   7.280 -55.155  0.00  0.00    +0.000 A 
ATOM     24  C   UNL     1     -21.203   5.996 -55.721  0.00  0.00    +0.000 A 
ATOM     25  C   UNL     1     -20.002   8.055 -55.348  0.00  0.00    +0.000 A 
ATOM     26  C   UNL     1     -20.118   5.493 -56.449  0.00  0.00    +0.000 A 
ATOM     27  C   UNL     1     -18.919   7.556 -56.081  0.00  0.00    +0.000 A 
ATOM     28  C   UNL     1     -18.977   6.275 -56.628  0.00  0.00    +0.000 A 
ENDBRANCH  22  23
ENDBRANCH  21  22
ENDBRANCH   5  21
TORSDOF 7
ENDMDL
MODEL 2
REMARK VINA RESULT:      -5.5     14.545     17.138
REMARK  Name = 3816731
REMARK  7 active torsions:
REMARK  status: ('A' for Active; 'I' for Inactive)
REMARK    1  A    between atoms: S_3  and  C_10
REMARK    2  A    between atoms: S_3  and  C_13
REMARK    3  A    between atoms: O_5  and  N_8
REMARK    4  A    between atoms: O_5  and  C_20
REMARK    5  A    between atoms: C_9  and  C_15
REMARK    6  A    between atoms: C_13  and  C_14
REMARK    7  A    between atoms: C_17  and  C_20
REMARK                            x       y       z     vdW  Elec       q    Type
REMARK                         _______ _______ _______ _____ _____    ______ ____
ROOT
ATOM      1  S   UNL     1      -9.794  16.099 -57.774  0.00  0.00    +0.000 S 
ATOM      2  N   UNL     1     -10.562  14.491 -55.923  0.00  0.00    +0.000 N 
ATOM      3  N   UNL     1     -11.906  16.281 -55.920  0.00  0.00    +0.000 NA
ATOM      4  C   UNL     1     -11.431  14.280 -54.877  0.00  0.00    +0.000 A 
ATOM      5  C   UNL     1     -12.245  15.413 -54.904  0.00  0.00    +0.000 A 
ATOM      6  C   UNL     1     -10.883  15.689 -56.476  0.00  0.00    +0.000 A 
ATOM      7  C   UNL     1      -9.490  13.845 -56.511  0.00  0.00    +0.000 A 
ATOM      8  C   UNL     1      -8.934  14.584 -57.487  0.00  0.00    +0.000 A 
ENDROOT
BRANCH   4  10
ATOM      9  N   UNL     1     -12.042  11.992 -54.213  0.00  0.00    +0.000 NA
ATOM     10  C   UNL     1     -11.481  13.145 -53.988  0.00  0.00    +0.000 C 
BRANCH   9  11
ATOM     11  O   UNL     1     -12.421  11.874 -55.553  0.00  0.00    +0.000 OA
BRANCH  11  12
ATOM     12  C   UNL     1     -11.660  10.875 -56.221  0.00  0.00    +0.000 C 
BRANCH  12  15
ATOM     13 CL   UNL     1     -10.505  11.998 -61.183  0.00  0.00    +0.000 Cl
ATOM     14 CL   UNL     1     -13.594  11.296 -61.927  0.00  0.00    +0.000 Cl
ATOM     15  C   UNL     1     -12.078  10.922 -57.669  0.00  0.00    +0.000 A 
ATOM     16  C   UNL     1     -11.197  11.336 -58.677  0.00  0.00    +0.000 A 
ATOM     17  C   UNL     1     -13.390  10.566 -58.017  0.00  0.00    +0.000 A 
ATOM     18  C   UNL     1     -11.639  11.443 -60.003  0.00  0.00    +0.000 A 
ATOM     19  C   UNL     1     -13.831  10.671 -59.335  0.00  0.00    +0.000 A 
ATOM     20  C   UNL     1     -12.963  11.126 -60.328  0.00  0.00    +0.000 A 
ENDBRANCH  12  15
ENDBRANCH  11  12
ENDBRANCH   9  11
ENDBRANCH   4  10
BRANCH   5  21
ATOM     21  S   UNL     1     -13.465  15.796 -53.706  0.00  0.00    +0.000 S 
BRANCH  21  22
ATOM     22  C   UNL     1     -12.482  16.366 -52.286  0.00  0.00    +0.000 C 
BRANCH  22  23
ATOM     23  C   UNL     1     -13.295  16.269 -51.013  0.00  0.00    +0.000 A 
ATOM     24  C   UNL     1     -12.669  16.286 -49.756  0.00  0.00    +0.000 A 
ATOM     25  C   UNL     1     -14.688  16.090 -51.063  0.00  0.00    +0.000 A 
ATOM     26  C   UNL     1     -13.411  16.116 -48.582  0.00  0.00    +0.000 A 
ATOM     27  C   UNL     1     -15.432  15.927 -49.889  0.00  0.00    +0.000 A 
ATOM     28  C   UNL     1     -14.793  15.937 -48.650  0.00  0.00    +0.000 A 
ENDBRANCH  22  23
ENDBRANCH  21  22
ENDBRANCH   5  21
TORSDOF 7
ENDMDL
MODEL 3
REMARK VINA RESULT:      -5.4      6.241      8.441
REMARK  Name = 3816731
REMARK  7 active torsions:
REMARK  status: ('A' for Active; 'I' for Inactive)
REMARK    1  A    between atoms: S_3  and  C_10
REMARK    2  A    between atoms: S_3  and  C_13
REMARK    3  A    between atoms: O_5  and  N_8
REMARK    4  A    between atoms: O_5  and  C_20
REMARK    5  A    between atoms: C_9  and  C_15
REMARK    6  A    between atoms: C_13  and  C_14
REMARK    7  A    between atoms: C_17  and  C_20
REMARK                            x       y       z     vdW  Elec       q    Type
REMARK                         _______ _______ _______ _____ _____    ______ ____
ROOT
ATOM      1  S   UNL     1     -24.159   7.798 -60.331  0.00  0.00    +0.000 S 
ATOM      2  N   UNL     1     -22.342   9.104 -59.069  0.00  0.00    +0.000 N 
ATOM      3  N   UNL     1     -21.718   6.958 -59.207  0.00  0.00    +0.000 NA
ATOM      4  C   UNL     1     -21.150   9.036 -58.384  0.00  0.00    +0.000 A 
ATOM      5  C   UNL     1     -20.798   7.690 -58.487  0.00  0.00    +0.000 A 
ATOM      6  C   UNL     1     -22.625   7.850 -59.507  0.00  0.00    +0.000 A 
ATOM      7  C   UNL     1     -23.286  10.061 -59.391  0.00  0.00    +0.000 A 
ATOM      8  C   UNL     1     -24.344   9.528 -60.027  0.00  0.00    +0.000 A 
ENDROOT
BRANCH   4  10
ATOM      9  N   UNL     1     -20.763  10.702 -56.617  0.00  0.00    +0.000 NA
ATOM     10  C   UNL     1     -20.444  10.113 -57.734  0.00  0.00    +0.000 C 
BRANCH   9  11
ATOM     11  O   UNL     1     -21.783  10.009 -55.960  0.00  0.00    +0.000 OA
BRANCH  11  12
ATOM     12  C   UNL     1     -22.791  10.895 -55.488  0.00  0.00    +0.000 C 
BRANCH  12  15
ATOM     13 CL   UNL     1     -23.058   7.069 -51.950  0.00  0.00    +0.000 Cl
ATOM     14 CL   UNL     1     -24.481   9.199 -49.944  0.00  0.00    +0.000 Cl
ATOM     15  C   UNL     1     -23.128  10.447 -54.088  0.00  0.00    +0.000 A 
ATOM     16  C   UNL     1     -22.918   9.127 -53.666  0.00  0.00    +0.000 A 
ATOM     17  C   UNL     1     -23.689  11.367 -53.190  0.00  0.00    +0.000 A 
ATOM     18  C   UNL     1     -23.314   8.723 -52.384  0.00  0.00    +0.000 A 
ATOM     19  C   UNL     1     -24.082  10.967 -51.914  0.00  0.00    +0.000 A 
ATOM     20  C   UNL     1     -23.912   9.641 -51.513  0.00  0.00    +0.000 A 
ENDBRANCH  12  15
ENDBRANCH  11  12
ENDBRANCH   9  11
ENDBRANCH   4  10
BRANCH   5  21
ATOM     21  S   UNL     1     -19.432   6.949 -57.676  0.00  0.00    +0.000 S 
BRANCH  21  22
ATOM     22  C   UNL     1     -20.052   6.682 -55.987  0.00  0.00    +0.000 C 
BRANCH  22  23
ATOM     23  C   UNL     1     -21.217   5.716 -56.004  0.00  0.00    +0.000 A 
ATOM     24  C   UNL     1     -22.447   6.062 -55.423  0.00  0.00    +0.000 A 
ATOM     25  C   UNL     1     -21.071   4.425 -56.541  0.00  0.00    +0.000 A 
ATOM     26  C   UNL     1     -23.499   5.141 -55.367  0.00  0.00    +0.000 A 
ATOM     27  C   UNL     1     -22.125   3.505 -56.491  0.00  0.00    +0.000 A 
ATOM     28  C   UNL     1     -23.336   3.863 -55.901  0.00  0.00    +0.000 A 
ENDBRANCH  22  23
ENDBRANCH  21  22
ENDBRANCH   5  21
TORSDOF 7
ENDMDL
MODEL 4
REMARK VINA RESULT:      -5.3     23.879     25.338
REMARK  Name = 3816731
REMARK  7 active torsions:
REMARK  status: ('A' for Active; 'I' for Inactive)
REMARK    1  A    between atoms: S_3  and  C_10
REMARK    2  A    between atoms: S_3  and  C_13
REMARK    3  A    between atoms: O_5  and  N_8
REMARK    4  A    between atoms: O_5  and  C_20
REMARK    5  A    between atoms: C_9  and  C_15
REMARK    6  A    between atoms: C_13  and  C_14
REMARK    7  A    between atoms: C_17  and  C_20
REMARK                            x       y       z     vdW  Elec       q    Type
REMARK                         _______ _______ _______ _____ _____    ______ ____
ROOT
ATOM      1  S   UNL     1     -13.606   9.147 -29.740  0.00  0.00    +0.000 S 
ATOM      2  N   UNL     1     -11.568  10.324 -30.770  0.00  0.00    +0.000 N 
ATOM      3  N   UNL     1     -11.972   8.450 -31.926  0.00  0.00    +0.000 NA
ATOM      4  C   UNL     1     -10.568  10.268 -31.715  0.00  0.00    +0.000 A 
ATOM      5  C   UNL     1     -10.850   9.090 -32.408  0.00  0.00    +0.000 A 
ATOM      6  C   UNL     1     -12.341   9.221 -30.938  0.00  0.00    +0.000 A 
ATOM      7  C   UNL     1     -11.955  11.157 -29.737  0.00  0.00    +0.000 A 
ATOM      8  C   UNL     1     -12.999  10.657 -29.054  0.00  0.00    +0.000 A 
ENDROOT
BRANCH   4  10
ATOM      9  N   UNL     1      -8.442  11.387 -31.195  0.00  0.00    +0.000 NA
ATOM     10  C   UNL     1      -9.503  11.216 -31.930  0.00  0.00    +0.000 C 
BRANCH   9  11
ATOM     11  O   UNL     1      -8.315  10.362 -30.254  0.00  0.00    +0.000 OA
BRANCH  11  12
ATOM     12  C   UNL     1      -7.181   9.547 -30.525  0.00  0.00    +0.000 C 
BRANCH  12  15
ATOM     13 CL   UNL     1      -3.219   9.494 -27.131  0.00  0.00    +0.000 Cl
ATOM     14 CL   UNL     1      -5.019   7.535 -25.257  0.00  0.00    +0.000 Cl
ATOM     15  C   UNL     1      -6.629   9.130 -29.185  0.00  0.00    +0.000 A 
ATOM     16  C   UNL     1      -5.342   9.497 -28.771  0.00  0.00    +0.000 A 
ATOM     17  C   UNL     1      -7.414   8.333 -28.337  0.00  0.00    +0.000 A 
ATOM     18  C   UNL     1      -4.829   9.030 -27.554  0.00  0.00    +0.000 A 
ATOM     19  C   UNL     1      -6.906   7.868 -27.125  0.00  0.00    +0.000 A 
ATOM     20  C   UNL     1      -5.608   8.200 -26.738  0.00  0.00    +0.000 A 
ENDBRANCH  12  15
ENDBRANCH  11  12
ENDBRANCH   9  11
ENDBRANCH   4  10
BRANCH   5  21
ATOM     21  S   UNL     1      -9.829   8.392 -33.651  0.00  0.00    +0.000 S 
BRANCH  21  22
ATOM     22  C   UNL     1     -10.975   8.168 -35.045  0.00  0.00    +0.000 C 
BRANCH  22  23
ATOM     23  C   UNL     1     -10.638   6.900 -35.801  0.00  0.00    +0.000 A 
ATOM     24  C   UNL     1     -11.629   6.196 -36.502  0.00  0.00    +0.000 A 
ATOM     25  C   UNL     1      -9.339   6.365 -35.761  0.00  0.00    +0.000 A 
ATOM     26  C   UNL     1     -11.336   4.983 -37.135  0.00  0.00    +0.000 A 
ATOM     27  C   UNL     1      -9.043   5.155 -36.399  0.00  0.00    +0.000 A 
ATOM     28  C   UNL     1     -10.042   4.463 -37.082  0.00  0.00    +0.000 A 
ENDBRANCH  22  23
ENDBRANCH  21  22
ENDBRANCH   5  21
TORSDOF 7
ENDMDL
MODEL 5
REMARK VINA RESULT:      -5.3     14.112     16.310
REMARK  Name = 3816731
REMARK  7 active torsions:
REMARK  status: ('A' for Active; 'I' for Inactive)
REMARK    1  A    between atoms: S_3  and  C_10
REMARK    2  A    between atoms: S_3  and  C_13
REMARK    3  A    between atoms: O_5  and  N_8
REMARK    4  A    between atoms: O_5  and  C_20
REMARK    5  A    between atoms: C_9  and  C_15
REMARK    6  A    between atoms: C_13  and  C_14
REMARK    7  A    between atoms: C_17  and  C_20
REMARK                            x       y       z     vdW  Elec       q    Type
REMARK                         _______ _______ _______ _____ _____    ______ ____
ROOT
ATOM      1  S   UNL     1     -18.702  18.389 -49.898  0.00  0.00    +0.000 S 
ATOM      2  N   UNL     1     -18.959  16.816 -47.883  0.00  0.00    +0.000 N 
ATOM      3  N   UNL     1     -16.808  16.840 -48.503  0.00  0.00    +0.000 NA
ATOM      4  C   UNL     1     -18.337  15.926 -47.038  0.00  0.00    +0.000 A 
ATOM      5  C   UNL     1     -17.007  15.964 -47.457  0.00  0.00    +0.000 A 
ATOM      6  C   UNL     1     -18.011  17.299 -48.727  0.00  0.00    +0.000 A 
ATOM      7  C   UNL     1     -20.235  17.305 -48.099  0.00  0.00    +0.000 A 
ATOM      8  C   UNL     1     -20.285  18.122 -49.164  0.00  0.00    +0.000 A 
ENDROOT
BRANCH   4  10
ATOM      9  N   UNL     1     -18.859  15.397 -44.694  0.00  0.00    +0.000 NA
ATOM     10  C   UNL     1     -18.933  15.158 -45.972  0.00  0.00    +0.000 C 
BRANCH   9  11
ATOM     11  O   UNL     1     -18.303  16.655 -44.451  0.00  0.00    +0.000 OA
BRANCH  11  12
ATOM     12  C   UNL     1     -17.454  16.635 -43.311  0.00  0.00    +0.000 C 
BRANCH  12  15
ATOM     13 CL   UNL     1     -13.244  19.253 -41.681  0.00  0.00    +0.000 Cl
ATOM     14 CL   UNL     1     -13.128  20.641 -44.622  0.00  0.00    +0.000 Cl
ATOM     15  C   UNL     1     -16.312  17.573 -43.617  0.00  0.00    +0.000 A 
ATOM     16  C   UNL     1     -15.361  17.917 -42.647  0.00  0.00    +0.000 A 
ATOM     17  C   UNL     1     -16.212  18.137 -44.898  0.00  0.00    +0.000 A 
ATOM     18  C   UNL     1     -14.358  18.851 -42.941  0.00  0.00    +0.000 A 
ATOM     19  C   UNL     1     -15.215  19.065 -45.191  0.00  0.00    +0.000 A 
ATOM     20  C   UNL     1     -14.296  19.438 -44.210  0.00  0.00    +0.000 A 
ENDBRANCH  12  15
ENDBRANCH  11  12
ENDBRANCH   9  11
ENDBRANCH   4  10
BRANCH   5  21
ATOM     21  S   UNL     1     -15.737  14.919 -46.850  0.00  0.00    +0.000 S 
BRANCH  21  22
ATOM     22  C   UNL     1     -14.228  15.659 -47.546  0.00  0.00    +0.000 C 
BRANCH  22  23
ATOM     23  C   UNL     1     -13.328  16.155 -46.434  0.00  0.00    +0.000 A 
ATOM     24  C   UNL     1     -12.314  17.091 -46.694  0.00  0.00    +0.000 A 
ATOM     25  C   UNL     1     -13.444  15.638 -45.133  0.00  0.00    +0.000 A 
ATOM     26  C   UNL     1     -11.431  17.491 -45.684  0.00  0.00    +0.000 A 
ATOM     27  C   UNL     1     -12.565  16.042 -44.121  0.00  0.00    +0.000 A 
ATOM     28  C   UNL     1     -11.558  16.965 -44.398  0.00  0.00    +0.000 A 
ENDBRANCH  22  23
ENDBRANCH  21  22
ENDBRANCH   5  21
TORSDOF 7
ENDMDL
MODEL 6
REMARK VINA RESULT:      -5.2     18.541     20.861
REMARK  Name = 3816731
REMARK  7 active torsions:
REMARK  status: ('A' for Active; 'I' for Inactive)
REMARK    1  A    between atoms: S_3  and  C_10
REMARK    2  A    between atoms: S_3  and  C_13
REMARK    3  A    between atoms: O_5  and  N_8
REMARK    4  A    between atoms: O_5  and  C_20
REMARK    5  A    between atoms: C_9  and  C_15
REMARK    6  A    between atoms: C_13  and  C_14
REMARK    7  A    between atoms: C_17  and  C_20
REMARK                            x       y       z     vdW  Elec       q    Type
REMARK                         _______ _______ _______ _____ _____    ______ ____
ROOT
ATOM      1  S   UNL     1      -4.636  -6.687 -56.055  0.00  0.00    +0.000 S 
ATOM      2  N   UNL     1      -4.845  -4.215 -56.724  0.00  0.00    +0.000 N 
ATOM      3  N   UNL     1      -3.272  -4.399 -55.142  0.00  0.00    +0.000 NA
ATOM      4  C   UNL     1      -4.431  -2.925 -56.485  0.00  0.00    +0.000 A 
ATOM      5  C   UNL     1      -3.461  -3.080 -55.495  0.00  0.00    +0.000 A 
ATOM      6  C   UNL     1      -4.141  -5.024 -55.892  0.00  0.00    +0.000 A 
ATOM      7  C   UNL     1      -5.758  -4.865 -57.534  0.00  0.00    +0.000 A 
ATOM      8  C   UNL     1      -5.809  -6.183 -57.276  0.00  0.00    +0.000 A 
ENDROOT
BRANCH   4  10
ATOM      9  N   UNL     1      -6.101  -1.229 -57.105  0.00  0.00    +0.000 NA
ATOM     10  C   UNL     1      -4.894  -1.718 -57.124  0.00  0.00    +0.000 C 
BRANCH   9  11
ATOM     11  O   UNL     1      -6.897  -1.902 -56.175  0.00  0.00    +0.000 OA
BRANCH  11  12
ATOM     12  C   UNL     1      -7.424  -1.009 -55.201  0.00  0.00    +0.000 C 
BRANCH  12  15
ATOM     13 CL   UNL     1      -6.116  -5.268 -52.484  0.00  0.00    +0.000 Cl
ATOM     14 CL   UNL     1      -7.727  -3.996 -49.960  0.00  0.00    +0.000 Cl
ATOM     15  C   UNL     1      -7.409  -1.756 -53.890  0.00  0.00    +0.000 A 
ATOM     16  C   UNL     1      -6.794  -3.009 -53.762  0.00  0.00    +0.000 A 
ATOM     17  C   UNL     1      -8.049  -1.196 -52.774  0.00  0.00    +0.000 A 
ATOM     18  C   UNL     1      -6.865  -3.712 -52.552  0.00  0.00    +0.000 A 
ATOM     19  C   UNL     1      -8.120  -1.893 -51.570  0.00  0.00    +0.000 A 
ATOM     20  C   UNL     1      -7.544  -3.160 -51.460  0.00  0.00    +0.000 A 
ENDBRANCH  12  15
ENDBRANCH  11  12
ENDBRANCH   9  11
ENDBRANCH   4  10
BRANCH   5  21
ATOM     21  S   UNL     1      -2.663  -1.759 -54.662  0.00  0.00    +0.000 S 
BRANCH  21  22
ATOM     22  C   UNL     1      -3.299  -1.901 -52.964  0.00  0.00    +0.000 C 
BRANCH  22  23
ATOM     23  C   UNL     1      -4.146  -0.694 -52.620  0.00  0.00    +0.000 A 
ATOM     24  C   UNL     1      -4.388   0.309 -53.571  0.00  0.00    +0.000 A 
ATOM     25  C   UNL     1      -4.651  -0.520 -51.320  0.00  0.00    +0.000 A 
ATOM     26  C   UNL     1      -5.104   1.463 -53.231  0.00  0.00    +0.000 A 
ATOM     27  C   UNL     1      -5.372   0.631 -50.981  0.00  0.00    +0.000 A 
ATOM     28  C   UNL     1      -5.595   1.622 -51.935  0.00  0.00    +0.000 A 
ENDBRANCH  22  23
ENDBRANCH  21  22
ENDBRANCH   5  21
TORSDOF 7
ENDMDL
MODEL 7
REMARK VINA RESULT:      -5.2     16.561     18.700
REMARK  Name = 3816731
REMARK  7 active torsions:
REMARK  status: ('A' for Active; 'I' for Inactive)
REMARK    1  A    between atoms: S_3  and  C_10
REMARK    2  A    between atoms: S_3  and  C_13
REMARK    3  A    between atoms: O_5  and  N_8
REMARK    4  A    between atoms: O_5  and  C_20
REMARK    5  A    between atoms: C_9  and  C_15
REMARK    6  A    between atoms: C_13  and  C_14
REMARK    7  A    between atoms: C_17  and  C_20
REMARK                            x       y       z     vdW  Elec       q    Type
REMARK                         _______ _______ _______ _____ _____    ______ ____
ROOT
ATOM      1  S   UNL     1     -14.038  22.587 -46.047  0.00  0.00    +0.000 S 
ATOM      2  N   UNL     1     -13.428  21.522 -43.790  0.00  0.00    +0.000 N 
ATOM      3  N   UNL     1     -11.866  20.961 -45.293  0.00  0.00    +0.000 NA
ATOM      4  C   UNL     1     -12.562  20.697 -43.110  0.00  0.00    +0.000 A 
ATOM      5  C   UNL     1     -11.611  20.365 -44.076  0.00  0.00    +0.000 A 
ATOM      6  C   UNL     1     -12.973  21.618 -45.066  0.00  0.00    +0.000 A 
ATOM      7  C   UNL     1     -14.590  22.225 -43.531  0.00  0.00    +0.000 A 
ATOM      8  C   UNL     1     -15.076  22.815 -44.636  0.00  0.00    +0.000 A 
ENDROOT
BRANCH   4  10
ATOM      9  N   UNL     1     -13.321  19.310 -41.226  0.00  0.00    +0.000 NA
ATOM     10  C   UNL     1     -12.630  20.295 -41.726  0.00  0.00    +0.000 C 
BRANCH   9  11
ATOM     11  O   UNL     1     -13.844  18.502 -42.238  0.00  0.00    +0.000 OA
BRANCH  11  12
ATOM     12  C   UNL     1     -15.262  18.601 -42.300  0.00  0.00    +0.000 C 
BRANCH  12  15
ATOM     13 CL   UNL     1     -17.480  14.750 -45.035  0.00  0.00    +0.000 Cl
ATOM     14 CL   UNL     1     -16.541  16.301 -47.737  0.00  0.00    +0.000 Cl
ATOM     15  C   UNL     1     -15.669  18.027 -43.634  0.00  0.00    +0.000 A 
ATOM     16  C   UNL     1     -16.362  16.814 -43.735  0.00  0.00    +0.000 A 
ATOM     17  C   UNL     1     -15.324  18.712 -44.809  0.00  0.00    +0.000 A 
ATOM     18  C   UNL     1     -16.657  16.269 -44.992  0.00  0.00    +0.000 A 
ATOM     19  C   UNL     1     -15.617  18.173 -46.061  0.00  0.00    +0.000 A 
ATOM     20  C   UNL     1     -16.268  16.943 -46.157  0.00  0.00    +0.000 A 
ENDBRANCH  12  15
ENDBRANCH  11  12
ENDBRANCH   9  11
ENDBRANCH   4  10
BRANCH   5  21
ATOM     21  S   UNL     1     -10.317  19.206 -43.848  0.00  0.00    +0.000 S 
BRANCH  21  22
ATOM     22  C   UNL     1     -10.202  18.394 -45.471  0.00  0.00    +0.000 C 
BRANCH  22  23
ATOM     23  C   UNL     1     -11.299  17.361 -45.619  0.00  0.00    +0.000 A 
ATOM     24  C   UNL     1     -11.883  16.767 -44.489  0.00  0.00    +0.000 A 
ATOM     25  C   UNL     1     -11.707  16.925 -46.891  0.00  0.00    +0.000 A 
ATOM     26  C   UNL     1     -12.841  15.755 -44.625  0.00  0.00    +0.000 A 
ATOM     27  C   UNL     1     -12.669  15.918 -47.028  0.00  0.00    +0.000 A 
ATOM     28  C   UNL     1     -13.233  15.332 -45.895  0.00  0.00    +0.000 A 
ENDBRANCH  22  23
ENDBRANCH  21  22
ENDBRANCH   5  21
TORSDOF 7
ENDMDL
MODEL 8
REMARK VINA RESULT:      -5.1      2.578      3.453
REMARK  Name = 3816731
REMARK  7 active torsions:
REMARK  status: ('A' for Active; 'I' for Inactive)
REMARK    1  A    between atoms: S_3  and  C_10
REMARK    2  A    between atoms: S_3  and  C_13
REMARK    3  A    between atoms: O_5  and  N_8
REMARK    4  A    between atoms: O_5  and  C_20
REMARK    5  A    between atoms: C_9  and  C_15
REMARK    6  A    between atoms: C_13  and  C_14
REMARK    7  A    between atoms: C_17  and  C_20
REMARK                            x       y       z     vdW  Elec       q    Type
REMARK                         _______ _______ _______ _____ _____    ______ ____
ROOT
ATOM      1  S   UNL     1     -25.757  12.098 -52.196  0.00  0.00    +0.000 S 
ATOM      2  N   UNL     1     -24.572  10.292 -50.804  0.00  0.00    +0.000 N 
ATOM      3  N   UNL     1     -24.013  10.021 -52.955  0.00  0.00    +0.000 NA
ATOM      4  C   UNL     1     -23.765   9.177 -50.823  0.00  0.00    +0.000 A 
ATOM      5  C   UNL     1     -23.444   9.038 -52.173  0.00  0.00    +0.000 A 
ATOM      6  C   UNL     1     -24.691  10.724 -52.086  0.00  0.00    +0.000 A 
ATOM      7  C   UNL     1     -25.272  11.035 -49.872  0.00  0.00    +0.000 A 
ATOM      8  C   UNL     1     -25.995  12.011 -50.448  0.00  0.00    +0.000 A 
ENDROOT
BRANCH   4  10
ATOM      9  N   UNL     1     -23.983   7.349 -49.193  0.00  0.00    +0.000 NA
ATOM     10  C   UNL     1     -23.353   8.369 -49.702  0.00  0.00    +0.000 C 
BRANCH   9  11
ATOM     11  O   UNL     1     -25.042   6.955 -50.014  0.00  0.00    +0.000 OA
BRANCH  11  12
ATOM     12  C   UNL     1     -26.110   6.402 -49.254  0.00  0.00    +0.000 C 
BRANCH  12  15
ATOM     13 CL   UNL     1     -24.883   1.753 -51.280  0.00  0.00    +0.000 Cl
ATOM     14 CL   UNL     1     -25.085   0.532 -48.271  0.00  0.00    +0.000 Cl
ATOM     15  C   UNL     1     -25.773   4.947 -49.046  0.00  0.00    +0.000 A 
ATOM     16  C   UNL     1     -25.459   4.102 -50.119  0.00  0.00    +0.000 A 
ATOM     17  C   UNL     1     -25.797   4.415 -47.748  0.00  0.00    +0.000 A 
ATOM     18  C   UNL     1     -25.226   2.738 -49.901  0.00  0.00    +0.000 A 
ATOM     19  C   UNL     1     -25.566   3.058 -47.529  0.00  0.00    +0.000 A 
ATOM     20  C   UNL     1     -25.297   2.212 -48.606  0.00  0.00    +0.000 A 
ENDBRANCH  12  15
ENDBRANCH  11  12
ENDBRANCH   9  11
ENDBRANCH   4  10
BRANCH   5  21
ATOM     21  S   UNL     1     -22.551   7.693 -52.855  0.00  0.00    +0.000 S 
BRANCH  21  22
ATOM     22  C   UNL     1     -22.377   8.159 -54.604  0.00  0.00    +0.000 C 
BRANCH  22  23
ATOM     23  C   UNL     1     -21.224   7.408 -55.235  0.00  0.00    +0.000 A 
ATOM     24  C   UNL     1     -19.986   8.036 -55.444  0.00  0.00    +0.000 A 
ATOM     25  C   UNL     1     -21.389   6.087 -55.686  0.00  0.00    +0.000 A 
ATOM     26  C   UNL     1     -18.944   7.367 -56.098  0.00  0.00    +0.000 A 
ATOM     27  C   UNL     1     -20.346   5.416 -56.335  0.00  0.00    +0.000 A 
ATOM     28  C   UNL     1     -19.126   6.058 -56.543  0.00  0.00    +0.000 A 
ENDBRANCH  22  23
ENDBRANCH  21  22
ENDBRANCH   5  21
TORSDOF 7
ENDMDL
MODEL 9
REMARK VINA RESULT:      -5.1     15.378     18.228
REMARK  Name = 3816731
REMARK  7 active torsions:
REMARK  status: ('A' for Active; 'I' for Inactive)
REMARK    1  A    between atoms: S_3  and  C_10
REMARK    2  A    between atoms: S_3  and  C_13
REMARK    3  A    between atoms: O_5  and  N_8
REMARK    4  A    between atoms: O_5  and  C_20
REMARK    5  A    between atoms: C_9  and  C_15
REMARK    6  A    between atoms: C_13  and  C_14
REMARK    7  A    between atoms: C_17  and  C_20
REMARK                            x       y       z     vdW  Elec       q    Type
REMARK                         _______ _______ _______ _____ _____    ______ ____
ROOT
ATOM      1  S   UNL     1     -14.479  16.010 -60.196  0.00  0.00    +0.000 S 
ATOM      2  N   UNL     1     -13.519  13.728 -60.882  0.00  0.00    +0.000 N 
ATOM      3  N   UNL     1     -14.517  13.515 -58.890  0.00  0.00    +0.000 NA
ATOM      4  C   UNL     1     -13.308  12.417 -60.518  0.00  0.00    +0.000 A 
ATOM      5  C   UNL     1     -13.936  12.326 -59.276  0.00  0.00    +0.000 A 
ATOM      6  C   UNL     1     -14.215  14.317 -59.876  0.00  0.00    +0.000 A 
ATOM      7  C   UNL     1     -13.205  14.561 -61.940  0.00  0.00    +0.000 A 
ATOM      8  C   UNL     1     -13.604  15.825 -61.718  0.00  0.00    +0.000 A 
ENDROOT
BRANCH   4  10
ATOM      9  N   UNL     1     -11.325  11.223 -61.347  0.00  0.00    +0.000 NA
ATOM     10  C   UNL     1     -12.613  11.396 -61.263  0.00  0.00    +0.000 C 
BRANCH   9  11
ATOM     11  O   UNL     1     -10.651  12.026 -60.424  0.00  0.00    +0.000 OA
BRANCH  11  12
ATOM     12  C   UNL     1      -9.824  12.983 -61.076  0.00  0.00    +0.000 C 
BRANCH  12  15
ATOM     13 CL   UNL     1      -8.167  12.980 -56.128  0.00  0.00    +0.000 Cl
ATOM     14 CL   UNL     1      -6.321  15.553 -56.880  0.00  0.00    +0.000 Cl
ATOM     15  C   UNL     1      -8.910  13.544 -60.016  0.00  0.00    +0.000 A 
ATOM     16  C   UNL     1      -8.900  13.040 -58.708  0.00  0.00    +0.000 A 
ATOM     17  C   UNL     1      -8.064  14.617 -60.337  0.00  0.00    +0.000 A 
ATOM     18  C   UNL     1      -8.095  13.634 -57.727  0.00  0.00    +0.000 A 
ATOM     19  C   UNL     1      -7.263  15.209 -59.362  0.00  0.00    +0.000 A 
ATOM     20  C   UNL     1      -7.288  14.731 -58.051  0.00  0.00    +0.000 A 
ENDBRANCH  12  15
ENDBRANCH  11  12
ENDBRANCH   9  11
ENDBRANCH   4  10
BRANCH   5  21
ATOM     21  S   UNL     1     -13.880  10.922 -58.228  0.00  0.00    +0.000 S 
BRANCH  21  22
ATOM     22  C   UNL     1     -12.132  10.849 -57.733  0.00  0.00    +0.000 C 
BRANCH  22  23
ATOM     23  C   UNL     1     -11.895  11.720 -56.517  0.00  0.00    +0.000 A 
ATOM     24  C   UNL     1     -11.845  11.160 -55.231  0.00  0.00    +0.000 A 
ATOM     25  C   UNL     1     -11.789  13.115 -56.644  0.00  0.00    +0.000 A 
ATOM     26  C   UNL     1     -11.705  11.973 -54.099  0.00  0.00    +0.000 A 
ATOM     27  C   UNL     1     -11.644  13.928 -55.514  0.00  0.00    +0.000 A 
ATOM     28  C   UNL     1     -11.605  13.357 -54.243  0.00  0.00    +0.000 A 
ENDBRANCH  22  23
ENDBRANCH  21  22
ENDBRANCH   5  21
TORSDOF 7
ENDMDL
MODEL 10
REMARK VINA RESULT:      -5.0     17.119     19.695
REMARK  Name = 3816731
REMARK  7 active torsions:
REMARK  status: ('A' for Active; 'I' for Inactive)
REMARK    1  A    between atoms: S_3  and  C_10
REMARK    2  A    between atoms: S_3  and  C_13
REMARK    3  A    between atoms: O_5  and  N_8
REMARK    4  A    between atoms: O_5  and  C_20
REMARK    5  A    between atoms: C_9  and  C_15
REMARK    6  A    between atoms: C_13  and  C_14
REMARK    7  A    between atoms: C_17  and  C_20
REMARK                            x       y       z     vdW  Elec       q    Type
REMARK                         _______ _______ _______ _____ _____    ______ ____
ROOT
ATOM      1  S   UNL     1      -9.629  -8.776 -42.621  0.00  0.00    +0.000 S 
ATOM      2  N   UNL     1     -11.279  -7.487 -44.110  0.00  0.00    +0.000 N 
ATOM      3  N   UNL     1     -11.856  -9.650 -44.107  0.00  0.00    +0.000 NA
ATOM      4  C   UNL     1     -12.356  -7.568 -44.964  0.00  0.00    +0.000 A 
ATOM      5  C   UNL     1     -12.681  -8.925 -44.939  0.00  0.00    +0.000 A 
ATOM      6  C   UNL     1     -11.028  -8.744 -43.660  0.00  0.00    +0.000 A 
ATOM      7  C   UNL     1     -10.419  -6.515 -43.635  0.00  0.00    +0.000 A 
ATOM      8  C   UNL     1      -9.451  -7.035 -42.862  0.00  0.00    +0.000 A 
ENDROOT
BRANCH   4  10
ATOM      9  N   UNL     1     -13.881  -5.659 -45.238  0.00  0.00    +0.000 NA
ATOM     10  C   UNL     1     -12.989  -6.494 -45.689  0.00  0.00    +0.000 C 
BRANCH   9  11
ATOM     11  O   UNL     1     -14.012  -5.768 -43.851  0.00  0.00    +0.000 OA
BRANCH  11  12
ATOM     12  C   UNL     1     -15.320  -6.190 -43.486  0.00  0.00    +0.000 C 
BRANCH  12  15
ATOM     13 CL   UNL     1     -12.209  -8.308 -39.872  0.00  0.00    +0.000 Cl
ATOM     14 CL   UNL     1     -14.851  -9.732 -38.617  0.00  0.00    +0.000 Cl
ATOM     15  C   UNL     1     -15.166  -7.005 -42.227  0.00  0.00    +0.000 A 
ATOM     16  C   UNL     1     -13.912  -7.226 -41.640  0.00  0.00    +0.000 A 
ATOM     17  C   UNL     1     -16.302  -7.579 -41.637  0.00  0.00    +0.000 A 
ATOM     18  C   UNL     1     -13.793  -8.052 -40.515  0.00  0.00    +0.000 A 
ATOM     19  C   UNL     1     -16.186  -8.400 -40.517  0.00  0.00    +0.000 A 
ATOM     20  C   UNL     1     -14.930  -8.653 -39.963  0.00  0.00    +0.000 A 
ENDBRANCH  12  15
ENDBRANCH  11  12
ENDBRANCH   9  11
ENDBRANCH   4  10
BRANCH   5  21
ATOM     21  S   UNL     1     -13.893  -9.681 -45.956  0.00  0.00    +0.000 S 
BRANCH  21  22
ATOM     22  C   UNL     1     -15.436  -9.390 -45.039  0.00  0.00    +0.000 C 
BRANCH  22  23
ATOM     23  C   UNL     1     -15.772 -10.594 -44.184  0.00  0.00    +0.000 A 
ATOM     24  C   UNL     1     -16.809 -11.468 -44.549  0.00  0.00    +0.000 A 
ATOM     25  C   UNL     1     -15.099 -10.824 -42.973  0.00  0.00    +0.000 A 
ATOM     26  C   UNL     1     -17.172 -12.535 -43.719  0.00  0.00    +0.000 A 
ATOM     27  C   UNL     1     -15.458 -11.894 -42.146  0.00  0.00    +0.000 A 
ATOM     28  C   UNL     1     -16.496 -12.747 -42.518  0.00  0.00    +0.000 A 
ENDBRANCH  22  23
ENDBRANCH  21  22
ENDBRANCH   5  21
TORSDOF 7
ENDMDL
