MODEL 1
REMARK VINA RESULT:      -5.5      0.000      0.000
REMARK  Name = 3816731
REMARK  7 active torsions:
REMARK  status: ('A' for Active; 'I' for Inactive)
REMARK    1  A    between atoms: S_3  and  C_10
REMARK    2  A    between atoms: S_3  and  C_13
REMARK    3  A    between atoms: O_5  and  N_8
REMARK    4  A    between atoms: O_5  and  C_20
REMARK    5  A    between atoms: C_9  and  C_15
REMARK    6  A    between atoms: C_13  and  C_14
REMARK    7  A    between atoms: C_17  and  C_20
REMARK                            x       y       z     vdW  Elec       q    Type
REMARK                         _______ _______ _______ _____ _____    ______ ____
ROOT
ATOM      1  S   UNL     1      12.103  15.424  21.556  0.00  0.00    +0.000 S 
ATOM      2  N   UNL     1      11.521  13.163  22.628  0.00  0.00    +0.000 N 
ATOM      3  N   UNL     1      13.748  13.329  22.471  0.00  0.00    +0.000 NA
ATOM      4  C   UNL     1      12.001  11.966  23.109  0.00  0.00    +0.000 A 
ATOM      5  C   UNL     1      13.384  12.105  22.990  0.00  0.00    +0.000 A 
ATOM      6  C   UNL     1      12.595  13.905  22.254  0.00  0.00    +0.000 A 
ATOM      7  C   UNL     1      10.294  13.765  22.418  0.00  0.00    +0.000 A 
ATOM      8  C   UNL     1      10.419  14.958  21.812  0.00  0.00    +0.000 A 
ENDROOT
BRANCH   4  10
ATOM      9  N   UNL     1      10.702   9.885  22.936  0.00  0.00    +0.000 NA
ATOM     10  C   UNL     1      11.239  10.853  23.621  0.00  0.00    +0.000 C 
BRANCH   9  11
ATOM     11  O   UNL     1      11.141   9.908  21.610  0.00  0.00    +0.000 OA
BRANCH  11  12
ATOM     12  C   UNL     1      11.157   8.601  21.047  0.00  0.00    +0.000 C 
BRANCH  12  15
ATOM     13 CL   UNL     1      13.848  11.510  17.653  0.00  0.00    +0.000 Cl
ATOM     14 CL   UNL     1      14.218   8.830  15.845  0.00  0.00    +0.000 Cl
ATOM     15  C   UNL     1      11.992   8.690  19.794  0.00  0.00    +0.000 A 
ATOM     16  C   UNL     1      12.536   9.905  19.355  0.00  0.00    +0.000 A 
ATOM     17  C   UNL     1      12.211   7.533  19.032  0.00  0.00    +0.000 A 
ATOM     18  C   UNL     1      13.241   9.969  18.146  0.00  0.00    +0.000 A 
ATOM     19  C   UNL     1      12.914   7.594  17.829  0.00  0.00    +0.000 A 
ATOM     20  C   UNL     1      13.416   8.814  17.374  0.00  0.00    +0.000 A 
ENDBRANCH  12  15
ENDBRANCH  11  12
ENDBRANCH   9  11
ENDBRANCH   4  10
BRANCH   5  21
ATOM     21  S   UNL     1      14.548  10.834  23.309  0.00  0.00    +0.000 S 
BRANCH  21  22
ATOM     22  C   UNL     1      15.410  10.658  21.718  0.00  0.00    +0.000 C 
BRANCH  22  23
ATOM     23  C   UNL     1      15.399   9.211  21.273  0.00  0.00    +0.000 A 
ATOM     24  C   UNL     1      14.802   8.220  22.067  0.00  0.00    +0.000 A 
ATOM     25  C   UNL     1      16.047   8.820  20.088  0.00  0.00    +0.000 A 
ATOM     26  C   UNL     1      14.861   6.871  21.696  0.00  0.00    +0.000 A 
ATOM     27  C   UNL     1      16.101   7.473  19.713  0.00  0.00    +0.000 A 
ATOM     28  C   UNL     1      15.511   6.499  20.519  0.00  0.00    +0.000 A 
ENDBRANCH  22  23
ENDBRANCH  21  22
ENDBRANCH   5  21
TORSDOF 7
ENDMDL
MODEL 2
REMARK VINA RESULT:      -5.1      2.731      3.415
REMARK  Name = 3816731
REMARK  7 active torsions:
REMARK  status: ('A' for Active; 'I' for Inactive)
REMARK    1  A    between atoms: S_3  and  C_10
REMARK    2  A    between atoms: S_3  and  C_13
REMARK    3  A    between atoms: O_5  and  N_8
REMARK    4  A    between atoms: O_5  and  C_20
REMARK    5  A    between atoms: C_9  and  C_15
REMARK    6  A    between atoms: C_13  and  C_14
REMARK    7  A    between atoms: C_17  and  C_20
REMARK                            x       y       z     vdW  Elec       q    Type
REMARK                         _______ _______ _______ _____ _____    ______ ____
ROOT
ATOM      1  S   UNL     1      11.085  12.271  23.526  0.00  0.00    +0.000 S 
ATOM      2  N   UNL     1      12.690  12.666  21.558  0.00  0.00    +0.000 N 
ATOM      3  N   UNL     1      13.702  11.343  23.053  0.00  0.00    +0.000 NA
ATOM      4  C   UNL     1      13.948  12.449  21.045  0.00  0.00    +0.000 A 
ATOM      5  C   UNL     1      14.547  11.630  22.002  0.00  0.00    +0.000 A 
ATOM      6  C   UNL     1      12.620  12.006  22.743  0.00  0.00    +0.000 A 
ATOM      7  C   UNL     1      11.546  13.361  21.210  0.00  0.00    +0.000 A 
ATOM      8  C   UNL     1      10.607  13.294  22.169  0.00  0.00    +0.000 A 
ENDROOT
BRANCH   4  10
ATOM      9  N   UNL     1      14.283  12.480  18.609  0.00  0.00    +0.000 NA
ATOM     10  C   UNL     1      14.493  12.948  19.806  0.00  0.00    +0.000 C 
BRANCH   9  11
ATOM     11  O   UNL     1      13.253  11.536  18.615  0.00  0.00    +0.000 OA
BRANCH  11  12
ATOM     12  C   UNL     1      13.690  10.289  18.089  0.00  0.00    +0.000 C 
BRANCH  12  15
ATOM     13 CL   UNL     1      10.533   9.009  22.042  0.00  0.00    +0.000 Cl
ATOM     14 CL   UNL     1      11.365   5.904  21.532  0.00  0.00    +0.000 Cl
ATOM     15  C   UNL     1      13.027   9.222  18.924  0.00  0.00    +0.000 A 
ATOM     16  C   UNL     1      12.135   9.542  19.956  0.00  0.00    +0.000 A 
ATOM     17  C   UNL     1      13.329   7.873  18.681  0.00  0.00    +0.000 A 
ATOM     18  C   UNL     1      11.596   8.532  20.764  0.00  0.00    +0.000 A 
ATOM     19  C   UNL     1      12.793   6.867  19.483  0.00  0.00    +0.000 A 
ATOM     20  C   UNL     1      11.940   7.194  20.537  0.00  0.00    +0.000 A 
ENDBRANCH  12  15
ENDBRANCH  11  12
ENDBRANCH   9  11
ENDBRANCH   4  10
BRANCH   5  21
ATOM     21  S   UNL     1      16.227  11.131  21.981  0.00  0.00    +0.000 S 
BRANCH  21  22
ATOM     22  C   UNL     1      16.308  10.021  20.543  0.00  0.00    +0.000 C 
BRANCH  22  23
ATOM     23  C   UNL     1      17.142   8.801  20.869  0.00  0.00    +0.000 A 
ATOM     24  C   UNL     1      18.429   8.934  21.413  0.00  0.00    +0.000 A 
ATOM     25  C   UNL     1      16.672   7.510  20.571  0.00  0.00    +0.000 A 
ATOM     26  C   UNL     1      19.232   7.810  21.642  0.00  0.00    +0.000 A 
ATOM     27  C   UNL     1      17.472   6.385  20.805  0.00  0.00    +0.000 A 
ATOM     28  C   UNL     1      18.752   6.537  21.337  0.00  0.00    +0.000 A 
ENDBRANCH  22  23
ENDBRANCH  21  22
ENDBRANCH   5  21
TORSDOF 7
ENDMDL
MODEL 3
REMARK VINA RESULT:      -4.6     11.183     13.832
REMARK  Name = 3816731
REMARK  7 active torsions:
REMARK  status: ('A' for Active; 'I' for Inactive)
REMARK    1  A    between atoms: S_3  and  C_10
REMARK    2  A    between atoms: S_3  and  C_13
REMARK    3  A    between atoms: O_5  and  N_8
REMARK    4  A    between atoms: O_5  and  C_20
REMARK    5  A    between atoms: C_9  and  C_15
REMARK    6  A    between atoms: C_13  and  C_14
REMARK    7  A    between atoms: C_17  and  C_20
REMARK                            x       y       z     vdW  Elec       q    Type
REMARK                         _______ _______ _______ _____ _____    ______ ____
ROOT
ATOM      1  S   UNL     1      -2.013  20.091  22.925  0.00  0.00    +0.000 S 
ATOM      2  N   UNL     1      -1.073  17.750  23.414  0.00  0.00    +0.000 N 
ATOM      3  N   UNL     1      -1.137  18.048  21.196  0.00  0.00    +0.000 NA
ATOM      4  C   UNL     1      -0.632  16.559  22.883  0.00  0.00    +0.000 A 
ATOM      5  C   UNL     1      -0.691  16.781  21.507  0.00  0.00    +0.000 A 
ATOM      6  C   UNL     1      -1.370  18.568  22.371  0.00  0.00    +0.000 A 
ATOM      7  C   UNL     1      -1.301  18.293  24.665  0.00  0.00    +0.000 A 
ATOM      8  C   UNL     1      -1.844  19.520  24.588  0.00  0.00    +0.000 A 
ENDROOT
BRANCH   4  10
ATOM      9  N   UNL     1       1.020  14.965  23.765  0.00  0.00    +0.000 NA
ATOM     10  C   UNL     1      -0.203  15.382  23.597  0.00  0.00    +0.000 C 
BRANCH   9  11
ATOM     11  O   UNL     1       1.939  15.933  23.355  0.00  0.00    +0.000 OA
BRANCH  11  12
ATOM     12  C   UNL     1       3.167  15.342  22.946  0.00  0.00    +0.000 C 
BRANCH  12  15
ATOM     13 CL   UNL     1       4.596  19.441  25.841  0.00  0.00    +0.000 Cl
ATOM     14 CL   UNL     1       7.646  18.927  24.833  0.00  0.00    +0.000 Cl
ATOM     15  C   UNL     1       4.263  16.216  23.502  0.00  0.00    +0.000 A 
ATOM     16  C   UNL     1       3.988  17.283  24.368  0.00  0.00    +0.000 A 
ATOM     17  C   UNL     1       5.592  15.974  23.124  0.00  0.00    +0.000 A 
ATOM     18  C   UNL     1       5.020  18.124  24.806  0.00  0.00    +0.000 A 
ATOM     19  C   UNL     1       6.620  16.809  23.559  0.00  0.00    +0.000 A 
ATOM     20  C   UNL     1       6.336  17.896  24.386  0.00  0.00    +0.000 A 
ENDBRANCH  12  15
ENDBRANCH  11  12
ENDBRANCH   9  11
ENDBRANCH   4  10
BRANCH   5  21
ATOM     21  S   UNL     1      -0.389  15.562  20.284  0.00  0.00    +0.000 S 
BRANCH  21  22
ATOM     22  C   UNL     1       0.495  16.487  18.992  0.00  0.00    +0.000 C 
BRANCH  22  23
ATOM     23  C   UNL     1       1.987  16.440  19.243  0.00  0.00    +0.000 A 
ATOM     24  C   UNL     1       2.643  17.507  19.880  0.00  0.00    +0.000 A 
ATOM     25  C   UNL     1       2.759  15.360  18.784  0.00  0.00    +0.000 A 
ATOM     26  C   UNL     1       4.033  17.500  20.042  0.00  0.00    +0.000 A 
ATOM     27  C   UNL     1       4.149  15.350  18.951  0.00  0.00    +0.000 A 
ATOM     28  C   UNL     1       4.785  16.421  19.576  0.00  0.00    +0.000 A 
ENDBRANCH  22  23
ENDBRANCH  21  22
ENDBRANCH   5  21
TORSDOF 7
ENDMDL
MODEL 4
REMARK VINA RESULT:      -4.5     10.226     12.453
REMARK  Name = 3816731
REMARK  7 active torsions:
REMARK  status: ('A' for Active; 'I' for Inactive)
REMARK    1  A    between atoms: S_3  and  C_10
REMARK    2  A    between atoms: S_3  and  C_13
REMARK    3  A    between atoms: O_5  and  N_8
REMARK    4  A    between atoms: O_5  and  C_20
REMARK    5  A    between atoms: C_9  and  C_15
REMARK    6  A    between atoms: C_13  and  C_14
REMARK    7  A    between atoms: C_17  and  C_20
REMARK                            x       y       z     vdW  Elec       q    Type
REMARK                         _______ _______ _______ _____ _____    ______ ____
ROOT
ATOM      1  S   UNL     1       1.358  20.584  20.749  0.00  0.00    +0.000 S 
ATOM      2  N   UNL     1       0.362  18.448  21.773  0.00  0.00    +0.000 N 
ATOM      3  N   UNL     1       2.161  19.043  22.965  0.00  0.00    +0.000 NA
ATOM      4  C   UNL     1       0.494  17.467  22.729  0.00  0.00    +0.000 A 
ATOM      5  C   UNL     1       1.623  17.867  23.444  0.00  0.00    +0.000 A 
ATOM      6  C   UNL     1       1.381  19.327  21.957  0.00  0.00    +0.000 A 
ATOM      7  C   UNL     1      -0.481  18.745  20.718  0.00  0.00    +0.000 A 
ATOM      8  C   UNL     1      -0.070  19.828  20.037  0.00  0.00    +0.000 A 
ENDROOT
BRANCH   4  10
ATOM      9  N   UNL     1      -0.244  15.150  22.364  0.00  0.00    +0.000 NA
ATOM     10  C   UNL     1      -0.351  16.316  22.933  0.00  0.00    +0.000 C 
BRANCH   9  11
ATOM     11  O   UNL     1       0.961  15.044  21.665  0.00  0.00    +0.000 OA
BRANCH  11  12
ATOM     12  C   UNL     1       0.754  15.123  20.260  0.00  0.00    +0.000 C 
BRANCH  12  15
ATOM     13 CL   UNL     1       5.126  17.970  20.339  0.00  0.00    +0.000 Cl
ATOM     14 CL   UNL     1       5.946  16.555  17.526  0.00  0.00    +0.000 Cl
ATOM     15  C   UNL     1       2.094  15.456  19.652  0.00  0.00    +0.000 A 
ATOM     16  C   UNL     1       2.945  16.412  20.224  0.00  0.00    +0.000 A 
ATOM     17  C   UNL     1       2.491  14.814  18.470  0.00  0.00    +0.000 A 
ATOM     18  C   UNL     1       4.148  16.755  19.593  0.00  0.00    +0.000 A 
ATOM     19  C   UNL     1       3.687  15.153  17.841  0.00  0.00    +0.000 A 
ATOM     20  C   UNL     1       4.511  16.137  18.391  0.00  0.00    +0.000 A 
ENDBRANCH  12  15
ENDBRANCH  11  12
ENDBRANCH   9  11
ENDBRANCH   4  10
BRANCH   5  21
ATOM     21  S   UNL     1       2.388  16.929  24.711  0.00  0.00    +0.000 S 
BRANCH  21  22
ATOM     22  C   UNL     1       3.412  15.746  23.785  0.00  0.00    +0.000 C 
BRANCH  22  23
ATOM     23  C   UNL     1       4.827  16.268  23.654  0.00  0.00    +0.000 A 
ATOM     24  C   UNL     1       5.794  15.551  22.931  0.00  0.00    +0.000 A 
ATOM     25  C   UNL     1       5.220  17.447  24.310  0.00  0.00    +0.000 A 
ATOM     26  C   UNL     1       7.122  15.992  22.876  0.00  0.00    +0.000 A 
ATOM     27  C   UNL     1       6.546  17.892  24.250  0.00  0.00    +0.000 A 
ATOM     28  C   UNL     1       7.496  17.162  23.536  0.00  0.00    +0.000 A 
ENDBRANCH  22  23
ENDBRANCH  21  22
ENDBRANCH   5  21
TORSDOF 7
ENDMDL
MODEL 5
REMARK VINA RESULT:      -4.5      9.686     11.915
REMARK  Name = 3816731
REMARK  7 active torsions:
REMARK  status: ('A' for Active; 'I' for Inactive)
REMARK    1  A    between atoms: S_3  and  C_10
REMARK    2  A    between atoms: S_3  and  C_13
REMARK    3  A    between atoms: O_5  and  N_8
REMARK    4  A    between atoms: O_5  and  C_20
REMARK    5  A    between atoms: C_9  and  C_15
REMARK    6  A    between atoms: C_13  and  C_14
REMARK    7  A    between atoms: C_17  and  C_20
REMARK                            x       y       z     vdW  Elec       q    Type
REMARK                         _______ _______ _______ _____ _____    ______ ____
ROOT
ATOM      1  S   UNL     1       8.369  19.808  18.203  0.00  0.00    +0.000 S 
ATOM      2  N   UNL     1       7.402  17.448  18.516  0.00  0.00    +0.000 N 
ATOM      3  N   UNL     1       8.084  18.213  20.506  0.00  0.00    +0.000 NA
ATOM      4  C   UNL     1       7.166  16.414  19.393  0.00  0.00    +0.000 A 
ATOM      5  C   UNL     1       7.607  16.924  20.615  0.00  0.00    +0.000 A 
ATOM      6  C   UNL     1       7.957  18.461  19.230  0.00  0.00    +0.000 A 
ATOM      7  C   UNL     1       7.248  17.702  17.166  0.00  0.00    +0.000 A 
ATOM      8  C   UNL     1       7.753  18.899  16.820  0.00  0.00    +0.000 A 
ENDROOT
BRANCH   4  10
ATOM      9  N   UNL     1       5.383  14.721  19.383  0.00  0.00    +0.000 NA
ATOM     10  C   UNL     1       6.589  15.125  19.101  0.00  0.00    +0.000 C 
BRANCH   9  11
ATOM     11  O   UNL     1       4.589  15.783  19.821  0.00  0.00    +0.000 OA
BRANCH  11  12
ATOM     12  C   UNL     1       3.384  15.873  19.071  0.00  0.00    +0.000 C 
BRANCH  12  15
ATOM     13 CL   UNL     1       0.753  18.848  22.455  0.00  0.00    +0.000 Cl
ATOM     14 CL   UNL     1      -0.920  16.187  23.297  0.00  0.00    +0.000 Cl
ATOM     15  C   UNL     1       2.269  16.015  20.076  0.00  0.00    +0.000 A 
ATOM     16  C   UNL     1       1.996  17.236  20.708  0.00  0.00    +0.000 A 
ATOM     17  C   UNL     1       1.498  14.891  20.409  0.00  0.00    +0.000 A 
ATOM     18  C   UNL     1       1.004  17.316  21.694  0.00  0.00    +0.000 A 
ATOM     19  C   UNL     1       0.510  14.969  21.390  0.00  0.00    +0.000 A 
ATOM     20  C   UNL     1       0.272  16.177  22.047  0.00  0.00    +0.000 A 
ENDBRANCH  12  15
ENDBRANCH  11  12
ENDBRANCH   9  11
ENDBRANCH   4  10
BRANCH   5  21
ATOM     21  S   UNL     1       7.703  16.007  22.105  0.00  0.00    +0.000 S 
BRANCH  21  22
ATOM     22  C   UNL     1       7.043  17.164  23.343  0.00  0.00    +0.000 C 
BRANCH  22  23
ATOM     23  C   UNL     1       5.597  16.835  23.649  0.00  0.00    +0.000 A 
ATOM     24  C   UNL     1       4.795  17.729  24.377  0.00  0.00    +0.000 A 
ATOM     25  C   UNL     1       5.047  15.599  23.270  0.00  0.00    +0.000 A 
ATOM     26  C   UNL     1       3.483  17.392  24.728  0.00  0.00    +0.000 A 
ATOM     27  C   UNL     1       3.733  15.264  23.616  0.00  0.00    +0.000 A 
ATOM     28  C   UNL     1       2.953  16.159  24.348  0.00  0.00    +0.000 A 
ENDBRANCH  22  23
ENDBRANCH  21  22
ENDBRANCH   5  21
TORSDOF 7
ENDMDL
MODEL 6
REMARK VINA RESULT:      -4.4     25.268     27.350
REMARK  Name = 3816731
REMARK  7 active torsions:
REMARK  status: ('A' for Active; 'I' for Inactive)
REMARK    1  A    between atoms: S_3  and  C_10
REMARK    2  A    between atoms: S_3  and  C_13
REMARK    3  A    between atoms: O_5  and  N_8
REMARK    4  A    between atoms: O_5  and  C_20
REMARK    5  A    between atoms: C_9  and  C_15
REMARK    6  A    between atoms: C_13  and  C_14
REMARK    7  A    between atoms: C_17  and  C_20
REMARK                            x       y       z     vdW  Elec       q    Type
REMARK                         _______ _______ _______ _____ _____    ______ ____
ROOT
ATOM      1  S   UNL     1     -18.056   7.505  19.260  0.00  0.00    +0.000 S 
ATOM      2  N   UNL     1     -16.079   6.593  20.624  0.00  0.00    +0.000 N 
ATOM      3  N   UNL     1     -16.464   8.709  21.246  0.00  0.00    +0.000 NA
ATOM      4  C   UNL     1     -15.104   6.871  21.555  0.00  0.00    +0.000 A 
ATOM      5  C   UNL     1     -15.373   8.193  21.913  0.00  0.00    +0.000 A 
ATOM      6  C   UNL     1     -16.827   7.717  20.477  0.00  0.00    +0.000 A 
ATOM      7  C   UNL     1     -16.461   5.530  19.826  0.00  0.00    +0.000 A 
ATOM      8  C   UNL     1     -17.473   5.858  19.005  0.00  0.00    +0.000 A 
ENDROOT
BRANCH   4  10
ATOM      9  N   UNL     1     -12.810   6.002  21.716  0.00  0.00    +0.000 NA
ATOM     10  C   UNL     1     -14.071   5.990  22.040  0.00  0.00    +0.000 C 
BRANCH   9  11
ATOM     11  O   UNL     1     -12.493   7.149  20.983  0.00  0.00    +0.000 OA
BRANCH  11  12
ATOM     12  C   UNL     1     -11.530   6.869  19.974  0.00  0.00    +0.000 C 
BRANCH  12  15
ATOM     13 CL   UNL     1     -10.427   9.081  15.379  0.00  0.00    +0.000 Cl
ATOM     14 CL   UNL     1     -13.555   9.960  15.196  0.00  0.00    +0.000 Cl
ATOM     15  C   UNL     1     -12.006   7.574  18.728  0.00  0.00    +0.000 A 
ATOM     16  C   UNL     1     -11.124   7.927  17.698  0.00  0.00    +0.000 A 
ATOM     17  C   UNL     1     -13.362   7.910  18.606  0.00  0.00    +0.000 A 
ATOM     18  C   UNL     1     -11.583   8.650  16.589  0.00  0.00    +0.000 A 
ATOM     19  C   UNL     1     -13.822   8.628  17.503  0.00  0.00    +0.000 A 
ATOM     20  C   UNL     1     -12.932   9.015  16.501  0.00  0.00    +0.000 A 
ENDBRANCH  12  15
ENDBRANCH  11  12
ENDBRANCH   9  11
ENDBRANCH   4  10
BRANCH   5  21
ATOM     21  S   UNL     1     -14.367   9.167  22.968  0.00  0.00    +0.000 S 
BRANCH  21  22
ATOM     22  C   UNL     1     -14.491  10.827  22.236  0.00  0.00    +0.000 C 
BRANCH  22  23
ATOM     23  C   UNL     1     -13.492  10.979  21.108  0.00  0.00    +0.000 A 
ATOM     24  C   UNL     1     -12.183  10.488  21.237  0.00  0.00    +0.000 A 
ATOM     25  C   UNL     1     -13.834  11.674  19.936  0.00  0.00    +0.000 A 
ATOM     26  C   UNL     1     -11.236  10.696  20.227  0.00  0.00    +0.000 A 
ATOM     27  C   UNL     1     -12.889  11.878  18.923  0.00  0.00    +0.000 A 
ATOM     28  C   UNL     1     -11.591  11.392  19.071  0.00  0.00    +0.000 A 
ENDBRANCH  22  23
ENDBRANCH  21  22
ENDBRANCH   5  21
TORSDOF 7
ENDMDL
MODEL 7
REMARK VINA RESULT:      -4.3     24.612     26.883
REMARK  Name = 3816731
REMARK  7 active torsions:
REMARK  status: ('A' for Active; 'I' for Inactive)
REMARK    1  A    between atoms: S_3  and  C_10
REMARK    2  A    between atoms: S_3  and  C_13
REMARK    3  A    between atoms: O_5  and  N_8
REMARK    4  A    between atoms: O_5  and  C_20
REMARK    5  A    between atoms: C_9  and  C_15
REMARK    6  A    between atoms: C_13  and  C_14
REMARK    7  A    between atoms: C_17  and  C_20
REMARK                            x       y       z     vdW  Elec       q    Type
REMARK                         _______ _______ _______ _____ _____    ______ ____
ROOT
ATOM      1  S   UNL     1     -13.010   7.782  13.426  0.00  0.00    +0.000 S 
ATOM      2  N   UNL     1     -11.480   9.185  14.941  0.00  0.00    +0.000 N 
ATOM      3  N   UNL     1     -13.569   9.974  15.103  0.00  0.00    +0.000 NA
ATOM      4  C   UNL     1     -11.385  10.267  15.786  0.00  0.00    +0.000 A 
ATOM      5  C   UNL     1     -12.699  10.732  15.857  0.00  0.00    +0.000 A 
ATOM      6  C   UNL     1     -12.781   9.083  14.563  0.00  0.00    +0.000 A 
ATOM      7  C   UNL     1     -10.637   8.239  14.388  0.00  0.00    +0.000 A 
ATOM      8  C   UNL     1     -11.280   7.438  13.521  0.00  0.00    +0.000 A 
ENDROOT
BRANCH   4  10
ATOM      9  N   UNL     1      -9.640  10.305  17.517  0.00  0.00    +0.000 NA
ATOM     10  C   UNL     1     -10.204  10.773  16.441  0.00  0.00    +0.000 C 
BRANCH   9  11
ATOM     11  O   UNL     1     -10.186   9.069  17.872  0.00  0.00    +0.000 OA
BRANCH  11  12
ATOM     12  C   UNL     1     -10.269   8.926  19.285  0.00  0.00    +0.000 C 
BRANCH  12  15
ATOM     13 CL   UNL     1     -15.105   7.818  17.667  0.00  0.00    +0.000 Cl
ATOM     14 CL   UNL     1     -15.750   6.816  20.695  0.00  0.00    +0.000 Cl
ATOM     15  C   UNL     1     -11.628   8.338  19.572  0.00  0.00    +0.000 A 
ATOM     16  C   UNL     1     -12.632   8.290  18.595  0.00  0.00    +0.000 A 
ATOM     17  C   UNL     1     -11.906   7.847  20.856  0.00  0.00    +0.000 A 
ATOM     18  C   UNL     1     -13.908   7.809  18.915  0.00  0.00    +0.000 A 
ATOM     19  C   UNL     1     -13.175   7.367  21.176  0.00  0.00    +0.000 A 
ATOM     20  C   UNL     1     -14.184   7.362  20.213  0.00  0.00    +0.000 A 
ENDBRANCH  12  15
ENDBRANCH  11  12
ENDBRANCH   9  11
ENDBRANCH   4  10
BRANCH   5  21
ATOM     21  S   UNL     1     -13.196  12.200  16.677  0.00  0.00    +0.000 S 
BRANCH  21  22
ATOM     22  C   UNL     1     -12.642  11.924  18.387  0.00  0.00    +0.000 C 
BRANCH  22  23
ATOM     23  C   UNL     1     -13.811  11.514  19.256  0.00  0.00    +0.000 A 
ATOM     24  C   UNL     1     -13.647  11.323  20.638  0.00  0.00    +0.000 A 
ATOM     25  C   UNL     1     -15.069  11.251  18.689  0.00  0.00    +0.000 A 
ATOM     26  C   UNL     1     -14.708  10.868  21.430  0.00  0.00    +0.000 A 
ATOM     27  C   UNL     1     -16.132  10.801  19.481  0.00  0.00    +0.000 A 
ATOM     28  C   UNL     1     -15.950  10.607  20.850  0.00  0.00    +0.000 A 
ENDBRANCH  22  23
ENDBRANCH  21  22
ENDBRANCH   5  21
TORSDOF 7
ENDMDL
MODEL 8
REMARK VINA RESULT:      -4.3     29.713     31.168
REMARK  Name = 3816731
REMARK  7 active torsions:
REMARK  status: ('A' for Active; 'I' for Inactive)
REMARK    1  A    between atoms: S_3  and  C_10
REMARK    2  A    between atoms: S_3  and  C_13
REMARK    3  A    between atoms: O_5  and  N_8
REMARK    4  A    between atoms: O_5  and  C_20
REMARK    5  A    between atoms: C_9  and  C_15
REMARK    6  A    between atoms: C_13  and  C_14
REMARK    7  A    between atoms: C_17  and  C_20
REMARK                            x       y       z     vdW  Elec       q    Type
REMARK                         _______ _______ _______ _____ _____    ______ ____
ROOT
ATOM      1  S   UNL     1     -16.466   8.926  28.765  0.00  0.00    +0.000 S 
ATOM      2  N   UNL     1     -17.001   7.391  30.754  0.00  0.00    +0.000 N 
ATOM      3  N   UNL     1     -17.187   6.206  28.865  0.00  0.00    +0.000 NA
ATOM      4  C   UNL     1     -17.410   6.141  31.159  0.00  0.00    +0.000 A 
ATOM      5  C   UNL     1     -17.520   5.437  29.960  0.00  0.00    +0.000 A 
ATOM      6  C   UNL     1     -16.909   7.365  29.400  0.00  0.00    +0.000 A 
ATOM      7  C   UNL     1     -16.696   8.608  31.336  0.00  0.00    +0.000 A 
ATOM      8  C   UNL     1     -16.431   9.551  30.416  0.00  0.00    +0.000 A 
ENDROOT
BRANCH   4  10
ATOM      9  N   UNL     1     -16.960   4.804  33.173  0.00  0.00    +0.000 NA
ATOM     10  C   UNL     1     -17.649   5.685  32.506  0.00  0.00    +0.000 C 
BRANCH   9  11
ATOM     11  O   UNL     1     -15.775   4.487  32.505  0.00  0.00    +0.000 OA
BRANCH  11  12
ATOM     12  C   UNL     1     -14.712   4.250  33.421  0.00  0.00    +0.000 C 
BRANCH  12  15
ATOM     13 CL   UNL     1     -12.758   8.786  31.736  0.00  0.00    +0.000 Cl
ATOM     14 CL   UNL     1     -12.045   9.483  34.833  0.00  0.00    +0.000 Cl
ATOM     15  C   UNL     1     -14.114   5.600  33.733  0.00  0.00    +0.000 A 
ATOM     16  C   UNL     1     -13.789   6.514  32.723  0.00  0.00    +0.000 A 
ATOM     17  C   UNL     1     -13.854   5.942  35.069  0.00  0.00    +0.000 A 
ATOM     18  C   UNL     1     -13.164   7.727  33.041  0.00  0.00    +0.000 A 
ATOM     19  C   UNL     1     -13.233   7.148  35.387  0.00  0.00    +0.000 A 
ATOM     20  C   UNL     1     -12.870   8.037  34.374  0.00  0.00    +0.000 A 
ENDBRANCH  12  15
ENDBRANCH  11  12
ENDBRANCH   9  11
ENDBRANCH   4  10
BRANCH   5  21
ATOM     21  S   UNL     1     -18.153   3.809  29.810  0.00  0.00    +0.000 S 
BRANCH  21  22
ATOM     22  C   UNL     1     -17.085   3.068  28.538  0.00  0.00    +0.000 C 
BRANCH  22  23
ATOM     23  C   UNL     1     -15.937   2.325  29.187  0.00  0.00    +0.000 A 
ATOM     24  C   UNL     1     -16.019   0.945  29.428  0.00  0.00    +0.000 A 
ATOM     25  C   UNL     1     -14.793   3.014  29.624  0.00  0.00    +0.000 A 
ATOM     26  C   UNL     1     -14.991   0.271  30.099  0.00  0.00    +0.000 A 
ATOM     27  C   UNL     1     -13.762   2.340  30.290  0.00  0.00    +0.000 A 
ATOM     28  C   UNL     1     -13.863   0.971  30.529  0.00  0.00    +0.000 A 
ENDBRANCH  22  23
ENDBRANCH  21  22
ENDBRANCH   5  21
TORSDOF 7
ENDMDL
MODEL 9
REMARK VINA RESULT:      -4.3     23.099     25.374
REMARK  Name = 3816731
REMARK  7 active torsions:
REMARK  status: ('A' for Active; 'I' for Inactive)
REMARK    1  A    between atoms: S_3  and  C_10
REMARK    2  A    between atoms: S_3  and  C_13
REMARK    3  A    between atoms: O_5  and  N_8
REMARK    4  A    between atoms: O_5  and  C_20
REMARK    5  A    between atoms: C_9  and  C_15
REMARK    6  A    between atoms: C_13  and  C_14
REMARK    7  A    between atoms: C_17  and  C_20
REMARK                            x       y       z     vdW  Elec       q    Type
REMARK                         _______ _______ _______ _____ _____    ______ ____
ROOT
ATOM      1  S   UNL     1     -13.151   7.902  13.475  0.00  0.00    +0.000 S 
ATOM      2  N   UNL     1     -11.584   8.382  15.455  0.00  0.00    +0.000 N 
ATOM      3  N   UNL     1     -13.692   8.325  16.207  0.00  0.00    +0.000 NA
ATOM      4  C   UNL     1     -11.490   8.674  16.796  0.00  0.00    +0.000 A 
ATOM      5  C   UNL     1     -12.817   8.635  17.225  0.00  0.00    +0.000 A 
ATOM      6  C   UNL     1     -12.901   8.208  15.173  0.00  0.00    +0.000 A 
ATOM      7  C   UNL     1     -10.734   8.247  14.373  0.00  0.00    +0.000 A 
ATOM      8  C   UNL     1     -11.407   8.034  13.229  0.00  0.00    +0.000 A 
ENDROOT
BRANCH   4  10
ATOM      9  N   UNL     1      -9.567  10.021  17.529  0.00  0.00    +0.000 NA
ATOM     10  C   UNL     1     -10.295   8.941  17.558  0.00  0.00    +0.000 C 
BRANCH   9  11
ATOM     11  O   UNL     1     -10.209  11.037  16.817  0.00  0.00    +0.000 OA
BRANCH  11  12
ATOM     12  C   UNL     1     -10.513  12.146  17.655  0.00  0.00    +0.000 C 
BRANCH  12  15
ATOM     13 CL   UNL     1      -5.923  13.516  15.586  0.00  0.00    +0.000 Cl
ATOM     14 CL   UNL     1      -6.520  16.552  16.595  0.00  0.00    +0.000 Cl
ATOM     15  C   UNL     1      -9.522  13.227  17.302  0.00  0.00    +0.000 A 
ATOM     16  C   UNL     1      -8.326  12.940  16.630  0.00  0.00    +0.000 A 
ATOM     17  C   UNL     1      -9.790  14.552  17.678  0.00  0.00    +0.000 A 
ATOM     18  C   UNL     1      -7.391  13.955  16.386  0.00  0.00    +0.000 A 
ATOM     19  C   UNL     1      -8.861  15.563  17.435  0.00  0.00    +0.000 A 
ATOM     20  C   UNL     1      -7.652  15.265  16.804  0.00  0.00    +0.000 A 
ENDBRANCH  12  15
ENDBRANCH  11  12
ENDBRANCH   9  11
ENDBRANCH   4  10
BRANCH   5  21
ATOM     21  S   UNL     1     -13.361   9.076  18.832  0.00  0.00    +0.000 S 
BRANCH  21  22
ATOM     22  C   UNL     1     -12.395   7.974  19.910  0.00  0.00    +0.000 C 
BRANCH  22  23
ATOM     23  C   UNL     1     -13.317   7.039  20.663  0.00  0.00    +0.000 A 
ATOM     24  C   UNL     1     -12.800   6.068  21.535  0.00  0.00    +0.000 A 
ATOM     25  C   UNL     1     -14.706   7.078  20.454  0.00  0.00    +0.000 A 
ATOM     26  C   UNL     1     -13.645   5.151  22.171  0.00  0.00    +0.000 A 
ATOM     27  C   UNL     1     -15.553   6.166  21.094  0.00  0.00    +0.000 A 
ATOM     28  C   UNL     1     -15.022   5.202  21.949  0.00  0.00    +0.000 A 
ENDBRANCH  22  23
ENDBRANCH  21  22
ENDBRANCH   5  21
TORSDOF 7
ENDMDL
MODEL 10
REMARK VINA RESULT:      -4.2     16.236     18.545
REMARK  Name = 3816731
REMARK  7 active torsions:
REMARK  status: ('A' for Active; 'I' for Inactive)
REMARK    1  A    between atoms: S_3  and  C_10
REMARK    2  A    between atoms: S_3  and  C_13
REMARK    3  A    between atoms: O_5  and  N_8
REMARK    4  A    between atoms: O_5  and  C_20
REMARK    5  A    between atoms: C_9  and  C_15
REMARK    6  A    between atoms: C_13  and  C_14
REMARK    7  A    between atoms: C_17  and  C_20
REMARK                            x       y       z     vdW  Elec       q    Type
REMARK                         _______ _______ _______ _____ _____    ______ ____
ROOT
ATOM      1  S   UNL     1      15.618   9.661   3.305  0.00  0.00    +0.000 S 
ATOM      2  N   UNL     1      14.320   7.850   2.026  0.00  0.00    +0.000 N 
ATOM      3  N   UNL     1      13.149   9.756   1.955  0.00  0.00    +0.000 NA
ATOM      4  C   UNL     1      13.167   7.532   1.346  0.00  0.00    +0.000 A 
ATOM      5  C   UNL     1      12.464   8.737   1.328  0.00  0.00    +0.000 A 
ATOM      6  C   UNL     1      14.235   9.161   2.370  0.00  0.00    +0.000 A 
ATOM      7  C   UNL     1      15.472   7.210   2.445  0.00  0.00    +0.000 A 
ATOM      8  C   UNL     1      16.255   8.018   3.180  0.00  0.00    +0.000 A 
ENDROOT
BRANCH   4  10
ATOM      9  N   UNL     1      12.446   5.182   1.432  0.00  0.00    +0.000 NA
ATOM     10  C   UNL     1      12.798   6.256   0.784  0.00  0.00    +0.000 C 
BRANCH   9  11
ATOM     11  O   UNL     1      12.237   5.461   2.785  0.00  0.00    +0.000 OA
BRANCH  11  12
ATOM     12  C   UNL     1      11.181   4.672   3.319  0.00  0.00    +0.000 C 
BRANCH  12  15
ATOM     13 CL   UNL     1      11.772   8.242   7.078  0.00  0.00    +0.000 Cl
ATOM     14 CL   UNL     1       8.734   7.561   8.025  0.00  0.00    +0.000 Cl
ATOM     15  C   UNL     1      10.586   5.471   4.452  0.00  0.00    +0.000 A 
ATOM     16  C   UNL     1      11.332   6.430   5.149  0.00  0.00    +0.000 A 
ATOM     17  C   UNL     1       9.258   5.232   4.837  0.00  0.00    +0.000 A 
ATOM     18  C   UNL     1      10.775   7.101   6.246  0.00  0.00    +0.000 A 
ATOM     19  C   UNL     1       8.702   5.898   5.928  0.00  0.00    +0.000 A 
ATOM     20  C   UNL     1       9.463   6.821   6.646  0.00  0.00    +0.000 A 
ENDBRANCH  12  15
ENDBRANCH  11  12
ENDBRANCH   9  11
ENDBRANCH   4  10
BRANCH   5  21
ATOM     21  S   UNL     1      10.830   8.933   0.723  0.00  0.00    +0.000 S 
BRANCH  21  22
ATOM     22  C   UNL     1       9.853   7.870   1.829  0.00  0.00    +0.000 C 
BRANCH  22  23
ATOM     23  C   UNL     1       9.292   8.683   2.976  0.00  0.00    +0.000 A 
ATOM     24  C   UNL     1      10.090   9.620   3.650  0.00  0.00    +0.000 A 
ATOM     25  C   UNL     1       7.981   8.467   3.434  0.00  0.00    +0.000 A 
ATOM     26  C   UNL     1       9.597  10.315   4.761  0.00  0.00    +0.000 A 
ATOM     27  C   UNL     1       7.486   9.166   4.541  0.00  0.00    +0.000 A 
ATOM     28  C   UNL     1       8.295  10.087   5.205  0.00  0.00    +0.000 A 
ENDBRANCH  22  23
ENDBRANCH  21  22
ENDBRANCH   5  21
TORSDOF 7
ENDMDL
