REMARK  Name = 3816731
REMARK  7 active torsions:
REMARK  status: ('A' for Active; 'I' for Inactive)
REMARK    1  A    between atoms: S_3  and  C_10
REMARK    2  A    between atoms: S_3  and  C_13
REMARK    3  A    between atoms: O_5  and  N_8
REMARK    4  A    between atoms: O_5  and  C_20
REMARK    5  A    between atoms: C_9  and  C_15
REMARK    6  A    between atoms: C_13  and  C_14
REMARK    7  A    between atoms: C_17  and  C_20
REMARK                            x       y       z     vdW  Elec       q    Type
REMARK                         _______ _______ _______ _____ _____    ______ ____
ROOT
ATOM      1  S   UNL     1      -8.585  -2.450  -4.190  0.00  0.00    +0.000 S 
ATOM      2  N   UNL     1      -6.533  -0.932  -3.897  0.00  0.00    +0.000 N 
ATOM      3  N   UNL     1      -8.193  -0.148  -2.616  0.00  0.00    +0.000 NA
ATOM      4  C   UNL     1      -6.025   0.208  -3.317  0.00  0.00    +0.000 A 
ATOM      5  C   UNL     1      -7.085   0.668  -2.535  0.00  0.00    +0.000 A 
ATOM      6  C   UNL     1      -7.811  -1.070  -3.459  0.00  0.00    +0.000 A 
ATOM      7  C   UNL     1      -6.110  -1.909  -4.779  0.00  0.00    +0.000 A 
ATOM      8  C   UNL     1      -7.094  -2.774  -5.079  0.00  0.00    +0.000 A 
ENDROOT
BRANCH   4  10
ATOM      9  N   UNL     1      -3.977   0.762  -4.560  0.00  0.00    +0.000 NA
ATOM     10  C   UNL     1      -4.706   0.768  -3.481  0.00  0.00    +0.000 C 
BRANCH   9  11
ATOM     11  O   UNL     1      -4.720   0.334  -5.663  0.00  0.00    +0.000 OA
BRANCH  11  12
ATOM     12  C   UNL     1      -3.885   0.100  -6.791  0.00  0.00    +0.000 C 
BRANCH  12  15
ATOM     13 CL   UNL     1      -5.672  -2.060 -11.192  0.00  0.00    +0.000 Cl
ATOM     14 CL   UNL     1      -7.281   0.713 -11.748  0.00  0.00    +0.000 Cl
ATOM     15  C   UNL     1      -4.779   0.180  -8.003  0.00  0.00    +0.000 A 
ATOM     16  C   UNL     1      -4.866  -0.871  -8.926  0.00  0.00    +0.000 A 
ATOM     17  C   UNL     1      -5.526   1.346  -8.229  0.00  0.00    +0.000 A 
ATOM     18  C   UNL     1      -5.646  -0.735 -10.082  0.00  0.00    +0.000 A 
ATOM     19  C   UNL     1      -6.303   1.483  -9.378  0.00  0.00    +0.000 A 
ATOM     20  C   UNL     1      -6.352   0.451 -10.316  0.00  0.00    +0.000 A 
ENDBRANCH  12  15
ENDBRANCH  11  12
ENDBRANCH   9  11
ENDBRANCH   4  10
BRANCH   5  21
ATOM     21  S   UNL     1      -7.096   2.187  -1.660  0.00  0.00    +0.000 S 
BRANCH  21  22
ATOM     22  C   UNL     1      -8.279   1.877  -0.314  0.00  0.00    +0.000 C 
BRANCH  22  23
ATOM     23  C   UNL     1      -8.450   3.122   0.530  0.00  0.00    +0.000 A 
ATOM     24  C   UNL     1      -9.441   4.068   0.223  0.00  0.00    +0.000 A 
ATOM     25  C   UNL     1      -7.576   3.391   1.597  0.00  0.00    +0.000 A 
ATOM     26  C   UNL     1      -9.549   5.257   0.954  0.00  0.00    +0.000 A 
ATOM     27  C   UNL     1      -7.687   4.577   2.332  0.00  0.00    +0.000 A 
ATOM     28  C   UNL     1      -8.671   5.510   2.008  0.00  0.00    +0.000 A 
ENDBRANCH  22  23
ENDBRANCH  21  22
ENDBRANCH   5  21
TORSDOF 7
