REMARK  Name = 4300847
REMARK  5 active torsions:
REMARK  status: ('A' for Active; 'I' for Inactive)
REMARK    1  A    between atoms: O_4  and  N_7
REMARK    2  A    between atoms: O_4  and  C_20
REMARK    3  A    between atoms: C_8  and  C_13
REMARK    4  A    between atoms: C_9  and  C_11
REMARK    5  A    between atoms: C_17  and  C_20
REMARK                            x       y       z     vdW  Elec       q    Type
REMARK                         _______ _______ _______ _____ _____    ______ ____
ROOT
ATOM      1  S   UNL     1      -1.935  -8.352  -4.158  0.00  0.00    +0.000 S 
ATOM      2  N   UNL     1      -2.211  -5.798  -4.021  0.00  0.00    +0.000 N 
ATOM      3  N   UNL     1      -3.551  -6.752  -2.512  0.00  0.00    +0.000 NA
ATOM      4  C   UNL     1      -2.779  -4.741  -3.350  0.00  0.00    +0.000 A 
ATOM      5  C   UNL     1      -3.647  -5.371  -2.446  0.00  0.00    +0.000 A 
ATOM      6  C   UNL     1      -2.640  -6.944  -3.421  0.00  0.00    +0.000 A 
ATOM      7  C   UNL     1      -1.393  -5.998  -5.115  0.00  0.00    +0.000 A 
ATOM      8  C   UNL     1      -1.109  -7.295  -5.308  0.00  0.00    +0.000 A 
ENDROOT
BRANCH   5   9
ATOM      9  C   UNL     1      -4.605  -4.705  -1.573  0.00  0.00    +0.000 A 
ATOM     10  C   UNL     1      -4.306  -3.494  -0.932  0.00  0.00    +0.000 A 
ATOM     11  C   UNL     1      -5.879  -5.260  -1.397  0.00  0.00    +0.000 A 
ATOM     12  C   UNL     1      -5.287  -2.806  -0.215  0.00  0.00    +0.000 A 
ATOM     13  C   UNL     1      -6.856  -4.582  -0.661  0.00  0.00    +0.000 A 
ATOM     14  C   UNL     1      -6.566  -3.344  -0.092  0.00  0.00    +0.000 A 
ENDBRANCH   5   9
BRANCH   4  16
ATOM     15  N   UNL     1      -1.517  -2.722  -4.005  0.00  0.00    +0.000 NA
ATOM     16  C   UNL     1      -2.591  -3.338  -3.604  0.00  0.00    +0.000 C 
BRANCH  15  17
ATOM     17  O   UNL     1      -0.401  -3.566  -4.073  0.00  0.00    +0.000 OA
BRANCH  17  18
ATOM     18  C   UNL     1       0.518  -3.066  -5.047  0.00  0.00    +0.000 C 
BRANCH  18  21
ATOM     19 CL   UNL     1       2.983  -4.909  -4.433  0.00  0.00    +0.000 Cl
ATOM     20 CL   UNL     1       5.057  -0.636  -1.946  0.00  0.00    +0.000 Cl
ATOM     21  C   UNL     1       1.700  -2.487  -4.333  0.00  0.00    +0.000 A 
ATOM     22  C   UNL     1       2.830  -3.244  -3.994  0.00  0.00    +0.000 A 
ATOM     23  C   UNL     1       1.633  -1.138  -3.922  0.00  0.00    +0.000 A 
ATOM     24  C   UNL     1       3.874  -2.668  -3.267  0.00  0.00    +0.000 A 
ATOM     25  C   UNL     1       2.672  -0.566  -3.198  0.00  0.00    +0.000 A 
ATOM     26  C   UNL     1       3.785  -1.336  -2.869  0.00  0.00    +0.000 A 
ENDBRANCH  18  21
ENDBRANCH  17  18
ENDBRANCH  15  17
ENDBRANCH   4  16
TORSDOF 5
