MODEL 1
REMARK VINA RESULT:      -6.2      0.000      0.000
REMARK  Name = 4300847
REMARK  5 active torsions:
REMARK  status: ('A' for Active; 'I' for Inactive)
REMARK    1  A    between atoms: O_4  and  N_7
REMARK    2  A    between atoms: O_4  and  C_20
REMARK    3  A    between atoms: C_8  and  C_13
REMARK    4  A    between atoms: C_9  and  C_11
REMARK    5  A    between atoms: C_17  and  C_20
REMARK                            x       y       z     vdW  Elec       q    Type
REMARK                         _______ _______ _______ _____ _____    ______ ____
ROOT
ATOM      1  S   UNL     1      -5.977   2.410 -60.753  0.00  0.00    +0.000 S 
ATOM      2  N   UNL     1      -4.657   1.946 -58.594  0.00  0.00    +0.000 N 
ATOM      3  N   UNL     1      -5.252   4.097 -58.630  0.00  0.00    +0.000 NA
ATOM      4  C   UNL     1      -4.220   2.443 -57.389  0.00  0.00    +0.000 A 
ATOM      5  C   UNL     1      -4.566   3.800 -57.463  0.00  0.00    +0.000 A 
ATOM      6  C   UNL     1      -5.329   2.946 -59.232  0.00  0.00    +0.000 A 
ATOM      7  C   UNL     1      -4.564   0.772 -59.314  0.00  0.00    +0.000 A 
ATOM      8  C   UNL     1      -5.245   0.827 -60.469  0.00  0.00    +0.000 A 
ENDROOT
BRANCH   5   9
ATOM      9  C   UNL     1      -4.208   4.829 -56.495  0.00  0.00    +0.000 A 
ATOM     10  C   UNL     1      -3.423   5.936 -56.846  0.00  0.00    +0.000 A 
ATOM     11  C   UNL     1      -4.695   4.741 -55.184  0.00  0.00    +0.000 A 
ATOM     12  C   UNL     1      -3.212   6.977 -55.939  0.00  0.00    +0.000 A 
ATOM     13  C   UNL     1      -4.466   5.773 -54.268  0.00  0.00    +0.000 A 
ATOM     14  C   UNL     1      -3.746   6.901 -54.655  0.00  0.00    +0.000 A 
ENDBRANCH   5   9
BRANCH   4  16
ATOM     15  N   UNL     1      -3.961   1.001 -55.401  0.00  0.00    +0.000 NA
ATOM     16  C   UNL     1      -3.495   1.743 -56.363  0.00  0.00    +0.000 C 
BRANCH  15  17
ATOM     17  O   UNL     1      -5.360   1.012 -55.337  0.00  0.00    +0.000 OA
BRANCH  17  18
ATOM     18  C   UNL     1      -5.777   1.521 -54.068  0.00  0.00    +0.000 C 
BRANCH  18  21
ATOM     19 CL   UNL     1      -4.840   0.809 -51.158  0.00  0.00    +0.000 Cl
ATOM     20 CL   UNL     1      -8.544  -3.063 -51.338  0.00  0.00    +0.000 Cl
ATOM     21  C   UNL     1      -6.480   0.429 -53.324  0.00  0.00    +0.000 A 
ATOM     22  C   UNL     1      -6.110   0.027 -52.033  0.00  0.00    +0.000 A 
ATOM     23  C   UNL     1      -7.511  -0.271 -53.987  0.00  0.00    +0.000 A 
ATOM     24  C   UNL     1      -6.757  -1.045 -51.414  0.00  0.00    +0.000 A 
ATOM     25  C   UNL     1      -8.154  -1.337 -53.371  0.00  0.00    +0.000 A 
ATOM     26  C   UNL     1      -7.769  -1.723 -52.089  0.00  0.00    +0.000 A 
ENDBRANCH  18  21
ENDBRANCH  17  18
ENDBRANCH  15  17
ENDBRANCH   4  16
TORSDOF 5
ENDMDL
MODEL 2
REMARK VINA RESULT:      -5.8     20.697     23.377
REMARK  Name = 4300847
REMARK  5 active torsions:
REMARK  status: ('A' for Active; 'I' for Inactive)
REMARK    1  A    between atoms: O_4  and  N_7
REMARK    2  A    between atoms: O_4  and  C_20
REMARK    3  A    between atoms: C_8  and  C_13
REMARK    4  A    between atoms: C_9  and  C_11
REMARK    5  A    between atoms: C_17  and  C_20
REMARK                            x       y       z     vdW  Elec       q    Type
REMARK                         _______ _______ _______ _____ _____    ______ ____
ROOT
ATOM      1  S   UNL     1     -11.882   4.062 -31.928  0.00  0.00    +0.000 S 
ATOM      2  N   UNL     1     -11.865   5.587 -33.999  0.00  0.00    +0.000 N 
ATOM      3  N   UNL     1      -9.950   4.443 -33.928  0.00  0.00    +0.000 NA
ATOM      4  C   UNL     1     -11.206   5.950 -35.150  0.00  0.00    +0.000 A 
ATOM      5  C   UNL     1      -9.992   5.254 -35.051  0.00  0.00    +0.000 A 
ATOM      6  C   UNL     1     -11.112   4.637 -33.376  0.00  0.00    +0.000 A 
ATOM      7  C   UNL     1     -13.012   5.943 -33.318  0.00  0.00    +0.000 A 
ATOM      8  C   UNL     1     -13.200   5.203 -32.215  0.00  0.00    +0.000 A 
ENDROOT
BRANCH   5   9
ATOM      9  C   UNL     1      -8.854   5.385 -35.952  0.00  0.00    +0.000 A 
ATOM     10  C   UNL     1      -8.019   6.511 -35.931  0.00  0.00    +0.000 A 
ATOM     11  C   UNL     1      -8.553   4.342 -36.838  0.00  0.00    +0.000 A 
ATOM     12  C   UNL     1      -6.857   6.551 -36.704  0.00  0.00    +0.000 A 
ATOM     13  C   UNL     1      -7.400   4.390 -37.628  0.00  0.00    +0.000 A 
ATOM     14  C   UNL     1      -6.541   5.483 -37.542  0.00  0.00    +0.000 A 
ENDBRANCH   5   9
BRANCH   4  16
ATOM     15  N   UNL     1     -11.408   8.176 -36.199  0.00  0.00    +0.000 NA
ATOM     16  C   UNL     1     -11.635   6.896 -36.145  0.00  0.00    +0.000 C 
BRANCH  15  17
ATOM     17  O   UNL     1     -10.754   8.660 -35.058  0.00  0.00    +0.000 OA
BRANCH  17  18
ATOM     18  C   UNL     1     -11.132  10.020 -34.831  0.00  0.00    +0.000 C 
BRANCH  18  21
ATOM     19 CL   UNL     1     -10.645  13.114 -34.631  0.00  0.00    +0.000 Cl
ATOM     20 CL   UNL     1      -7.623  11.963 -30.355  0.00  0.00    +0.000 Cl
ATOM     21  C   UNL     1     -10.317  10.557 -33.695  0.00  0.00    +0.000 A 
ATOM     22  C   UNL     1     -10.027  11.920 -33.545  0.00  0.00    +0.000 A 
ATOM     23  C   UNL     1      -9.759   9.635 -32.783  0.00  0.00    +0.000 A 
ATOM     24  C   UNL     1      -9.204  12.356 -32.504  0.00  0.00    +0.000 A 
ATOM     25  C   UNL     1      -8.940  10.070 -31.748  0.00  0.00    +0.000 A 
ATOM     26  C   UNL     1      -8.662  11.429 -31.618  0.00  0.00    +0.000 A 
ENDBRANCH  18  21
ENDBRANCH  17  18
ENDBRANCH  15  17
ENDBRANCH   4  16
TORSDOF 5
ENDMDL
MODEL 3
REMARK VINA RESULT:      -5.8     20.132     22.245
REMARK  Name = 4300847
REMARK  5 active torsions:
REMARK  status: ('A' for Active; 'I' for Inactive)
REMARK    1  A    between atoms: O_4  and  N_7
REMARK    2  A    between atoms: O_4  and  C_20
REMARK    3  A    between atoms: C_8  and  C_13
REMARK    4  A    between atoms: C_9  and  C_11
REMARK    5  A    between atoms: C_17  and  C_20
REMARK                            x       y       z     vdW  Elec       q    Type
REMARK                         _______ _______ _______ _____ _____    ______ ____
ROOT
ATOM      1  S   UNL     1     -11.064   9.107 -32.383  0.00  0.00    +0.000 S 
ATOM      2  N   UNL     1     -11.230   7.644 -34.492  0.00  0.00    +0.000 N 
ATOM      3  N   UNL     1      -9.097   7.732 -33.839  0.00  0.00    +0.000 NA
ATOM      4  C   UNL     1     -10.570   6.809 -35.363  0.00  0.00    +0.000 A 
ATOM      5  C   UNL     1      -9.232   6.924 -34.957  0.00  0.00    +0.000 A 
ATOM      6  C   UNL     1     -10.322   8.081 -33.574  0.00  0.00    +0.000 A 
ATOM      7  C   UNL     1     -12.498   8.166 -34.334  0.00  0.00    +0.000 A 
ATOM      8  C   UNL     1     -12.600   8.932 -33.237  0.00  0.00    +0.000 A 
ENDROOT
BRANCH   5   9
ATOM      9  C   UNL     1      -8.079   6.344 -35.634  0.00  0.00    +0.000 A 
ATOM     10  C   UNL     1      -7.470   6.973 -36.730  0.00  0.00    +0.000 A 
ATOM     11  C   UNL     1      -7.530   5.147 -35.157  0.00  0.00    +0.000 A 
ATOM     12  C   UNL     1      -6.285   6.471 -37.271  0.00  0.00    +0.000 A 
ATOM     13  C   UNL     1      -6.355   4.632 -35.713  0.00  0.00    +0.000 A 
ATOM     14  C   UNL     1      -5.721   5.307 -36.753  0.00  0.00    +0.000 A 
ENDBRANCH   5   9
BRANCH   4  16
ATOM     15  N   UNL     1     -11.571   4.865 -36.510  0.00  0.00    +0.000 NA
ATOM     16  C   UNL     1     -11.125   6.088 -36.476  0.00  0.00    +0.000 C 
BRANCH  15  17
ATOM     17  O   UNL     1     -11.354   4.175 -35.311  0.00  0.00    +0.000 OA
BRANCH  17  18
ATOM     18  C   UNL     1     -12.590   4.045 -34.604  0.00  0.00    +0.000 C 
BRANCH  18  21
ATOM     19 CL   UNL     1     -15.094   3.229 -32.898  0.00  0.00    +0.000 Cl
ATOM     20 CL   UNL     1     -12.910  -1.665 -32.757  0.00  0.00    +0.000 Cl
ATOM     21  C   UNL     1     -12.745   2.619 -34.175  0.00  0.00    +0.000 A 
ATOM     22  C   UNL     1     -13.817   2.173 -33.389  0.00  0.00    +0.000 A 
ATOM     23  C   UNL     1     -11.725   1.706 -34.520  0.00  0.00    +0.000 A 
ATOM     24  C   UNL     1     -13.874   0.845 -32.961  0.00  0.00    +0.000 A 
ATOM     25  C   UNL     1     -11.783   0.385 -34.093  0.00  0.00    +0.000 A 
ATOM     26  C   UNL     1     -12.855  -0.037 -33.311  0.00  0.00    +0.000 A 
ENDBRANCH  18  21
ENDBRANCH  17  18
ENDBRANCH  15  17
ENDBRANCH   4  16
TORSDOF 5
ENDMDL
MODEL 4
REMARK VINA RESULT:      -5.8      3.997      7.576
REMARK  Name = 4300847
REMARK  5 active torsions:
REMARK  status: ('A' for Active; 'I' for Inactive)
REMARK    1  A    between atoms: O_4  and  N_7
REMARK    2  A    between atoms: O_4  and  C_20
REMARK    3  A    between atoms: C_8  and  C_13
REMARK    4  A    between atoms: C_9  and  C_11
REMARK    5  A    between atoms: C_17  and  C_20
REMARK                            x       y       z     vdW  Elec       q    Type
REMARK                         _______ _______ _______ _____ _____    ______ ____
ROOT
ATOM      1  S   UNL     1      -0.914  -2.255 -53.410  0.00  0.00    +0.000 S 
ATOM      2  N   UNL     1      -2.478  -0.558 -52.273  0.00  0.00    +0.000 N 
ATOM      3  N   UNL     1      -3.683  -1.851 -53.636  0.00  0.00    +0.000 NA
ATOM      4  C   UNL     1      -3.776  -0.148 -52.077  0.00  0.00    +0.000 A 
ATOM      5  C   UNL     1      -4.498  -0.943 -52.978  0.00  0.00    +0.000 A 
ATOM      6  C   UNL     1      -2.507  -1.616 -53.132  0.00  0.00    +0.000 A 
ATOM      7  C   UNL     1      -1.211  -0.175 -51.881  0.00  0.00    +0.000 A 
ATOM      8  C   UNL     1      -0.261  -0.993 -52.360  0.00  0.00    +0.000 A 
ENDROOT
BRANCH   5   9
ATOM      9  C   UNL     1      -5.919  -0.823 -53.279  0.00  0.00    +0.000 A 
ATOM     10  C   UNL     1      -6.379  -0.490 -54.561  0.00  0.00    +0.000 A 
ATOM     11  C   UNL     1      -6.860  -1.089 -52.276  0.00  0.00    +0.000 A 
ATOM     12  C   UNL     1      -7.743  -0.518 -54.857  0.00  0.00    +0.000 A 
ATOM     13  C   UNL     1      -8.228  -1.096 -52.567  0.00  0.00    +0.000 A 
ATOM     14  C   UNL     1      -8.666  -0.836 -53.863  0.00  0.00    +0.000 A 
ENDBRANCH   5   9
BRANCH   4  16
ATOM     15  N   UNL     1      -4.495   2.151 -51.535  0.00  0.00    +0.000 NA
ATOM     16  C   UNL     1      -4.241   0.913 -51.225  0.00  0.00    +0.000 C 
BRANCH  15  17
ATOM     17  O   UNL     1      -4.146   2.462 -52.856  0.00  0.00    +0.000 OA
BRANCH  17  18
ATOM     18  C   UNL     1      -5.253   3.088 -53.508  0.00  0.00    +0.000 C 
BRANCH  18  21
ATOM     19 CL   UNL     1      -4.451   2.334 -56.447  0.00  0.00    +0.000 Cl
ATOM     20 CL   UNL     1      -2.924   7.452 -56.922  0.00  0.00    +0.000 Cl
ATOM     21  C   UNL     1      -4.728   4.157 -54.416  0.00  0.00    +0.000 A 
ATOM     22  C   UNL     1      -4.321   3.903 -55.733  0.00  0.00    +0.000 A 
ATOM     23  C   UNL     1      -4.572   5.458 -53.891  0.00  0.00    +0.000 A 
ATOM     24  C   UNL     1      -3.774   4.925 -56.513  0.00  0.00    +0.000 A 
ATOM     25  C   UNL     1      -4.028   6.474 -54.667  0.00  0.00    +0.000 A 
ATOM     26  C   UNL     1      -3.626   6.201 -55.973  0.00  0.00    +0.000 A 
ENDBRANCH  18  21
ENDBRANCH  17  18
ENDBRANCH  15  17
ENDBRANCH   4  16
TORSDOF 5
ENDMDL
MODEL 5
REMARK VINA RESULT:      -5.6     21.173     23.810
REMARK  Name = 4300847
REMARK  5 active torsions:
REMARK  status: ('A' for Active; 'I' for Inactive)
REMARK    1  A    between atoms: O_4  and  N_7
REMARK    2  A    between atoms: O_4  and  C_20
REMARK    3  A    between atoms: C_8  and  C_13
REMARK    4  A    between atoms: C_9  and  C_11
REMARK    5  A    between atoms: C_17  and  C_20
REMARK                            x       y       z     vdW  Elec       q    Type
REMARK                         _______ _______ _______ _____ _____    ______ ____
ROOT
ATOM      1  S   UNL     1     -15.273   7.803 -35.487  0.00  0.00    +0.000 S 
ATOM      2  N   UNL     1     -13.617   6.252 -34.274  0.00  0.00    +0.000 N 
ATOM      3  N   UNL     1     -12.668   6.995 -36.153  0.00  0.00    +0.000 NA
ATOM      4  C   UNL     1     -12.343   5.737 -34.242  0.00  0.00    +0.000 A 
ATOM      5  C   UNL     1     -11.792   6.181 -35.453  0.00  0.00    +0.000 A 
ATOM      6  C   UNL     1     -13.710   7.049 -35.376  0.00  0.00    +0.000 A 
ATOM      7  C   UNL     1     -14.784   6.148 -33.545  0.00  0.00    +0.000 A 
ATOM      8  C   UNL     1     -15.756   6.938 -34.024  0.00  0.00    +0.000 A 
ENDROOT
BRANCH   5   9
ATOM      9  C   UNL     1     -10.491   5.804 -35.992  0.00  0.00    +0.000 A 
ATOM     10  C   UNL     1      -9.338   6.561 -35.740  0.00  0.00    +0.000 A 
ATOM     11  C   UNL     1     -10.372   4.630 -36.747  0.00  0.00    +0.000 A 
ATOM     12  C   UNL     1      -8.083   6.104 -36.149  0.00  0.00    +0.000 A 
ATOM     13  C   UNL     1      -9.118   4.183 -37.175  0.00  0.00    +0.000 A 
ATOM     14  C   UNL     1      -7.972   4.908 -36.854  0.00  0.00    +0.000 A 
ENDBRANCH   5   9
BRANCH   4  16
ATOM     15  N   UNL     1     -10.987   5.176 -32.256  0.00  0.00    +0.000 NA
ATOM     16  C   UNL     1     -11.773   4.869 -33.247  0.00  0.00    +0.000 C 
BRANCH  15  17
ATOM     17  O   UNL     1     -10.588   6.519 -32.276  0.00  0.00    +0.000 OA
BRANCH  17  18
ATOM     18  C   UNL     1     -11.227   7.224 -31.210  0.00  0.00    +0.000 C 
BRANCH  18  21
ATOM     19 CL   UNL     1      -8.846   9.268 -31.228  0.00  0.00    +0.000 Cl
ATOM     20 CL   UNL     1     -12.485  12.889 -32.775  0.00  0.00    +0.000 Cl
ATOM     21  C   UNL     1     -11.480   8.631 -31.654  0.00  0.00    +0.000 A 
ATOM     22  C   UNL     1     -10.482   9.616 -31.667  0.00  0.00    +0.000 A 
ATOM     23  C   UNL     1     -12.799   8.992 -32.003  0.00  0.00    +0.000 A 
ATOM     24  C   UNL     1     -10.790  10.930 -32.026  0.00  0.00    +0.000 A 
ATOM     25  C   UNL     1     -13.105  10.300 -32.360  0.00  0.00    +0.000 A 
ATOM     26  C   UNL     1     -12.100  11.264 -32.363  0.00  0.00    +0.000 A 
ENDBRANCH  18  21
ENDBRANCH  17  18
ENDBRANCH  15  17
ENDBRANCH   4  16
TORSDOF 5
ENDMDL
MODEL 6
REMARK VINA RESULT:      -5.6     19.814     22.182
REMARK  Name = 4300847
REMARK  5 active torsions:
REMARK  status: ('A' for Active; 'I' for Inactive)
REMARK    1  A    between atoms: O_4  and  N_7
REMARK    2  A    between atoms: O_4  and  C_20
REMARK    3  A    between atoms: C_8  and  C_13
REMARK    4  A    between atoms: C_9  and  C_11
REMARK    5  A    between atoms: C_17  and  C_20
REMARK                            x       y       z     vdW  Elec       q    Type
REMARK                         _______ _______ _______ _____ _____    ______ ____
ROOT
ATOM      1  S   UNL     1     -14.198   7.587 -35.494  0.00  0.00    +0.000 S 
ATOM      2  N   UNL     1     -12.345   6.294 -34.265  0.00  0.00    +0.000 N 
ATOM      3  N   UNL     1     -11.642   6.777 -36.328  0.00  0.00    +0.000 NA
ATOM      4  C   UNL     1     -11.050   5.833 -34.303  0.00  0.00    +0.000 A 
ATOM      5  C   UNL     1     -10.656   6.108 -35.620  0.00  0.00    +0.000 A 
ATOM      6  C   UNL     1     -12.596   6.913 -35.453  0.00  0.00    +0.000 A 
ATOM      7  C   UNL     1     -13.420   6.262 -33.399  0.00  0.00    +0.000 A 
ATOM      8  C   UNL     1     -14.477   6.937 -33.875  0.00  0.00    +0.000 A 
ENDROOT
BRANCH   5   9
ATOM      9  C   UNL     1      -9.404   5.699 -36.243  0.00  0.00    +0.000 A 
ATOM     10  C   UNL     1      -8.219   6.430 -36.075  0.00  0.00    +0.000 A 
ATOM     11  C   UNL     1      -9.362   4.519 -36.996  0.00  0.00    +0.000 A 
ATOM     12  C   UNL     1      -7.005   5.943 -36.563  0.00  0.00    +0.000 A 
ATOM     13  C   UNL     1      -8.150   4.041 -37.505  0.00  0.00    +0.000 A 
ATOM     14  C   UNL     1      -6.969   4.741 -37.266  0.00  0.00    +0.000 A 
ENDBRANCH   5   9
BRANCH   4  16
ATOM     15  N   UNL     1     -10.055   3.878 -33.170  0.00  0.00    +0.000 NA
ATOM     16  C   UNL     1     -10.333   5.146 -33.263  0.00  0.00    +0.000 C 
BRANCH  15  17
ATOM     17  O   UNL     1     -10.652   3.116 -34.182  0.00  0.00    +0.000 OA
BRANCH  17  18
ATOM     18  C   UNL     1      -9.916   1.904 -34.366  0.00  0.00    +0.000 C 
BRANCH  18  21
ATOM     19 CL   UNL     1      -9.498   0.686 -31.504  0.00  0.00    +0.000 Cl
ATOM     20 CL   UNL     1      -4.585   2.819 -31.746  0.00  0.00    +0.000 Cl
ATOM     21  C   UNL     1      -8.584   2.051 -33.700  0.00  0.00    +0.000 A 
ATOM     22  C   UNL     1      -8.318   1.563 -32.413  0.00  0.00    +0.000 A 
ATOM     23  C   UNL     1      -7.580   2.779 -34.375  0.00  0.00    +0.000 A 
ATOM     24  C   UNL     1      -7.077   1.789 -31.814  0.00  0.00    +0.000 A 
ATOM     25  C   UNL     1      -6.345   3.004 -33.777  0.00  0.00    +0.000 A 
ATOM     26  C   UNL     1      -6.103   2.513 -32.497  0.00  0.00    +0.000 A 
ENDBRANCH  18  21
ENDBRANCH  17  18
ENDBRANCH  15  17
ENDBRANCH   4  16
TORSDOF 5
ENDMDL
MODEL 7
REMARK VINA RESULT:      -5.6      4.862      6.529
REMARK  Name = 4300847
REMARK  5 active torsions:
REMARK  status: ('A' for Active; 'I' for Inactive)
REMARK    1  A    between atoms: O_4  and  N_7
REMARK    2  A    between atoms: O_4  and  C_20
REMARK    3  A    between atoms: C_8  and  C_13
REMARK    4  A    between atoms: C_9  and  C_11
REMARK    5  A    between atoms: C_17  and  C_20
REMARK                            x       y       z     vdW  Elec       q    Type
REMARK                         _______ _______ _______ _____ _____    ______ ____
ROOT
ATOM      1  S   UNL     1       0.712   4.722 -60.264  0.00  0.00    +0.000 S 
ATOM      2  N   UNL     1      -1.566   5.909 -60.131  0.00  0.00    +0.000 N 
ATOM      3  N   UNL     1      -1.069   5.070 -58.123  0.00  0.00    +0.000 NA
ATOM      4  C   UNL     1      -2.594   6.329 -59.320  0.00  0.00    +0.000 A 
ATOM      5  C   UNL     1      -2.278   5.748 -58.083  0.00  0.00    +0.000 A 
ATOM      6  C   UNL     1      -0.666   5.252 -59.346  0.00  0.00    +0.000 A 
ATOM      7  C   UNL     1      -1.239   5.940 -61.472  0.00  0.00    +0.000 A 
ATOM      8  C   UNL     1      -0.040   5.390 -61.716  0.00  0.00    +0.000 A 
ENDROOT
BRANCH   5   9
ATOM      9  C   UNL     1      -3.115   5.763 -56.891  0.00  0.00    +0.000 A 
ATOM     10  C   UNL     1      -3.935   4.678 -56.548  0.00  0.00    +0.000 A 
ATOM     11  C   UNL     1      -3.075   6.870 -56.034  0.00  0.00    +0.000 A 
ATOM     12  C   UNL     1      -4.619   4.659 -55.330  0.00  0.00    +0.000 A 
ATOM     13  C   UNL     1      -3.777   6.861 -54.824  0.00  0.00    +0.000 A 
ATOM     14  C   UNL     1      -4.528   5.745 -54.463  0.00  0.00    +0.000 A 
ENDBRANCH   5   9
BRANCH   4  16
ATOM     15  N   UNL     1      -4.911   6.659 -60.105  0.00  0.00    +0.000 NA
ATOM     16  C   UNL     1      -3.754   7.091 -59.698  0.00  0.00    +0.000 C 
BRANCH  15  17
ATOM     17  O   UNL     1      -4.938   5.270 -60.289  0.00  0.00    +0.000 OA
BRANCH  17  18
ATOM     18  C   UNL     1      -6.030   4.712 -59.555  0.00  0.00    +0.000 C 
BRANCH  18  21
ATOM     19 CL   UNL     1      -4.476   2.072 -58.873  0.00  0.00    +0.000 Cl
ATOM     20 CL   UNL     1      -7.659  -0.270 -62.497  0.00  0.00    +0.000 Cl
ATOM     21  C   UNL     1      -6.443   3.433 -60.215  0.00  0.00    +0.000 A 
ATOM     22  C   UNL     1      -5.787   2.214 -59.991  0.00  0.00    +0.000 A 
ATOM     23  C   UNL     1      -7.491   3.480 -61.160  0.00  0.00    +0.000 A 
ATOM     24  C   UNL     1      -6.172   1.066 -60.687  0.00  0.00    +0.000 A 
ATOM     25  C   UNL     1      -7.872   2.337 -61.852  0.00  0.00    +0.000 A 
ATOM     26  C   UNL     1      -7.207   1.137 -61.616  0.00  0.00    +0.000 A 
ENDBRANCH  18  21
ENDBRANCH  17  18
ENDBRANCH  15  17
ENDBRANCH   4  16
TORSDOF 5
ENDMDL
MODEL 8
REMARK VINA RESULT:      -5.5      4.407      8.013
REMARK  Name = 4300847
REMARK  5 active torsions:
REMARK  status: ('A' for Active; 'I' for Inactive)
REMARK    1  A    between atoms: O_4  and  N_7
REMARK    2  A    between atoms: O_4  and  C_20
REMARK    3  A    between atoms: C_8  and  C_13
REMARK    4  A    between atoms: C_9  and  C_11
REMARK    5  A    between atoms: C_17  and  C_20
REMARK                            x       y       z     vdW  Elec       q    Type
REMARK                         _______ _______ _______ _____ _____    ______ ____
ROOT
ATOM      1  S   UNL     1      -4.297   5.740 -60.749  0.00  0.00    +0.000 S 
ATOM      2  N   UNL     1      -3.670   6.422 -58.349  0.00  0.00    +0.000 N 
ATOM      3  N   UNL     1      -4.633   4.408 -58.301  0.00  0.00    +0.000 NA
ATOM      4  C   UNL     1      -3.597   6.038 -57.031  0.00  0.00    +0.000 A 
ATOM      5  C   UNL     1      -4.250   4.797 -57.027  0.00  0.00    +0.000 A 
ATOM      6  C   UNL     1      -4.209   5.384 -59.050  0.00  0.00    +0.000 A 
ATOM      7  C   UNL     1      -3.395   7.541 -59.108  0.00  0.00    +0.000 A 
ATOM      8  C   UNL     1      -3.629   7.341 -60.414  0.00  0.00    +0.000 A 
ENDROOT
BRANCH   5   9
ATOM      9  C   UNL     1      -4.576   4.004 -55.848  0.00  0.00    +0.000 A 
ATOM     10  C   UNL     1      -5.142   4.580 -54.702  0.00  0.00    +0.000 A 
ATOM     11  C   UNL     1      -4.362   2.620 -55.867  0.00  0.00    +0.000 A 
ATOM     12  C   UNL     1      -5.574   3.781 -53.641  0.00  0.00    +0.000 A 
ATOM     13  C   UNL     1      -4.775   1.821 -54.797  0.00  0.00    +0.000 A 
ATOM     14  C   UNL     1      -5.403   2.399 -53.696  0.00  0.00    +0.000 A 
ENDBRANCH   5   9
BRANCH   4  16
ATOM     15  N   UNL     1      -1.834   6.891 -55.527  0.00  0.00    +0.000 NA
ATOM     16  C   UNL     1      -3.069   6.792 -55.926  0.00  0.00    +0.000 C 
BRANCH  15  17
ATOM     17  O   UNL     1      -0.967   6.044 -56.231  0.00  0.00    +0.000 OA
BRANCH  17  18
ATOM     18  C   UNL     1       0.189   6.778 -56.642  0.00  0.00    +0.000 C 
BRANCH  18  21
ATOM     19 CL   UNL     1       1.766   4.923 -54.663  0.00  0.00    +0.000 Cl
ATOM     20 CL   UNL     1       2.452   9.335 -51.696  0.00  0.00    +0.000 Cl
ATOM     21  C   UNL     1       0.825   7.382 -55.429  0.00  0.00    +0.000 A 
ATOM     22  C   UNL     1       1.524   6.624 -54.479  0.00  0.00    +0.000 A 
ATOM     23  C   UNL     1       0.646   8.764 -55.202  0.00  0.00    +0.000 A 
ATOM     24  C   UNL     1       2.038   7.231 -53.330  0.00  0.00    +0.000 A 
ATOM     25  C   UNL     1       1.157   9.366 -54.059  0.00  0.00    +0.000 A 
ATOM     26  C   UNL     1       1.846   8.595 -53.126  0.00  0.00    +0.000 A 
ENDBRANCH  18  21
ENDBRANCH  17  18
ENDBRANCH  15  17
ENDBRANCH   4  16
TORSDOF 5
ENDMDL
MODEL 9
REMARK VINA RESULT:      -5.5     20.609     23.249
REMARK  Name = 4300847
REMARK  5 active torsions:
REMARK  status: ('A' for Active; 'I' for Inactive)
REMARK    1  A    between atoms: O_4  and  N_7
REMARK    2  A    between atoms: O_4  and  C_20
REMARK    3  A    between atoms: C_8  and  C_13
REMARK    4  A    between atoms: C_9  and  C_11
REMARK    5  A    between atoms: C_17  and  C_20
REMARK                            x       y       z     vdW  Elec       q    Type
REMARK                         _______ _______ _______ _____ _____    ______ ____
ROOT
ATOM      1  S   UNL     1     -16.412   3.418 -32.488  0.00  0.00    +0.000 S 
ATOM      2  N   UNL     1     -13.901   3.944 -32.298  0.00  0.00    +0.000 N 
ATOM      3  N   UNL     1     -14.888   5.548 -33.497  0.00  0.00    +0.000 NA
ATOM      4  C   UNL     1     -12.898   4.848 -32.552  0.00  0.00    +0.000 A 
ATOM      5  C   UNL     1     -13.536   5.814 -33.344  0.00  0.00    +0.000 A 
ATOM      6  C   UNL     1     -15.057   4.460 -32.804  0.00  0.00    +0.000 A 
ATOM      7  C   UNL     1     -14.035   2.693 -31.729  0.00  0.00    +0.000 A 
ATOM      8  C   UNL     1     -15.311   2.278 -31.708  0.00  0.00    +0.000 A 
ENDROOT
BRANCH   5   9
ATOM      9  C   UNL     1     -12.891   6.940 -34.008  0.00  0.00    +0.000 A 
ATOM     10  C   UNL     1     -12.735   8.182 -33.375  0.00  0.00    +0.000 A 
ATOM     11  C   UNL     1     -12.372   6.774 -35.298  0.00  0.00    +0.000 A 
ATOM     12  C   UNL     1     -11.991   9.199 -33.977  0.00  0.00    +0.000 A 
ATOM     13  C   UNL     1     -11.645   7.800 -35.910  0.00  0.00    +0.000 A 
ATOM     14  C   UNL     1     -11.435   9.002 -35.239  0.00  0.00    +0.000 A 
ENDBRANCH   5   9
BRANCH   4  16
ATOM     15  N   UNL     1     -10.524   4.231 -32.844  0.00  0.00    +0.000 NA
ATOM     16  C   UNL     1     -11.513   4.751 -32.176  0.00  0.00    +0.000 C 
BRANCH  15  17
ATOM     17  O   UNL     1     -10.939   3.601 -34.024  0.00  0.00    +0.000 OA
BRANCH  17  18
ATOM     18  C   UNL     1      -9.876   2.792 -34.533  0.00  0.00    +0.000 C 
BRANCH  18  21
ATOM     19 CL   UNL     1     -10.490   4.341 -37.193  0.00  0.00    +0.000 Cl
ATOM     20 CL   UNL     1      -5.457   6.151 -36.837  0.00  0.00    +0.000 Cl
ATOM     21  C   UNL     1      -8.828   3.692 -35.111  0.00  0.00    +0.000 A 
ATOM     22  C   UNL     1      -9.007   4.398 -36.308  0.00  0.00    +0.000 A 
ATOM     23  C   UNL     1      -7.581   3.768 -34.452  0.00  0.00    +0.000 A 
ATOM     24  C   UNL     1      -7.968   5.169 -36.835  0.00  0.00    +0.000 A 
ATOM     25  C   UNL     1      -6.548   4.534 -34.978  0.00  0.00    +0.000 A 
ATOM     26  C   UNL     1      -6.746   5.227 -36.170  0.00  0.00    +0.000 A 
ENDBRANCH  18  21
ENDBRANCH  17  18
ENDBRANCH  15  17
ENDBRANCH   4  16
TORSDOF 5
ENDMDL
MODEL 10
REMARK VINA RESULT:      -5.4     20.756     23.276
REMARK  Name = 4300847
REMARK  5 active torsions:
REMARK  status: ('A' for Active; 'I' for Inactive)
REMARK    1  A    between atoms: O_4  and  N_7
REMARK    2  A    between atoms: O_4  and  C_20
REMARK    3  A    between atoms: C_8  and  C_13
REMARK    4  A    between atoms: C_9  and  C_11
REMARK    5  A    between atoms: C_17  and  C_20
REMARK                            x       y       z     vdW  Elec       q    Type
REMARK                         _______ _______ _______ _____ _____    ______ ____
ROOT
ATOM      1  S   UNL     1      -9.566   9.807 -31.624  0.00  0.00    +0.000 S 
ATOM      2  N   UNL     1     -10.631   9.273 -33.904  0.00  0.00    +0.000 N 
ATOM      3  N   UNL     1      -9.005   7.798 -33.502  0.00  0.00    +0.000 NA
ATOM      4  C   UNL     1     -10.687   8.404 -34.967  0.00  0.00    +0.000 A 
ATOM      5  C   UNL     1      -9.627   7.522 -34.710  0.00  0.00    +0.000 A 
ATOM      6  C   UNL     1      -9.683   8.808 -33.042  0.00  0.00    +0.000 A 
ATOM      7  C   UNL     1     -11.224  10.458 -33.516  0.00  0.00    +0.000 A 
ATOM      8  C   UNL     1     -10.806  10.864 -32.307  0.00  0.00    +0.000 A 
ENDROOT
BRANCH   5   9
ATOM      9  C   UNL     1      -9.149   6.474 -35.602  0.00  0.00    +0.000 A 
ATOM     10  C   UNL     1      -7.889   6.539 -36.215  0.00  0.00    +0.000 A 
ATOM     11  C   UNL     1      -9.946   5.343 -35.826  0.00  0.00    +0.000 A 
ATOM     12  C   UNL     1      -7.398   5.459 -36.951  0.00  0.00    +0.000 A 
ATOM     13  C   UNL     1      -9.463   4.270 -36.581  0.00  0.00    +0.000 A 
ATOM     14  C   UNL     1      -8.180   4.319 -37.122  0.00  0.00    +0.000 A 
ENDBRANCH   5   9
BRANCH   4  16
ATOM     15  N   UNL     1     -12.862   8.444 -36.136  0.00  0.00    +0.000 NA
ATOM     16  C   UNL     1     -11.561   8.468 -36.107  0.00  0.00    +0.000 C 
BRANCH  15  17
ATOM     17  O   UNL     1     -13.428   8.212 -34.875  0.00  0.00    +0.000 OA
BRANCH  17  18
ATOM     18  C   UNL     1     -14.527   7.307 -35.004  0.00  0.00    +0.000 C 
BRANCH  18  21
ATOM     19 CL   UNL     1     -16.903   6.538 -33.103  0.00  0.00    +0.000 Cl
ATOM     20 CL   UNL     1     -13.515   2.982 -30.954  0.00  0.00    +0.000 Cl
ATOM     21  C   UNL     1     -14.342   6.192 -34.022  0.00  0.00    +0.000 A 
ATOM     22  C   UNL     1     -15.340   5.801 -33.117  0.00  0.00    +0.000 A 
ATOM     23  C   UNL     1     -13.080   5.561 -33.961  0.00  0.00    +0.000 A 
ATOM     24  C   UNL     1     -15.088   4.800 -32.177  0.00  0.00    +0.000 A 
ATOM     25  C   UNL     1     -12.831   4.565 -33.025  0.00  0.00    +0.000 A 
ATOM     26  C   UNL     1     -13.834   4.194 -32.133  0.00  0.00    +0.000 A 
ENDBRANCH  18  21
ENDBRANCH  17  18
ENDBRANCH  15  17
ENDBRANCH   4  16
TORSDOF 5
ENDMDL
