MODEL 1
REMARK VINA RESULT:      -6.2      0.000      0.000
REMARK  Name = 4300847
REMARK  5 active torsions:
REMARK  status: ('A' for Active; 'I' for Inactive)
REMARK    1  A    between atoms: O_4  and  N_7
REMARK    2  A    between atoms: O_4  and  C_20
REMARK    3  A    between atoms: C_8  and  C_13
REMARK    4  A    between atoms: C_9  and  C_11
REMARK    5  A    between atoms: C_17  and  C_20
REMARK                            x       y       z     vdW  Elec       q    Type
REMARK                         _______ _______ _______ _____ _____    ______ ____
ROOT
ATOM      1  S   UNL     1      10.559   7.426  22.077  0.00  0.00    +0.000 S 
ATOM      2  N   UNL     1      11.499   9.713  21.369  0.00  0.00    +0.000 N 
ATOM      3  N   UNL     1      10.794   9.844  23.483  0.00  0.00    +0.000 NA
ATOM      4  C   UNL     1      11.836  10.986  21.765  0.00  0.00    +0.000 A 
ATOM      5  C   UNL     1      11.339  11.051  23.075  0.00  0.00    +0.000 A 
ATOM      6  C   UNL     1      10.972   9.072  22.450  0.00  0.00    +0.000 A 
ATOM      7  C   UNL     1      11.513   8.962  20.211  0.00  0.00    +0.000 A 
ATOM      8  C   UNL     1      11.086   7.706  20.414  0.00  0.00    +0.000 A 
ENDROOT
BRANCH   5   9
ATOM      9  C   UNL     1      11.309  12.237  23.921  0.00  0.00    +0.000 A 
ATOM     10  C   UNL     1      10.312  13.215  23.791  0.00  0.00    +0.000 A 
ATOM     11  C   UNL     1      12.273  12.392  24.926  0.00  0.00    +0.000 A 
ATOM     12  C   UNL     1      10.224  14.268  24.704  0.00  0.00    +0.000 A 
ATOM     13  C   UNL     1      12.198  13.458  25.827  0.00  0.00    +0.000 A 
ATOM     14  C   UNL     1      11.159  14.381  25.730  0.00  0.00    +0.000 A 
ENDBRANCH   5   9
BRANCH   4  16
ATOM     15  N   UNL     1      13.659  12.050  20.483  0.00  0.00    +0.000 NA
ATOM     16  C   UNL     1      12.454  12.016  20.974  0.00  0.00    +0.000 C 
BRANCH  15  17
ATOM     17  O   UNL     1      14.447  10.972  20.906  0.00  0.00    +0.000 OA
BRANCH  17  18
ATOM     18  C   UNL     1      14.933  10.259  19.766  0.00  0.00    +0.000 C 
BRANCH  18  21
ATOM     19 CL   UNL     1      14.654   7.198  19.133  0.00  0.00    +0.000 Cl
ATOM     20 CL   UNL     1      19.227   6.619  21.872  0.00  0.00    +0.000 Cl
ATOM     21  C   UNL     1      16.011   9.322  20.215  0.00  0.00    +0.000 A 
ATOM     22  C   UNL     1      15.954   7.938  20.000  0.00  0.00    +0.000 A 
ATOM     23  C   UNL     1      17.091   9.855  20.951  0.00  0.00    +0.000 A 
ATOM     24  C   UNL     1      16.955   7.103  20.501  0.00  0.00    +0.000 A 
ATOM     25  C   UNL     1      18.087   9.024  21.450  0.00  0.00    +0.000 A 
ATOM     26  C   UNL     1      18.010   7.651  21.227  0.00  0.00    +0.000 A 
ENDBRANCH  18  21
ENDBRANCH  17  18
ENDBRANCH  15  17
ENDBRANCH   4  16
TORSDOF 5
ENDMDL
MODEL 2
REMARK VINA RESULT:      -6.2     27.793     29.972
REMARK  Name = 4300847
REMARK  5 active torsions:
REMARK  status: ('A' for Active; 'I' for Inactive)
REMARK    1  A    between atoms: O_4  and  N_7
REMARK    2  A    between atoms: O_4  and  C_20
REMARK    3  A    between atoms: C_8  and  C_13
REMARK    4  A    between atoms: C_9  and  C_11
REMARK    5  A    between atoms: C_17  and  C_20
REMARK                            x       y       z     vdW  Elec       q    Type
REMARK                         _______ _______ _______ _____ _____    ______ ____
ROOT
ATOM      1  S   UNL     1      -7.984 -13.120  15.018  0.00  0.00    +0.000 S 
ATOM      2  N   UNL     1      -5.485 -12.881  14.458  0.00  0.00    +0.000 N 
ATOM      3  N   UNL     1      -6.680 -11.821  12.899  0.00  0.00    +0.000 NA
ATOM      4  C   UNL     1      -4.544 -12.301  13.641  0.00  0.00    +0.000 A 
ATOM      5  C   UNL     1      -5.323 -11.686  12.649  0.00  0.00    +0.000 A 
ATOM      6  C   UNL     1      -6.712 -12.486  14.016  0.00  0.00    +0.000 A 
ATOM      7  C   UNL     1      -5.516 -13.748  15.532  0.00  0.00    +0.000 A 
ATOM      8  C   UNL     1      -6.762 -13.954  15.984  0.00  0.00    +0.000 A 
ENDROOT
BRANCH   5   9
ATOM      9  C   UNL     1      -4.821 -11.035  11.447  0.00  0.00    +0.000 A 
ATOM     10  C   UNL     1      -4.820 -11.678  10.201  0.00  0.00    +0.000 A 
ATOM     11  C   UNL     1      -4.363  -9.713  11.519  0.00  0.00    +0.000 A 
ATOM     12  C   UNL     1      -4.466 -10.986   9.041  0.00  0.00    +0.000 A 
ATOM     13  C   UNL     1      -3.987  -9.025  10.360  0.00  0.00    +0.000 A 
ATOM     14  C   UNL     1      -4.062  -9.655   9.120  0.00  0.00    +0.000 A 
ENDBRANCH   5   9
BRANCH   4  16
ATOM     15  N   UNL     1      -2.291 -11.658  14.422  0.00  0.00    +0.000 NA
ATOM     16  C   UNL     1      -3.113 -12.403  13.741  0.00  0.00    +0.000 C 
BRANCH  15  17
ATOM     17  O   UNL     1      -2.924 -10.564  15.027  0.00  0.00    +0.000 OA
BRANCH  17  18
ATOM     18  C   UNL     1      -2.930 -10.739  16.445  0.00  0.00    +0.000 C 
BRANCH  18  21
ATOM     19 CL   UNL     1      -3.774 -12.030  19.179  0.00  0.00    +0.000 Cl
ATOM     20 CL   UNL     1      -8.651 -10.053  18.155  0.00  0.00    +0.000 Cl
ATOM     21  C   UNL     1      -4.328 -10.541  16.944  0.00  0.00    +0.000 A 
ATOM     22  C   UNL     1      -4.797 -11.104  18.138  0.00  0.00    +0.000 A 
ATOM     23  C   UNL     1      -5.226  -9.815  16.131  0.00  0.00    +0.000 A 
ATOM     24  C   UNL     1      -6.131 -10.942  18.519  0.00  0.00    +0.000 A 
ATOM     25  C   UNL     1      -6.553  -9.655  16.511  0.00  0.00    +0.000 A 
ATOM     26  C   UNL     1      -7.001 -10.225  17.701  0.00  0.00    +0.000 A 
ENDBRANCH  18  21
ENDBRANCH  17  18
ENDBRANCH  15  17
ENDBRANCH   4  16
TORSDOF 5
ENDMDL
MODEL 3
REMARK VINA RESULT:      -5.9     17.636     19.667
REMARK  Name = 4300847
REMARK  5 active torsions:
REMARK  status: ('A' for Active; 'I' for Inactive)
REMARK    1  A    between atoms: O_4  and  N_7
REMARK    2  A    between atoms: O_4  and  C_20
REMARK    3  A    between atoms: C_8  and  C_13
REMARK    4  A    between atoms: C_9  and  C_11
REMARK    5  A    between atoms: C_17  and  C_20
REMARK                            x       y       z     vdW  Elec       q    Type
REMARK                         _______ _______ _______ _____ _____    ______ ____
ROOT
ATOM      1  S   UNL     1       7.817   9.102   2.188  0.00  0.00    +0.000 S 
ATOM      2  N   UNL     1       9.952   8.450   3.465  0.00  0.00    +0.000 N 
ATOM      3  N   UNL     1       8.202   7.455   4.429  0.00  0.00    +0.000 NA
ATOM      4  C   UNL     1      10.503   7.672   4.456  0.00  0.00    +0.000 A 
ATOM      5  C   UNL     1       9.378   7.101   5.070  0.00  0.00    +0.000 A 
ATOM      6  C   UNL     1       8.612   8.207   3.449  0.00  0.00    +0.000 A 
ATOM      7  C   UNL     1      10.372   9.397   2.552  0.00  0.00    +0.000 A 
ATOM      8  C   UNL     1       9.374   9.821   1.763  0.00  0.00    +0.000 A 
ENDROOT
BRANCH   5   9
ATOM      9  C   UNL     1       9.383   6.287   6.278  0.00  0.00    +0.000 A 
ATOM     10  C   UNL     1       9.755   4.935   6.259  0.00  0.00    +0.000 A 
ATOM     11  C   UNL     1       9.050   6.873   7.506  0.00  0.00    +0.000 A 
ATOM     12  C   UNL     1       9.887   4.215   7.448  0.00  0.00    +0.000 A 
ATOM     13  C   UNL     1       9.161   6.146   8.696  0.00  0.00    +0.000 A 
ATOM     14  C   UNL     1       9.603   4.826   8.667  0.00  0.00    +0.000 A 
ENDBRANCH   5   9
BRANCH   4  16
ATOM     15  N   UNL     1      12.843   6.921   4.217  0.00  0.00    +0.000 NA
ATOM     16  C   UNL     1      11.890   7.569   4.822  0.00  0.00    +0.000 C 
BRANCH  15  17
ATOM     17  O   UNL     1      12.379   6.151   3.143  0.00  0.00    +0.000 OA
BRANCH  17  18
ATOM     18  C   UNL     1      13.350   6.158   2.095  0.00  0.00    +0.000 C 
BRANCH  18  21
ATOM     19 CL   UNL     1      14.936   3.466   1.797  0.00  0.00    +0.000 Cl
ATOM     20 CL   UNL     1      11.670   2.459  -2.334  0.00  0.00    +0.000 Cl
ATOM     21  C   UNL     1      12.927   5.176   1.046  0.00  0.00    +0.000 A 
ATOM     22  C   UNL     1      13.595   3.964   0.826  0.00  0.00    +0.000 A 
ATOM     23  C   UNL     1      11.854   5.529   0.200  0.00  0.00    +0.000 A 
ATOM     24  C   UNL     1      13.198   3.117  -0.212  0.00  0.00    +0.000 A 
ATOM     25  C   UNL     1      11.460   4.686  -0.833  0.00  0.00    +0.000 A 
ATOM     26  C   UNL     1      12.138   3.487  -1.037  0.00  0.00    +0.000 A 
ENDBRANCH  18  21
ENDBRANCH  17  18
ENDBRANCH  15  17
ENDBRANCH   4  16
TORSDOF 5
ENDMDL
MODEL 4
REMARK VINA RESULT:      -5.9     11.215     13.741
REMARK  Name = 4300847
REMARK  5 active torsions:
REMARK  status: ('A' for Active; 'I' for Inactive)
REMARK    1  A    between atoms: O_4  and  N_7
REMARK    2  A    between atoms: O_4  and  C_20
REMARK    3  A    between atoms: C_8  and  C_13
REMARK    4  A    between atoms: C_9  and  C_11
REMARK    5  A    between atoms: C_17  and  C_20
REMARK                            x       y       z     vdW  Elec       q    Type
REMARK                         _______ _______ _______ _____ _____    ______ ____
ROOT
ATOM      1  S   UNL     1      -0.429  20.299  23.509  0.00  0.00    +0.000 S 
ATOM      2  N   UNL     1      -0.011  17.776  23.226  0.00  0.00    +0.000 N 
ATOM      3  N   UNL     1       1.198  18.884  21.712  0.00  0.00    +0.000 NA
ATOM      4  C   UNL     1       0.713  16.800  22.585  0.00  0.00    +0.000 A 
ATOM      5  C   UNL     1       1.423  17.520  21.613  0.00  0.00    +0.000 A 
ATOM      6  C   UNL     1       0.387  18.979  22.725  0.00  0.00    +0.000 A 
ATOM      7  C   UNL     1      -1.017  17.855  24.169  0.00  0.00    +0.000 A 
ATOM      8  C   UNL     1      -1.334  19.124  24.470  0.00  0.00    +0.000 A 
ENDROOT
BRANCH   5   9
ATOM      9  C   UNL     1       2.251  16.949  20.559  0.00  0.00    +0.000 A 
ATOM     10  C   UNL     1       3.642  17.127  20.532  0.00  0.00    +0.000 A 
ATOM     11  C   UNL     1       1.657  16.162  19.564  0.00  0.00    +0.000 A 
ATOM     12  C   UNL     1       4.428  16.455  19.594  0.00  0.00    +0.000 A 
ATOM     13  C   UNL     1       2.441  15.506  18.611  0.00  0.00    +0.000 A 
ATOM     14  C   UNL     1       3.828  15.633  18.642  0.00  0.00    +0.000 A 
ENDBRANCH   5   9
BRANCH   4  16
ATOM     15  N   UNL     1       1.376  14.655  23.615  0.00  0.00    +0.000 NA
ATOM     16  C   UNL     1       0.658  15.380  22.806  0.00  0.00    +0.000 C 
BRANCH  15  17
ATOM     17  O   UNL     1       2.393  15.388  24.241  0.00  0.00    +0.000 OA
BRANCH  17  18
ATOM     18  C   UNL     1       3.631  15.165  23.562  0.00  0.00    +0.000 C 
BRANCH  18  21
ATOM     19 CL   UNL     1       6.587  15.070  22.511  0.00  0.00    +0.000 Cl
ATOM     20 CL   UNL     1       7.195  19.795  24.971  0.00  0.00    +0.000 Cl
ATOM     21  C   UNL     1       4.538  16.325  23.834  0.00  0.00    +0.000 A 
ATOM     22  C   UNL     1       5.879  16.355  23.426  0.00  0.00    +0.000 A 
ATOM     23  C   UNL     1       4.033  17.400  24.598  0.00  0.00    +0.000 A 
ATOM     24  C   UNL     1       6.697  17.434  23.767  0.00  0.00    +0.000 A 
ATOM     25  C   UNL     1       4.848  18.472  24.937  0.00  0.00    +0.000 A 
ATOM     26  C   UNL     1       6.178  18.481  24.525  0.00  0.00    +0.000 A 
ENDBRANCH  18  21
ENDBRANCH  17  18
ENDBRANCH  15  17
ENDBRANCH   4  16
TORSDOF 5
ENDMDL
MODEL 5
REMARK VINA RESULT:      -5.9      3.348      5.515
REMARK  Name = 4300847
REMARK  5 active torsions:
REMARK  status: ('A' for Active; 'I' for Inactive)
REMARK    1  A    between atoms: O_4  and  N_7
REMARK    2  A    between atoms: O_4  and  C_20
REMARK    3  A    between atoms: C_8  and  C_13
REMARK    4  A    between atoms: C_9  and  C_11
REMARK    5  A    between atoms: C_17  and  C_20
REMARK                            x       y       z     vdW  Elec       q    Type
REMARK                         _______ _______ _______ _____ _____    ______ ____
ROOT
ATOM      1  S   UNL     1      10.387   8.387  21.814  0.00  0.00    +0.000 S 
ATOM      2  N   UNL     1      12.434   7.508  20.527  0.00  0.00    +0.000 N 
ATOM      3  N   UNL     1      12.145   9.667  20.038  0.00  0.00    +0.000 NA
ATOM      4  C   UNL     1      13.497   7.821  19.715  0.00  0.00    +0.000 A 
ATOM      5  C   UNL     1      13.261   9.164  19.388  0.00  0.00    +0.000 A 
ATOM      6  C   UNL     1      11.732   8.656  20.746  0.00  0.00    +0.000 A 
ATOM      7  C   UNL     1      11.890   6.385  21.119  0.00  0.00    +0.000 A 
ATOM      8  C   UNL     1      10.821   6.676  21.875  0.00  0.00    +0.000 A 
ENDROOT
BRANCH   5   9
ATOM      9  C   UNL     1      14.022   9.960  18.434  0.00  0.00    +0.000 A 
ATOM     10  C   UNL     1      13.926   9.750  17.051  0.00  0.00    +0.000 A 
ATOM     11  C   UNL     1      14.841  10.997  18.899  0.00  0.00    +0.000 A 
ATOM     12  C   UNL     1      14.555  10.614  16.153  0.00  0.00    +0.000 A 
ATOM     13  C   UNL     1      15.489  11.851  18.000  0.00  0.00    +0.000 A 
ATOM     14  C   UNL     1      15.324  11.673  16.629  0.00  0.00    +0.000 A 
ENDBRANCH   5   9
BRANCH   4  16
ATOM     15  N   UNL     1      15.648   6.613  19.825  0.00  0.00    +0.000 NA
ATOM     16  C   UNL     1      14.530   6.938  19.244  0.00  0.00    +0.000 C 
BRANCH  15  17
ATOM     17  O   UNL     1      15.875   7.331  21.006  0.00  0.00    +0.000 OA
BRANCH  17  18
ATOM     18  C   UNL     1      16.851   8.348  20.768  0.00  0.00    +0.000 C 
BRANCH  18  21
ATOM     19 CL   UNL     1      18.896  10.720  20.966  0.00  0.00    +0.000 Cl
ATOM     20 CL   UNL     1      15.349  12.980  24.290  0.00  0.00    +0.000 Cl
ATOM     21  C   UNL     1      16.492   9.552  21.582  0.00  0.00    +0.000 A 
ATOM     22  C   UNL     1      17.356  10.643  21.748  0.00  0.00    +0.000 A 
ATOM     23  C   UNL     1      15.259   9.547  22.270  0.00  0.00    +0.000 A 
ATOM     24  C   UNL     1      16.997  11.710  22.575  0.00  0.00    +0.000 A 
ATOM     25  C   UNL     1      14.903  10.608  23.093  0.00  0.00    +0.000 A 
ATOM     26  C   UNL     1      15.777  11.682  23.246  0.00  0.00    +0.000 A 
ENDBRANCH  18  21
ENDBRANCH  17  18
ENDBRANCH  15  17
ENDBRANCH   4  16
TORSDOF 5
ENDMDL
MODEL 6
REMARK VINA RESULT:      -5.9     15.678     17.795
REMARK  Name = 4300847
REMARK  5 active torsions:
REMARK  status: ('A' for Active; 'I' for Inactive)
REMARK    1  A    between atoms: O_4  and  N_7
REMARK    2  A    between atoms: O_4  and  C_20
REMARK    3  A    between atoms: C_8  and  C_13
REMARK    4  A    between atoms: C_9  and  C_11
REMARK    5  A    between atoms: C_17  and  C_20
REMARK                            x       y       z     vdW  Elec       q    Type
REMARK                         _______ _______ _______ _____ _____    ______ ____
ROOT
ATOM      1  S   UNL     1       7.314  10.101   4.537  0.00  0.00    +0.000 S 
ATOM      2  N   UNL     1       9.496   9.501   5.759  0.00  0.00    +0.000 N 
ATOM      3  N   UNL     1       8.013   7.865   6.082  0.00  0.00    +0.000 NA
ATOM      4  C   UNL     1      10.185   8.549   6.473  0.00  0.00    +0.000 A 
ATOM      5  C   UNL     1       9.216   7.561   6.700  0.00  0.00    +0.000 A 
ATOM      6  C   UNL     1       8.259   8.997   5.490  0.00  0.00    +0.000 A 
ATOM      7  C   UNL     1       9.701  10.787   5.300  0.00  0.00    +0.000 A 
ATOM      8  C   UNL     1       8.658  11.247   4.592  0.00  0.00    +0.000 A 
ENDROOT
BRANCH   5   9
ATOM      9  C   UNL     1       9.378   6.377   7.534  0.00  0.00    +0.000 A 
ATOM     10  C   UNL     1       9.069   6.386   8.901  0.00  0.00    +0.000 A 
ATOM     11  C   UNL     1       9.814   5.180   6.953  0.00  0.00    +0.000 A 
ATOM     12  C   UNL     1       9.099   5.206   9.646  0.00  0.00    +0.000 A 
ATOM     13  C   UNL     1       9.865   4.001   7.703  0.00  0.00    +0.000 A 
ATOM     14  C   UNL     1       9.484   4.011   9.043  0.00  0.00    +0.000 A 
ENDBRANCH   5   9
BRANCH   4  16
ATOM     15  N   UNL     1      12.600   8.033   6.477  0.00  0.00    +0.000 NA
ATOM     16  C   UNL     1      11.540   8.621   6.950  0.00  0.00    +0.000 C 
BRANCH  15  17
ATOM     17  O   UNL     1      12.306   7.138   5.440  0.00  0.00    +0.000 OA
BRANCH  17  18
ATOM     18  C   UNL     1      12.648   7.732   4.185  0.00  0.00    +0.000 C 
BRANCH  18  21
ATOM     19 CL   UNL     1      10.008   6.236   3.385  0.00  0.00    +0.000 Cl
ATOM     20 CL   UNL     1      13.128   3.257   0.201  0.00  0.00    +0.000 Cl
ATOM     21  C   UNL     1      12.708   6.653   3.149  0.00  0.00    +0.000 A 
ATOM     22  C   UNL     1      11.584   5.915   2.752  0.00  0.00    +0.000 A 
ATOM     23  C   UNL     1      13.969   6.321   2.607  0.00  0.00    +0.000 A 
ATOM     24  C   UNL     1      11.712   4.873   1.831  0.00  0.00    +0.000 A 
ATOM     25  C   UNL     1      14.095   5.283   1.691  0.00  0.00    +0.000 A 
ATOM     26  C   UNL     1      12.967   4.561   1.312  0.00  0.00    +0.000 A 
ENDBRANCH  18  21
ENDBRANCH  17  18
ENDBRANCH  15  17
ENDBRANCH   4  16
TORSDOF 5
ENDMDL
MODEL 7
REMARK VINA RESULT:      -5.8     24.851     27.106
REMARK  Name = 4300847
REMARK  5 active torsions:
REMARK  status: ('A' for Active; 'I' for Inactive)
REMARK    1  A    between atoms: O_4  and  N_7
REMARK    2  A    between atoms: O_4  and  C_20
REMARK    3  A    between atoms: C_8  and  C_13
REMARK    4  A    between atoms: C_9  and  C_11
REMARK    5  A    between atoms: C_17  and  C_20
REMARK                            x       y       z     vdW  Elec       q    Type
REMARK                         _______ _______ _______ _____ _____    ______ ____
ROOT
ATOM      1  S   UNL     1     -14.392   4.874  23.062  0.00  0.00    +0.000 S 
ATOM      2  N   UNL     1     -14.617   7.149  21.882  0.00  0.00    +0.000 N 
ATOM      3  N   UNL     1     -12.706   6.189  21.243  0.00  0.00    +0.000 NA
ATOM      4  C   UNL     1     -14.097   8.011  20.946  0.00  0.00    +0.000 A 
ATOM      5  C   UNL     1     -12.879   7.406  20.602  0.00  0.00    +0.000 A 
ATOM      6  C   UNL     1     -13.796   6.063  21.942  0.00  0.00    +0.000 A 
ATOM      7  C   UNL     1     -15.678   7.112  22.764  0.00  0.00    +0.000 A 
ATOM      8  C   UNL     1     -15.736   5.956  23.443  0.00  0.00    +0.000 A 
ENDROOT
BRANCH   5   9
ATOM      9  C   UNL     1     -11.854   7.975  19.737  0.00  0.00    +0.000 A 
ATOM     10  C   UNL     1     -11.646   7.512  18.430  0.00  0.00    +0.000 A 
ATOM     11  C   UNL     1     -11.077   9.045  20.201  0.00  0.00    +0.000 A 
ATOM     12  C   UNL     1     -10.755   8.166  17.576  0.00  0.00    +0.000 A 
ATOM     13  C   UNL     1     -10.169   9.687  19.353  0.00  0.00    +0.000 A 
ATOM     14  C   UNL     1     -10.028   9.262  18.034  0.00  0.00    +0.000 A 
ENDBRANCH   5   9
BRANCH   4  16
ATOM     15  N   UNL     1     -14.451  10.453  21.032  0.00  0.00    +0.000 NA
ATOM     16  C   UNL     1     -14.639   9.272  20.518  0.00  0.00    +0.000 C 
BRANCH  15  17
ATOM     17  O   UNL     1     -13.709  10.416  22.220  0.00  0.00    +0.000 OA
BRANCH  17  18
ATOM     18  C   UNL     1     -13.478  11.749  22.682  0.00  0.00    +0.000 C 
BRANCH  18  21
ATOM     19 CL   UNL     1     -14.879  13.534  24.850  0.00  0.00    +0.000 Cl
ATOM     20 CL   UNL     1     -11.244  11.554  28.258  0.00  0.00    +0.000 Cl
ATOM     21  C   UNL     1     -12.997  11.685  24.098  0.00  0.00    +0.000 A 
ATOM     22  C   UNL     1     -13.546  12.468  25.124  0.00  0.00    +0.000 A 
ATOM     23  C   UNL     1     -11.895  10.853  24.389  0.00  0.00    +0.000 A 
ATOM     24  C   UNL     1     -13.012  12.417  26.413  0.00  0.00    +0.000 A 
ATOM     25  C   UNL     1     -11.364  10.804  25.672  0.00  0.00    +0.000 A 
ATOM     26  C   UNL     1     -11.921  11.591  26.677  0.00  0.00    +0.000 A 
ENDBRANCH  18  21
ENDBRANCH  17  18
ENDBRANCH  15  17
ENDBRANCH   4  16
TORSDOF 5
ENDMDL
MODEL 8
REMARK VINA RESULT:      -5.7     34.805     36.799
REMARK  Name = 4300847
REMARK  5 active torsions:
REMARK  status: ('A' for Active; 'I' for Inactive)
REMARK    1  A    between atoms: O_4  and  N_7
REMARK    2  A    between atoms: O_4  and  C_20
REMARK    3  A    between atoms: C_8  and  C_13
REMARK    4  A    between atoms: C_9  and  C_11
REMARK    5  A    between atoms: C_17  and  C_20
REMARK                            x       y       z     vdW  Elec       q    Type
REMARK                         _______ _______ _______ _____ _____    ______ ____
ROOT
ATOM      1  S   UNL     1      -1.223 -17.452  -3.702  0.00  0.00    +0.000 S 
ATOM      2  N   UNL     1       1.192 -16.579  -3.545  0.00  0.00    +0.000 N 
ATOM      3  N   UNL     1      -0.099 -14.981  -4.418  0.00  0.00    +0.000 NA
ATOM      4  C   UNL     1       2.033 -15.501  -3.694  0.00  0.00    +0.000 A 
ATOM      5  C   UNL     1       1.206 -14.535  -4.286  0.00  0.00    +0.000 A 
ATOM      6  C   UNL     1      -0.059 -16.176  -3.906  0.00  0.00    +0.000 A 
ATOM      7  C   UNL     1       1.281 -17.908  -3.182  0.00  0.00    +0.000 A 
ATOM      8  C   UNL     1       0.085 -18.514  -3.170  0.00  0.00    +0.000 A 
ENDROOT
BRANCH   5   9
ATOM      9  C   UNL     1       1.632 -13.234  -4.786  0.00  0.00    +0.000 A 
ATOM     10  C   UNL     1       2.232 -13.085  -6.045  0.00  0.00    +0.000 A 
ATOM     11  C   UNL     1       1.401 -12.090  -4.013  0.00  0.00    +0.000 A 
ATOM     12  C   UNL     1       2.502 -11.815  -6.559  0.00  0.00    +0.000 A 
ATOM     13  C   UNL     1       1.691 -10.818  -4.518  0.00  0.00    +0.000 A 
ATOM     14  C   UNL     1       2.218 -10.681  -5.801  0.00  0.00    +0.000 A 
ENDBRANCH   5   9
BRANCH   4  16
ATOM     15  N   UNL     1       4.037 -14.876  -2.393  0.00  0.00    +0.000 NA
ATOM     16  C   UNL     1       3.440 -15.441  -3.403  0.00  0.00    +0.000 C 
BRANCH  15  17
ATOM     17  O   UNL     1       3.157 -14.153  -1.578  0.00  0.00    +0.000 OA
BRANCH  17  18
ATOM     18  C   UNL     1       3.871 -13.614  -0.463  0.00  0.00    +0.000 C 
BRANCH  18  21
ATOM     19 CL   UNL     1       1.402 -14.210   1.380  0.00  0.00    +0.000 Cl
ATOM     20 CL   UNL     1       4.601 -17.725   3.860  0.00  0.00    +0.000 Cl
ATOM     21  C   UNL     1       3.985 -14.676   0.587  0.00  0.00    +0.000 A 
ATOM     22  C   UNL     1       2.943 -14.988   1.471  0.00  0.00    +0.000 A 
ATOM     23  C   UNL     1       5.225 -15.335   0.733  0.00  0.00    +0.000 A 
ATOM     24  C   UNL     1       3.129 -15.940   2.475  0.00  0.00    +0.000 A 
ATOM     25  C   UNL     1       5.410 -16.282   1.733  0.00  0.00    +0.000 A 
ATOM     26  C   UNL     1       4.362 -16.575   2.603  0.00  0.00    +0.000 A 
ENDBRANCH  18  21
ENDBRANCH  17  18
ENDBRANCH  15  17
ENDBRANCH   4  16
TORSDOF 5
ENDMDL
MODEL 9
REMARK VINA RESULT:      -5.7     31.966     33.588
REMARK  Name = 4300847
REMARK  5 active torsions:
REMARK  status: ('A' for Active; 'I' for Inactive)
REMARK    1  A    between atoms: O_4  and  N_7
REMARK    2  A    between atoms: O_4  and  C_20
REMARK    3  A    between atoms: C_8  and  C_13
REMARK    4  A    between atoms: C_9  and  C_11
REMARK    5  A    between atoms: C_17  and  C_20
REMARK                            x       y       z     vdW  Elec       q    Type
REMARK                         _______ _______ _______ _____ _____    ______ ____
ROOT
ATOM      1  S   UNL     1     -10.016  -9.726  38.769  0.00  0.00    +0.000 S 
ATOM      2  N   UNL     1      -8.220  -7.942  39.226  0.00  0.00    +0.000 N 
ATOM      3  N   UNL     1     -10.234  -6.986  39.339  0.00  0.00    +0.000 NA
ATOM      4  C   UNL     1      -7.963  -6.643  39.598  0.00  0.00    +0.000 A 
ATOM      5  C   UNL     1      -9.239  -6.061  39.613  0.00  0.00    +0.000 A 
ATOM      6  C   UNL     1      -9.573  -8.095  39.178  0.00  0.00    +0.000 A 
ATOM      7  C   UNL     1      -7.504  -9.066  38.866  0.00  0.00    +0.000 A 
ATOM      8  C   UNL     1      -8.299 -10.121  38.630  0.00  0.00    +0.000 A 
ENDROOT
BRANCH   5   9
ATOM      9  C   UNL     1      -9.533  -4.648  39.815  0.00  0.00    +0.000 A 
ATOM     10  C   UNL     1      -8.527  -3.671  39.790  0.00  0.00    +0.000 A 
ATOM     11  C   UNL     1     -10.860  -4.240  39.998  0.00  0.00    +0.000 A 
ATOM     12  C   UNL     1      -8.851  -2.314  39.846  0.00  0.00    +0.000 A 
ATOM     13  C   UNL     1     -11.184  -2.881  40.075  0.00  0.00    +0.000 A 
ATOM     14  C   UNL     1     -10.181  -1.920  39.974  0.00  0.00    +0.000 A 
ENDBRANCH   5   9
BRANCH   4  16
ATOM     15  N   UNL     1      -5.889  -6.136  40.840  0.00  0.00    +0.000 NA
ATOM     16  C   UNL     1      -6.680  -6.030  39.811  0.00  0.00    +0.000 C 
BRANCH  15  17
ATOM     17  O   UNL     1      -6.463  -6.862  41.892  0.00  0.00    +0.000 OA
BRANCH  17  18
ATOM     18  C   UNL     1      -6.326  -6.127  43.110  0.00  0.00    +0.000 C 
BRANCH  18  21
ATOM     19 CL   UNL     1      -9.126  -7.539  43.253  0.00  0.00    +0.000 Cl
ATOM     20 CL   UNL     1     -11.160  -2.592  43.622  0.00  0.00    +0.000 Cl
ATOM     21  C   UNL     1      -7.554  -5.292  43.302  0.00  0.00    +0.000 A 
ATOM     22  C   UNL     1      -8.845  -5.836  43.349  0.00  0.00    +0.000 A 
ATOM     23  C   UNL     1      -7.401  -3.889  43.363  0.00  0.00    +0.000 A 
ATOM     24  C   UNL     1      -9.960  -5.002  43.461  0.00  0.00    +0.000 A 
ATOM     25  C   UNL     1      -8.511  -3.060  43.474  0.00  0.00    +0.000 A 
ATOM     26  C   UNL     1      -9.785  -3.621  43.516  0.00  0.00    +0.000 A 
ENDBRANCH  18  21
ENDBRANCH  17  18
ENDBRANCH  15  17
ENDBRANCH   4  16
TORSDOF 5
ENDMDL
MODEL 10
REMARK VINA RESULT:      -5.6     25.347     27.883
REMARK  Name = 4300847
REMARK  5 active torsions:
REMARK  status: ('A' for Active; 'I' for Inactive)
REMARK    1  A    between atoms: O_4  and  N_7
REMARK    2  A    between atoms: O_4  and  C_20
REMARK    3  A    between atoms: C_8  and  C_13
REMARK    4  A    between atoms: C_9  and  C_11
REMARK    5  A    between atoms: C_17  and  C_20
REMARK                            x       y       z     vdW  Elec       q    Type
REMARK                         _______ _______ _______ _____ _____    ______ ____
ROOT
ATOM      1  S   UNL     1     -15.099   4.761  23.096  0.00  0.00    +0.000 S 
ATOM      2  N   UNL     1     -15.353   6.254  21.016  0.00  0.00    +0.000 N 
ATOM      3  N   UNL     1     -13.209   6.238  21.636  0.00  0.00    +0.000 NA
ATOM      4  C   UNL     1     -14.712   6.997  20.053  0.00  0.00    +0.000 A 
ATOM      5  C   UNL     1     -13.382   7.007  20.497  0.00  0.00    +0.000 A 
ATOM      6  C   UNL     1     -14.402   5.768  21.862  0.00  0.00    +0.000 A 
ATOM      7  C   UNL     1     -16.648   5.920  21.361  0.00  0.00    +0.000 A 
ATOM      8  C   UNL     1     -16.696   5.096  22.419  0.00  0.00    +0.000 A 
ENDROOT
BRANCH   5   9
ATOM      9  C   UNL     1     -12.289   7.773  19.910  0.00  0.00    +0.000 A 
ATOM     10  C   UNL     1     -11.673   7.385  18.712  0.00  0.00    +0.000 A 
ATOM     11  C   UNL     1     -11.865   8.955  20.531  0.00  0.00    +0.000 A 
ATOM     12  C   UNL     1     -10.726   8.209  18.098  0.00  0.00    +0.000 A 
ATOM     13  C   UNL     1     -10.902   9.770  19.928  0.00  0.00    +0.000 A 
ATOM     14  C   UNL     1     -10.352   9.408  18.700  0.00  0.00    +0.000 A 
ENDBRANCH   5   9
BRANCH   4  16
ATOM     15  N   UNL     1     -15.952   8.804  18.915  0.00  0.00    +0.000 NA
ATOM     16  C   UNL     1     -15.303   7.676  18.931  0.00  0.00    +0.000 C 
BRANCH  15  17
ATOM     17  O   UNL     1     -16.171   9.322  20.197  0.00  0.00    +0.000 OA
BRANCH  17  18
ATOM     18  C   UNL     1     -15.677  10.662  20.262  0.00  0.00    +0.000 C 
BRANCH  18  21
ATOM     19 CL   UNL     1     -13.662  13.062  20.436  0.00  0.00    +0.000 Cl
ATOM     20 CL   UNL     1     -12.044  10.853  25.046  0.00  0.00    +0.000 Cl
ATOM     21  C   UNL     1     -14.796  10.787  21.466  0.00  0.00    +0.000 A 
ATOM     22  C   UNL     1     -13.849  11.810  21.614  0.00  0.00    +0.000 A 
ATOM     23  C   UNL     1     -14.879   9.785  22.457  0.00  0.00    +0.000 A 
ATOM     24  C   UNL     1     -13.007  11.838  22.727  0.00  0.00    +0.000 A 
ATOM     25  C   UNL     1     -14.040   9.813  23.564  0.00  0.00    +0.000 A 
ATOM     26  C   UNL     1     -13.104  10.836  23.691  0.00  0.00    +0.000 A 
ENDBRANCH  18  21
ENDBRANCH  17  18
ENDBRANCH  15  17
ENDBRANCH   4  16
TORSDOF 5
ENDMDL
