REMARK  Name = 4314289
REMARK  6 active torsions:
REMARK  status: ('A' for Active; 'I' for Inactive)
REMARK    1  A    between atoms: O_3  and  N_6
REMARK    2  A    between atoms: O_3  and  C_21
REMARK    3  A    between atoms: C_7  and  C_9
REMARK    4  A    between atoms: C_8  and  C_14
REMARK    5  A    between atoms: C_15  and  C_19
REMARK    6  A    between atoms: C_20  and  C_21
REMARK                            x       y       z     vdW  Elec       q    Type
REMARK                         _______ _______ _______ _____ _____    ______ ____
ROOT
ATOM      1  S   UNL     1       6.221  -5.512   4.552  0.00  0.00    +0.000 S 
ATOM      2  N   UNL     1       5.179  -3.203   4.103  0.00  0.00    +0.000 N 
ATOM      3  N   UNL     1       7.007  -3.434   2.844  0.00  0.00    +0.000 NA
ATOM      4  C   UNL     1       6.431  -2.187   2.639  0.00  0.00    +0.000 A 
ATOM      5  C   UNL     1       5.284  -2.008   3.424  0.00  0.00    +0.000 A 
ATOM      6  C   UNL     1       6.242  -3.974   3.745  0.00  0.00    +0.000 A 
ATOM      7  C   UNL     1       4.300  -3.810   4.979  0.00  0.00    +0.000 A 
ATOM      8  C   UNL     1       4.713  -5.036   5.341  0.00  0.00    +0.000 A 
ENDROOT
BRANCH   4   9
ATOM      9  C   UNL     1       7.021  -1.248   1.691  0.00  0.00    +0.000 A 
ATOM     10  C   UNL     1       7.686  -1.750   0.563  0.00  0.00    +0.000 A 
ATOM     11  C   UNL     1       6.999   0.135   1.893  0.00  0.00    +0.000 A 
ATOM     12  C   UNL     1       8.261   0.492  -0.156  0.00  0.00    +0.000 A 
ATOM     13  C   UNL     1       8.299  -0.889  -0.353  0.00  0.00    +0.000 A 
ATOM     14  C   UNL     1       7.606   0.999   0.972  0.00  0.00    +0.000 A 
ATOM     15  C   UNL     1       8.935   1.430  -1.114  0.00  0.00    +0.000 C 
ENDBRANCH   4   9
BRANCH   5  17
ATOM     16  N   UNL     1       3.738  -0.442   4.525  0.00  0.00    +0.000 NA
ATOM     17  C   UNL     1       4.355  -0.911   3.477  0.00  0.00    +0.000 C 
BRANCH  16  18
ATOM     18  O   UNL     1       4.214  -1.028   5.704  0.00  0.00    +0.000 OA
BRANCH  18  19
ATOM     19  C   UNL     1       3.367  -0.706   6.809  0.00  0.00    +0.000 C 
BRANCH  19  21
ATOM     20 CL   UNL     1       6.667  -1.967  11.692  0.00  0.00    +0.000 Cl
ATOM     21  C   UNL     1       4.155  -1.012   8.059  0.00  0.00    +0.000 A 
ATOM     22  C   UNL     1       3.689  -1.922   9.019  0.00  0.00    +0.000 A 
ATOM     23  C   UNL     1       5.398  -0.390   8.254  0.00  0.00    +0.000 A 
ATOM     24  C   UNL     1       4.466  -2.212  10.145  0.00  0.00    +0.000 A 
ATOM     25  C   UNL     1       6.174  -0.683   9.373  0.00  0.00    +0.000 A 
ATOM     26  C   UNL     1       5.705  -1.595  10.315  0.00  0.00    +0.000 A 
ENDBRANCH  19  21
ENDBRANCH  18  19
ENDBRANCH  16  18
ENDBRANCH   5  17
TORSDOF 5
