MODEL 1
REMARK VINA RESULT:      -5.8      0.000      0.000
REMARK  Name = 4314289
REMARK  6 active torsions:
REMARK  status: ('A' for Active; 'I' for Inactive)
REMARK    1  A    between atoms: O_3  and  N_6
REMARK    2  A    between atoms: O_3  and  C_21
REMARK    3  A    between atoms: C_7  and  C_9
REMARK    4  A    between atoms: C_8  and  C_14
REMARK    5  A    between atoms: C_15  and  C_19
REMARK    6  A    between atoms: C_20  and  C_21
REMARK                            x       y       z     vdW  Elec       q    Type
REMARK                         _______ _______ _______ _____ _____    ______ ____
ROOT
ATOM      1  S   UNL     1      13.824  12.500  24.343  0.00  0.00    +0.000 S 
ATOM      2  N   UNL     1      12.151  11.064  23.018  0.00  0.00    +0.000 N 
ATOM      3  N   UNL     1      13.930  11.477  21.736  0.00  0.00    +0.000 NA
ATOM      4  C   UNL     1      12.997  10.719  21.041  0.00  0.00    +0.000 A 
ATOM      5  C   UNL     1      11.862  10.450  21.818  0.00  0.00    +0.000 A 
ATOM      6  C   UNL     1      13.358  11.679  22.885  0.00  0.00    +0.000 A 
ATOM      7  C   UNL     1      11.583  11.180  24.272  0.00  0.00    +0.000 A 
ATOM      8  C   UNL     1      12.330  11.933  25.097  0.00  0.00    +0.000 A 
ENDROOT
BRANCH   4   9
ATOM      9  C   UNL     1      13.263  10.294  19.671  0.00  0.00    +0.000 A 
ATOM     10  C   UNL     1      12.254   9.631  18.957  0.00  0.00    +0.000 A 
ATOM     11  C   UNL     1      14.508  10.472  19.059  0.00  0.00    +0.000 A 
ATOM     12  C   UNL     1      13.716   9.367  17.041  0.00  0.00    +0.000 A 
ATOM     13  C   UNL     1      12.477   9.173  17.654  0.00  0.00    +0.000 A 
ATOM     14  C   UNL     1      14.729  10.021  17.751  0.00  0.00    +0.000 A 
ATOM     15  C   UNL     1      13.981   8.860  15.654  0.00  0.00    +0.000 C 
ENDBRANCH   4   9
BRANCH   5  17
ATOM     16  N   UNL     1      10.598   8.357  21.546  0.00  0.00    +0.000 NA
ATOM     17  C   UNL     1      10.700   9.656  21.523  0.00  0.00    +0.000 C 
BRANCH  16  18
ATOM     18  O   UNL     1      11.747   7.763  22.081  0.00  0.00    +0.000 OA
BRANCH  18  19
ATOM     19  C   UNL     1      12.260   6.764  21.198  0.00  0.00    +0.000 C 
BRANCH  19  21
ATOM     20 CL   UNL     1      18.108   8.089  20.586  0.00  0.00    +0.000 Cl
ATOM     21  C   UNL     1      13.733   7.049  21.034  0.00  0.00    +0.000 A 
ATOM     22  C   UNL     1      14.431   6.679  19.875  0.00  0.00    +0.000 A 
ATOM     23  C   UNL     1      14.417   7.726  22.056  0.00  0.00    +0.000 A 
ATOM     24  C   UNL     1      15.786   6.997  19.741  0.00  0.00    +0.000 A 
ATOM     25  C   UNL     1      15.765   8.047  21.920  0.00  0.00    +0.000 A 
ATOM     26  C   UNL     1      16.445   7.682  20.761  0.00  0.00    +0.000 A 
ENDBRANCH  19  21
ENDBRANCH  18  19
ENDBRANCH  16  18
ENDBRANCH   5  17
TORSDOF 5
ENDMDL
MODEL 2
REMARK VINA RESULT:      -5.6     27.327     29.081
REMARK  Name = 4314289
REMARK  6 active torsions:
REMARK  status: ('A' for Active; 'I' for Inactive)
REMARK    1  A    between atoms: O_3  and  N_6
REMARK    2  A    between atoms: O_3  and  C_21
REMARK    3  A    between atoms: C_7  and  C_9
REMARK    4  A    between atoms: C_8  and  C_14
REMARK    5  A    between atoms: C_15  and  C_19
REMARK    6  A    between atoms: C_20  and  C_21
REMARK                            x       y       z     vdW  Elec       q    Type
REMARK                         _______ _______ _______ _____ _____    ______ ____
ROOT
ATOM      1  S   UNL     1      -5.313  -9.451  10.583  0.00  0.00    +0.000 S 
ATOM      2  N   UNL     1      -3.608 -10.280  12.322  0.00  0.00    +0.000 N 
ATOM      3  N   UNL     1      -5.560  -9.908  13.337  0.00  0.00    +0.000 NA
ATOM      4  C   UNL     1      -4.611 -10.339  14.254  0.00  0.00    +0.000 A 
ATOM      5  C   UNL     1      -3.369 -10.572  13.648  0.00  0.00    +0.000 A 
ATOM      6  C   UNL     1      -4.899  -9.860  12.220  0.00  0.00    +0.000 A 
ATOM      7  C   UNL     1      -2.927 -10.335  11.121  0.00  0.00    +0.000 A 
ATOM      8  C   UNL     1      -3.678  -9.906  10.094  0.00  0.00    +0.000 A 
ENDROOT
BRANCH   4   9
ATOM      9  C   UNL     1      -4.964 -10.505  15.660  0.00  0.00    +0.000 A 
ATOM     10  C   UNL     1      -6.287 -10.266  16.060  0.00  0.00    +0.000 A 
ATOM     11  C   UNL     1      -4.021 -10.839  16.636  0.00  0.00    +0.000 A 
ATOM     12  C   UNL     1      -5.721 -10.726  18.372  0.00  0.00    +0.000 A 
ATOM     13  C   UNL     1      -6.663 -10.377  17.403  0.00  0.00    +0.000 A 
ATOM     14  C   UNL     1      -4.398 -10.958  17.980  0.00  0.00    +0.000 A 
ATOM     15  C   UNL     1      -6.101 -10.824  19.820  0.00  0.00    +0.000 C 
ENDBRANCH   4   9
BRANCH   5  17
ATOM     16  N   UNL     1      -1.800 -12.330  14.357  0.00  0.00    +0.000 NA
ATOM     17  C   UNL     1      -2.144 -11.082  14.202  0.00  0.00    +0.000 C 
BRANCH  16  18
ATOM     18  O   UNL     1      -2.716 -13.193  13.743  0.00  0.00    +0.000 OA
BRANCH  18  19
ATOM     19  C   UNL     1      -2.989 -14.321  14.576  0.00  0.00    +0.000 C 
BRANCH  19  21
ATOM     20 CL   UNL     1      -8.695 -13.562  16.365  0.00  0.00    +0.000 Cl
ATOM     21  C   UNL     1      -4.416 -14.174  15.045  0.00  0.00    +0.000 A 
ATOM     22  C   UNL     1      -4.769 -14.341  16.392  0.00  0.00    +0.000 A 
ATOM     23  C   UNL     1      -5.411 -13.836  14.115  0.00  0.00    +0.000 A 
ATOM     24  C   UNL     1      -6.095 -14.157  16.797  0.00  0.00    +0.000 A 
ATOM     25  C   UNL     1      -6.730 -13.646  14.520  0.00  0.00    +0.000 A 
ATOM     26  C   UNL     1      -7.068 -13.807  15.861  0.00  0.00    +0.000 A 
ENDBRANCH  19  21
ENDBRANCH  18  19
ENDBRANCH  16  18
ENDBRANCH   5  17
TORSDOF 5
ENDMDL
MODEL 3
REMARK VINA RESULT:      -5.2     28.645     31.139
REMARK  Name = 4314289
REMARK  6 active torsions:
REMARK  status: ('A' for Active; 'I' for Inactive)
REMARK    1  A    between atoms: O_3  and  N_6
REMARK    2  A    between atoms: O_3  and  C_21
REMARK    3  A    between atoms: C_7  and  C_9
REMARK    4  A    between atoms: C_8  and  C_14
REMARK    5  A    between atoms: C_15  and  C_19
REMARK    6  A    between atoms: C_20  and  C_21
REMARK                            x       y       z     vdW  Elec       q    Type
REMARK                         _______ _______ _______ _____ _____    ______ ____
ROOT
ATOM      1  S   UNL     1     -18.808   6.932  33.076  0.00  0.00    +0.000 S 
ATOM      2  N   UNL     1     -16.582   5.748  33.586  0.00  0.00    +0.000 N 
ATOM      3  N   UNL     1     -16.180   7.901  33.160  0.00  0.00    +0.000 NA
ATOM      4  C   UNL     1     -14.994   7.228  33.420  0.00  0.00    +0.000 A 
ATOM      5  C   UNL     1     -15.213   5.870  33.683  0.00  0.00    +0.000 A 
ATOM      6  C   UNL     1     -17.079   6.966  33.238  0.00  0.00    +0.000 A 
ATOM      7  C   UNL     1     -17.541   4.772  33.779  0.00  0.00    +0.000 A 
ATOM      8  C   UNL     1     -18.780   5.224  33.526  0.00  0.00    +0.000 A 
ENDROOT
BRANCH   4   9
ATOM      9  C   UNL     1     -13.721   7.943  33.406  0.00  0.00    +0.000 A 
ATOM     10  C   UNL     1     -13.019   8.054  32.197  0.00  0.00    +0.000 A 
ATOM     11  C   UNL     1     -13.145   8.472  34.565  0.00  0.00    +0.000 A 
ATOM     12  C   UNL     1     -11.214   9.238  33.299  0.00  0.00    +0.000 A 
ATOM     13  C   UNL     1     -11.778   8.697  32.143  0.00  0.00    +0.000 A 
ATOM     14  C   UNL     1     -11.906   9.123  34.510  0.00  0.00    +0.000 A 
ATOM     15  C   UNL     1      -9.872   9.909  33.266  0.00  0.00    +0.000 C 
ENDBRANCH   4   9
BRANCH   5  17
ATOM     16  N   UNL     1     -13.775   3.910  33.299  0.00  0.00    +0.000 NA
ATOM     17  C   UNL     1     -14.288   4.834  34.061  0.00  0.00    +0.000 C 
BRANCH  16  18
ATOM     18  O   UNL     1     -14.092   4.123  31.952  0.00  0.00    +0.000 OA
BRANCH  18  19
ATOM     19  C   UNL     1     -13.470   3.140  31.123  0.00  0.00    +0.000 C 
BRANCH  19  21
ATOM     20 CL   UNL     1     -17.682   0.754  27.532  0.00  0.00    +0.000 Cl
ATOM     21  C   UNL     1     -14.552   2.581  30.231  0.00  0.00    +0.000 A 
ATOM     22  C   UNL     1     -15.092   3.326  29.173  0.00  0.00    +0.000 A 
ATOM     23  C   UNL     1     -15.012   1.273  30.450  0.00  0.00    +0.000 A 
ATOM     24  C   UNL     1     -16.064   2.760  28.342  0.00  0.00    +0.000 A 
ATOM     25  C   UNL     1     -15.976   0.708  29.619  0.00  0.00    +0.000 A 
ATOM     26  C   UNL     1     -16.499   1.454  28.566  0.00  0.00    +0.000 A 
ENDBRANCH  19  21
ENDBRANCH  18  19
ENDBRANCH  16  18
ENDBRANCH   5  17
TORSDOF 5
ENDMDL
MODEL 4
REMARK VINA RESULT:      -5.1     11.445     13.755
REMARK  Name = 4314289
REMARK  6 active torsions:
REMARK  status: ('A' for Active; 'I' for Inactive)
REMARK    1  A    between atoms: O_3  and  N_6
REMARK    2  A    between atoms: O_3  and  C_21
REMARK    3  A    between atoms: C_7  and  C_9
REMARK    4  A    between atoms: C_8  and  C_14
REMARK    5  A    between atoms: C_15  and  C_19
REMARK    6  A    between atoms: C_20  and  C_21
REMARK                            x       y       z     vdW  Elec       q    Type
REMARK                         _______ _______ _______ _____ _____    ______ ____
ROOT
ATOM      1  S   UNL     1       1.685  19.627  20.043  0.00  0.00    +0.000 S 
ATOM      2  N   UNL     1       2.099  18.328  22.224  0.00  0.00    +0.000 N 
ATOM      3  N   UNL     1       3.990  18.385  21.040  0.00  0.00    +0.000 NA
ATOM      4  C   UNL     1       4.176  17.671  22.217  0.00  0.00    +0.000 A 
ATOM      5  C   UNL     1       3.002  17.610  22.980  0.00  0.00    +0.000 A 
ATOM      6  C   UNL     1       2.735  18.717  21.085  0.00  0.00    +0.000 A 
ATOM      7  C   UNL     1       0.794  18.768  22.332  0.00  0.00    +0.000 A 
ATOM      8  C   UNL     1       0.402  19.456  21.246  0.00  0.00    +0.000 A 
ENDROOT
BRANCH   4   9
ATOM      9  C   UNL     1       5.480  17.100  22.536  0.00  0.00    +0.000 A 
ATOM     10  C   UNL     1       5.782  15.806  22.087  0.00  0.00    +0.000 A 
ATOM     11  C   UNL     1       6.421  17.770  23.323  0.00  0.00    +0.000 A 
ATOM     12  C   UNL     1       7.947  15.882  23.173  0.00  0.00    +0.000 A 
ATOM     13  C   UNL     1       7.004  15.203  22.400  0.00  0.00    +0.000 A 
ATOM     14  C   UNL     1       7.649  17.170  23.631  0.00  0.00    +0.000 A 
ATOM     15  C   UNL     1       9.254  15.241  23.541  0.00  0.00    +0.000 C 
ENDBRANCH   4   9
BRANCH   5  17
ATOM     16  N   UNL     1       2.388  15.821  24.554  0.00  0.00    +0.000 NA
ATOM     17  C   UNL     1       2.765  17.038  24.278  0.00  0.00    +0.000 C 
BRANCH  16  18
ATOM     18  O   UNL     1       2.395  15.012  23.412  0.00  0.00    +0.000 OA
BRANCH  18  19
ATOM     19  C   UNL     1       1.097  14.464  23.170  0.00  0.00    +0.000 C 
BRANCH  19  21
ATOM     20 CL   UNL     1      -0.618  16.836  17.902  0.00  0.00    +0.000 Cl
ATOM     21  C   UNL     1       0.630  15.028  21.851  0.00  0.00    +0.000 A 
ATOM     22  C   UNL     1      -0.680  15.496  21.673  0.00  0.00    +0.000 A 
ATOM     23  C   UNL     1       1.536  15.110  20.782  0.00  0.00    +0.000 A 
ATOM     24  C   UNL     1      -1.065  16.051  20.448  0.00  0.00    +0.000 A 
ATOM     25  C   UNL     1       1.154  15.667  19.564  0.00  0.00    +0.000 A 
ATOM     26  C   UNL     1      -0.147  16.137  19.402  0.00  0.00    +0.000 A 
ENDBRANCH  19  21
ENDBRANCH  18  19
ENDBRANCH  16  18
ENDBRANCH   5  17
TORSDOF 5
ENDMDL
MODEL 5
REMARK VINA RESULT:      -5.0      1.906      2.846
REMARK  Name = 4314289
REMARK  6 active torsions:
REMARK  status: ('A' for Active; 'I' for Inactive)
REMARK    1  A    between atoms: O_3  and  N_6
REMARK    2  A    between atoms: O_3  and  C_21
REMARK    3  A    between atoms: C_7  and  C_9
REMARK    4  A    between atoms: C_8  and  C_14
REMARK    5  A    between atoms: C_15  and  C_19
REMARK    6  A    between atoms: C_20  and  C_21
REMARK                            x       y       z     vdW  Elec       q    Type
REMARK                         _______ _______ _______ _____ _____    ______ ____
ROOT
ATOM      1  S   UNL     1      11.141  11.940  24.759  0.00  0.00    +0.000 S 
ATOM      2  N   UNL     1      13.281  11.695  23.353  0.00  0.00    +0.000 N 
ATOM      3  N   UNL     1      11.524  11.096  22.115  0.00  0.00    +0.000 NA
ATOM      4  C   UNL     1      12.699  10.956  21.389  0.00  0.00    +0.000 A 
ATOM      5  C   UNL     1      13.824  11.316  22.143  0.00  0.00    +0.000 A 
ATOM      6  C   UNL     1      11.936  11.503  23.278  0.00  0.00    +0.000 A 
ATOM      7  C   UNL     1      13.718  12.230  24.549  0.00  0.00    +0.000 A 
ATOM      8  C   UNL     1      12.712  12.403  25.423  0.00  0.00    +0.000 A 
ENDROOT
BRANCH   4   9
ATOM      9  C   UNL     1      12.663  10.488  20.007  0.00  0.00    +0.000 A 
ATOM     10  C   UNL     1      12.019   9.276  19.717  0.00  0.00    +0.000 A 
ATOM     11  C   UNL     1      13.295  11.175  18.966  0.00  0.00    +0.000 A 
ATOM     12  C   UNL     1      12.610   9.467  17.374  0.00  0.00    +0.000 A 
ATOM     13  C   UNL     1      11.991   8.771  18.413  0.00  0.00    +0.000 A 
ATOM     14  C   UNL     1      13.261  10.673  17.658  0.00  0.00    +0.000 A 
ATOM     15  C   UNL     1      12.613   8.927  15.974  0.00  0.00    +0.000 C 
ENDBRANCH   4   9
BRANCH   5  17
ATOM     16  N   UNL     1      16.059  10.401  21.674  0.00  0.00    +0.000 NA
ATOM     17  C   UNL     1      15.211  11.386  21.770  0.00  0.00    +0.000 C 
BRANCH  16  18
ATOM     18  O   UNL     1      15.421   9.162  21.810  0.00  0.00    +0.000 OA
BRANCH  18  19
ATOM     19  C   UNL     1      15.352   8.485  20.554  0.00  0.00    +0.000 C 
BRANCH  19  21
ATOM     20 CL   UNL     1      20.155   4.861  20.205  0.00  0.00    +0.000 Cl
ATOM     21  C   UNL     1      16.582   7.616  20.465  0.00  0.00    +0.000 A 
ATOM     22  C   UNL     1      17.665   7.780  21.342  0.00  0.00    +0.000 A 
ATOM     23  C   UNL     1      16.635   6.601  19.497  0.00  0.00    +0.000 A 
ATOM     24  C   UNL     1      18.771   6.930  21.256  0.00  0.00    +0.000 A 
ATOM     25  C   UNL     1      17.736   5.751  19.415  0.00  0.00    +0.000 A 
ATOM     26  C   UNL     1      18.800   5.918  20.297  0.00  0.00    +0.000 A 
ENDBRANCH  19  21
ENDBRANCH  18  19
ENDBRANCH  16  18
ENDBRANCH   5  17
TORSDOF 5
ENDMDL
MODEL 6
REMARK VINA RESULT:      -5.0     10.812     13.184
REMARK  Name = 4314289
REMARK  6 active torsions:
REMARK  status: ('A' for Active; 'I' for Inactive)
REMARK    1  A    between atoms: O_3  and  N_6
REMARK    2  A    between atoms: O_3  and  C_21
REMARK    3  A    between atoms: C_7  and  C_9
REMARK    4  A    between atoms: C_8  and  C_14
REMARK    5  A    between atoms: C_15  and  C_19
REMARK    6  A    between atoms: C_20  and  C_21
REMARK                            x       y       z     vdW  Elec       q    Type
REMARK                         _______ _______ _______ _____ _____    ______ ____
ROOT
ATOM      1  S   UNL     1       5.921  20.240  17.686  0.00  0.00    +0.000 S 
ATOM      2  N   UNL     1       5.724  17.791  18.448  0.00  0.00    +0.000 N 
ATOM      3  N   UNL     1       3.956  18.930  19.194  0.00  0.00    +0.000 NA
ATOM      4  C   UNL     1       3.889  17.606  19.607  0.00  0.00    +0.000 A 
ATOM      5  C   UNL     1       4.992  16.865  19.161  0.00  0.00    +0.000 A 
ATOM      6  C   UNL     1       5.079  18.986  18.543  0.00  0.00    +0.000 A 
ATOM      7  C   UNL     1       6.864  17.815  17.668  0.00  0.00    +0.000 A 
ATOM      8  C   UNL     1       7.131  19.046  17.201  0.00  0.00    +0.000 A 
ENDROOT
BRANCH   4   9
ATOM      9  C   UNL     1       2.759  17.136  20.400  0.00  0.00    +0.000 A 
ATOM     10  C   UNL     1       2.135  18.026  21.287  0.00  0.00    +0.000 A 
ATOM     11  C   UNL     1       2.308  15.813  20.354  0.00  0.00    +0.000 A 
ATOM     12  C   UNL     1       0.615  16.292  22.034  0.00  0.00    +0.000 A 
ATOM     13  C   UNL     1       1.073  17.609  22.095  0.00  0.00    +0.000 A 
ATOM     14  C   UNL     1       1.238  15.397  21.157  0.00  0.00    +0.000 A 
ATOM     15  C   UNL     1      -0.507  15.820  22.912  0.00  0.00    +0.000 C 
ENDBRANCH   4   9
BRANCH   5  17
ATOM     16  N   UNL     1       6.143  14.911  20.116  0.00  0.00    +0.000 NA
ATOM     17  C   UNL     1       5.290  15.465  19.300  0.00  0.00    +0.000 C 
BRANCH  16  18
ATOM     18  O   UNL     1       6.660  15.841  21.025  0.00  0.00    +0.000 OA
BRANCH  18  19
ATOM     19  C   UNL     1       6.703  15.292  22.344  0.00  0.00    +0.000 C 
BRANCH  19  21
ATOM     20 CL   UNL     1       2.497  18.085  25.635  0.00  0.00    +0.000 Cl
ATOM     21  C   UNL     1       5.618  15.982  23.133  0.00  0.00    +0.000 A 
ATOM     22  C   UNL     1       4.397  15.352  23.413  0.00  0.00    +0.000 A 
ATOM     23  C   UNL     1       5.846  17.278  23.623  0.00  0.00    +0.000 A 
ATOM     24  C   UNL     1       3.430  16.007  24.183  0.00  0.00    +0.000 A 
ATOM     25  C   UNL     1       4.885  17.928  24.394  0.00  0.00    +0.000 A 
ATOM     26  C   UNL     1       3.680  17.288  24.673  0.00  0.00    +0.000 A 
ENDBRANCH  19  21
ENDBRANCH  18  19
ENDBRANCH  16  18
ENDBRANCH   5  17
TORSDOF 5
ENDMDL
MODEL 7
REMARK VINA RESULT:      -5.0     24.638     26.972
REMARK  Name = 4314289
REMARK  6 active torsions:
REMARK  status: ('A' for Active; 'I' for Inactive)
REMARK    1  A    between atoms: O_3  and  N_6
REMARK    2  A    between atoms: O_3  and  C_21
REMARK    3  A    between atoms: C_7  and  C_9
REMARK    4  A    between atoms: C_8  and  C_14
REMARK    5  A    between atoms: C_15  and  C_19
REMARK    6  A    between atoms: C_20  and  C_21
REMARK                            x       y       z     vdW  Elec       q    Type
REMARK                         _______ _______ _______ _____ _____    ______ ____
ROOT
ATOM      1  S   UNL     1     -16.686   9.823  18.480  0.00  0.00    +0.000 S 
ATOM      2  N   UNL     1     -15.193   8.312  19.931  0.00  0.00    +0.000 N 
ATOM      3  N   UNL     1     -15.269  10.349  20.840  0.00  0.00    +0.000 NA
ATOM      4  C   UNL     1     -14.453   9.512  21.591  0.00  0.00    +0.000 A 
ATOM      5  C   UNL     1     -14.378   8.226  21.039  0.00  0.00    +0.000 A 
ATOM      6  C   UNL     1     -15.649   9.592  19.854  0.00  0.00    +0.000 A 
ATOM      7  C   UNL     1     -15.678   7.471  18.948  0.00  0.00    +0.000 A 
ATOM      8  C   UNL     1     -16.470   8.116  18.076  0.00  0.00    +0.000 A 
ENDROOT
BRANCH   4   9
ATOM      9  C   UNL     1     -13.802  10.006  22.799  0.00  0.00    +0.000 A 
ATOM     10  C   UNL     1     -12.603  10.725  22.679  0.00  0.00    +0.000 A 
ATOM     11  C   UNL     1     -14.297   9.742  24.079  0.00  0.00    +0.000 A 
ATOM     12  C   UNL     1     -12.430  10.933  25.088  0.00  0.00    +0.000 A 
ATOM     13  C   UNL     1     -11.924  11.186  23.812  0.00  0.00    +0.000 A 
ATOM     14  C   UNL     1     -13.622  10.210  25.215  0.00  0.00    +0.000 A 
ATOM     15  C   UNL     1     -11.703  11.397  26.315  0.00  0.00    +0.000 C 
ENDBRANCH   4   9
BRANCH   5  17
ATOM     16  N   UNL     1     -12.496   6.654  21.250  0.00  0.00    +0.000 NA
ATOM     17  C   UNL     1     -13.710   7.046  21.519  0.00  0.00    +0.000 C 
BRANCH  16  18
ATOM     18  O   UNL     1     -11.790   7.631  20.538  0.00  0.00    +0.000 OA
BRANCH  18  19
ATOM     19  C   UNL     1     -11.448   7.160  19.233  0.00  0.00    +0.000 C 
BRANCH  19  21
ATOM     20 CL   UNL     1      -9.545  12.035  16.243  0.00  0.00    +0.000 Cl
ATOM     21  C   UNL     1     -10.937   8.354  18.465  0.00  0.00    +0.000 A 
ATOM     22  C   UNL     1     -10.734   8.306  17.078  0.00  0.00    +0.000 A 
ATOM     23  C   UNL     1     -10.682   9.552  19.151  0.00  0.00    +0.000 A 
ATOM     24  C   UNL     1     -10.298   9.445  16.393  0.00  0.00    +0.000 A 
ATOM     25  C   UNL     1     -10.253  10.687  18.468  0.00  0.00    +0.000 A 
ATOM     26  C   UNL     1     -10.064  10.630  17.090  0.00  0.00    +0.000 A 
ENDBRANCH  19  21
ENDBRANCH  18  19
ENDBRANCH  16  18
ENDBRANCH   5  17
TORSDOF 5
ENDMDL
MODEL 8
REMARK VINA RESULT:      -4.9     26.906     28.882
REMARK  Name = 4314289
REMARK  6 active torsions:
REMARK  status: ('A' for Active; 'I' for Inactive)
REMARK    1  A    between atoms: O_3  and  N_6
REMARK    2  A    between atoms: O_3  and  C_21
REMARK    3  A    between atoms: C_7  and  C_9
REMARK    4  A    between atoms: C_8  and  C_14
REMARK    5  A    between atoms: C_15  and  C_19
REMARK    6  A    between atoms: C_20  and  C_21
REMARK                            x       y       z     vdW  Elec       q    Type
REMARK                         _______ _______ _______ _____ _____    ______ ____
ROOT
ATOM      1  S   UNL     1      -6.702 -11.917  16.926  0.00  0.00    +0.000 S 
ATOM      2  N   UNL     1      -4.348 -11.428  16.011  0.00  0.00    +0.000 N 
ATOM      3  N   UNL     1      -5.036 -13.402  15.231  0.00  0.00    +0.000 NA
ATOM      4  C   UNL     1      -3.757 -13.117  14.771  0.00  0.00    +0.000 A 
ATOM      5  C   UNL     1      -3.293 -11.886  15.251  0.00  0.00    +0.000 A 
ATOM      6  C   UNL     1      -5.317 -12.383  15.987  0.00  0.00    +0.000 A 
ATOM      7  C   UNL     1      -4.681 -10.292  16.724  0.00  0.00    +0.000 A 
ATOM      8  C   UNL     1      -5.891 -10.392  17.297  0.00  0.00    +0.000 A 
ENDROOT
BRANCH   4   9
ATOM      9  C   UNL     1      -3.065 -14.051  13.888  0.00  0.00    +0.000 A 
ATOM     10  C   UNL     1      -2.154 -14.961  14.442  0.00  0.00    +0.000 A 
ATOM     11  C   UNL     1      -3.234 -14.035  12.500  0.00  0.00    +0.000 A 
ATOM     12  C   UNL     1      -1.623 -15.840  12.247  0.00  0.00    +0.000 A 
ATOM     13  C   UNL     1      -1.440 -15.848  13.630  0.00  0.00    +0.000 A 
ATOM     14  C   UNL     1      -2.525 -14.929  11.687  0.00  0.00    +0.000 A 
ATOM     15  C   UNL     1      -0.847 -16.767  11.358  0.00  0.00    +0.000 C 
ENDBRANCH   4   9
BRANCH   5  17
ATOM     16  N   UNL     1      -1.785 -10.462  13.927  0.00  0.00    +0.000 NA
ATOM     17  C   UNL     1      -2.069 -11.181  14.976  0.00  0.00    +0.000 C 
BRANCH  16  18
ATOM     18  O   UNL     1      -2.908 -10.283  13.110  0.00  0.00    +0.000 OA
BRANCH  18  19
ATOM     19  C   UNL     1      -2.527 -10.200  11.735  0.00  0.00    +0.000 C 
BRANCH  19  21
ATOM     20 CL   UNL     1      -7.382  -8.122   8.831  0.00  0.00    +0.000 Cl
ATOM     21  C   UNL     1      -3.716  -9.643  10.992  0.00  0.00    +0.000 A 
ATOM     22  C   UNL     1      -3.652  -9.335   9.625  0.00  0.00    +0.000 A 
ATOM     23  C   UNL     1      -4.925  -9.453  11.679  0.00  0.00    +0.000 A 
ATOM     24  C   UNL     1      -4.786  -8.860   8.960  0.00  0.00    +0.000 A 
ATOM     25  C   UNL     1      -6.056  -8.984  11.015  0.00  0.00    +0.000 A 
ATOM     26  C   UNL     1      -5.983  -8.690   9.656  0.00  0.00    +0.000 A 
ENDBRANCH  19  21
ENDBRANCH  18  19
ENDBRANCH  16  18
ENDBRANCH   5  17
TORSDOF 5
ENDMDL
MODEL 9
REMARK VINA RESULT:      -4.9     33.107     35.122
REMARK  Name = 4314289
REMARK  6 active torsions:
REMARK  status: ('A' for Active; 'I' for Inactive)
REMARK    1  A    between atoms: O_3  and  N_6
REMARK    2  A    between atoms: O_3  and  C_21
REMARK    3  A    between atoms: C_7  and  C_9
REMARK    4  A    between atoms: C_8  and  C_14
REMARK    5  A    between atoms: C_15  and  C_19
REMARK    6  A    between atoms: C_20  and  C_21
REMARK                            x       y       z     vdW  Elec       q    Type
REMARK                         _______ _______ _______ _____ _____    ______ ____
ROOT
ATOM      1  S   UNL     1       5.401 -19.031  -1.992  0.00  0.00    +0.000 S 
ATOM      2  N   UNL     1       5.152 -16.575  -1.268  0.00  0.00    +0.000 N 
ATOM      3  N   UNL     1       3.828 -16.954  -3.024  0.00  0.00    +0.000 NA
ATOM      4  C   UNL     1       3.731 -15.629  -2.621  0.00  0.00    +0.000 A 
ATOM      5  C   UNL     1       4.559 -15.357  -1.524  0.00  0.00    +0.000 A 
ATOM      6  C   UNL     1       4.708 -17.453  -2.209  0.00  0.00    +0.000 A 
ATOM      7  C   UNL     1       6.005 -17.122  -0.330  0.00  0.00    +0.000 A 
ATOM      8  C   UNL     1       6.265 -18.417  -0.578  0.00  0.00    +0.000 A 
ENDROOT
BRANCH   4   9
ATOM      9  C   UNL     1       2.838 -14.708  -3.317  0.00  0.00    +0.000 A 
ATOM     10  C   UNL     1       3.216 -14.216  -4.574  0.00  0.00    +0.000 A 
ATOM     11  C   UNL     1       1.643 -14.252  -2.753  0.00  0.00    +0.000 A 
ATOM     12  C   UNL     1       1.210 -12.862  -4.702  0.00  0.00    +0.000 A 
ATOM     13  C   UNL     1       2.410 -13.303  -5.261  0.00  0.00    +0.000 A 
ATOM     14  C   UNL     1       0.831 -13.344  -3.443  0.00  0.00    +0.000 A 
ATOM     15  C   UNL     1       0.344 -11.863  -5.412  0.00  0.00    +0.000 C 
ENDBRANCH   4   9
BRANCH   5  17
ATOM     16  N   UNL     1       3.884 -13.642   0.107  0.00  0.00    +0.000 NA
ATOM     17  C   UNL     1       4.718 -14.151  -0.755  0.00  0.00    +0.000 C 
BRANCH  16  18
ATOM     18  O   UNL     1       2.818 -14.514   0.364  0.00  0.00    +0.000 OA
BRANCH  18  19
ATOM     19  C   UNL     1       2.693 -14.763   1.765  0.00  0.00    +0.000 C 
BRANCH  19  21
ATOM     20 CL   UNL     1       4.776 -20.326   2.786  0.00  0.00    +0.000 Cl
ATOM     21  C   UNL     1       3.258 -16.141   2.010  0.00  0.00    +0.000 A 
ATOM     22  C   UNL     1       4.347 -16.348   2.869  0.00  0.00    +0.000 A 
ATOM     23  C   UNL     1       2.664 -17.246   1.381  0.00  0.00    +0.000 A 
ATOM     24  C   UNL     1       4.818 -17.644   3.104  0.00  0.00    +0.000 A 
ATOM     25  C   UNL     1       3.130 -18.537   1.619  0.00  0.00    +0.000 A 
ATOM     26  C   UNL     1       4.206 -18.731   2.482  0.00  0.00    +0.000 A 
ENDBRANCH  19  21
ENDBRANCH  18  19
ENDBRANCH  16  18
ENDBRANCH   5  17
TORSDOF 5
ENDMDL
MODEL 10
REMARK VINA RESULT:      -4.9     27.431     29.923
REMARK  Name = 4314289
REMARK  6 active torsions:
REMARK  status: ('A' for Active; 'I' for Inactive)
REMARK    1  A    between atoms: O_3  and  N_6
REMARK    2  A    between atoms: O_3  and  C_21
REMARK    3  A    between atoms: C_7  and  C_9
REMARK    4  A    between atoms: C_8  and  C_14
REMARK    5  A    between atoms: C_15  and  C_19
REMARK    6  A    between atoms: C_20  and  C_21
REMARK                            x       y       z     vdW  Elec       q    Type
REMARK                         _______ _______ _______ _____ _____    ______ ____
ROOT
ATOM      1  S   UNL     1      -1.817 -17.697  15.885  0.00  0.00    +0.000 S 
ATOM      2  N   UNL     1      -2.445 -15.566  14.587  0.00  0.00    +0.000 N 
ATOM      3  N   UNL     1      -4.048 -16.013  16.073  0.00  0.00    +0.000 NA
ATOM      4  C   UNL     1      -4.368 -14.876  15.341  0.00  0.00    +0.000 A 
ATOM      5  C   UNL     1      -3.382 -14.575  14.391  0.00  0.00    +0.000 A 
ATOM      6  C   UNL     1      -2.918 -16.394  15.558  0.00  0.00    +0.000 A 
ATOM      7  C   UNL     1      -1.193 -15.902  14.108  0.00  0.00    +0.000 A 
ATOM      8  C   UNL     1      -0.720 -17.025  14.673  0.00  0.00    +0.000 A 
ENDROOT
BRANCH   4   9
ATOM      9  C   UNL     1      -5.603 -14.148  15.609  0.00  0.00    +0.000 A 
ATOM     10  C   UNL     1      -6.100 -13.272  14.634  0.00  0.00    +0.000 A 
ATOM     11  C   UNL     1      -6.281 -14.246  16.828  0.00  0.00    +0.000 A 
ATOM     12  C   UNL     1      -7.943 -12.637  16.074  0.00  0.00    +0.000 A 
ATOM     13  C   UNL     1      -7.260 -12.524  14.862  0.00  0.00    +0.000 A 
ATOM     14  C   UNL     1      -7.448 -13.503  17.055  0.00  0.00    +0.000 A 
ATOM     15  C   UNL     1      -9.175 -11.824  16.347  0.00  0.00    +0.000 C 
ENDBRANCH   4   9
BRANCH   5  17
ATOM     16  N   UNL     1      -2.900 -12.249  13.751  0.00  0.00    +0.000 NA
ATOM     17  C   UNL     1      -3.276 -13.467  13.480  0.00  0.00    +0.000 C 
BRANCH  16  18
ATOM     18  O   UNL     1      -2.414 -12.142  15.060  0.00  0.00    +0.000 OA
BRANCH  18  19
ATOM     19  C   UNL     1      -2.532 -10.800  15.537  0.00  0.00    +0.000 C 
BRANCH  19  21
ATOM     20 CL   UNL     1      -7.111 -10.573  19.450  0.00  0.00    +0.000 Cl
ATOM     21  C   UNL     1      -3.680 -10.792  16.517  0.00  0.00    +0.000 A 
ATOM     22  C   UNL     1      -3.631 -11.520  17.714  0.00  0.00    +0.000 A 
ATOM     23  C   UNL     1      -4.814 -10.014  16.236  0.00  0.00    +0.000 A 
ATOM     24  C   UNL     1      -4.697 -11.455  18.618  0.00  0.00    +0.000 A 
ATOM     25  C   UNL     1      -5.873  -9.945  17.138  0.00  0.00    +0.000 A 
ATOM     26  C   UNL     1      -5.809 -10.666  18.328  0.00  0.00    +0.000 A 
ENDBRANCH  19  21
ENDBRANCH  18  19
ENDBRANCH  16  18
ENDBRANCH   5  17
TORSDOF 5
ENDMDL
