MODEL 1
REMARK VINA RESULT:      -5.4      0.000      0.000
REMARK  Name = 4314289
REMARK  6 active torsions:
REMARK  status: ('A' for Active; 'I' for Inactive)
REMARK    1  A    between atoms: O_3  and  N_6
REMARK    2  A    between atoms: O_3  and  C_21
REMARK    3  A    between atoms: C_7  and  C_9
REMARK    4  A    between atoms: C_8  and  C_14
REMARK    5  A    between atoms: C_15  and  C_19
REMARK    6  A    between atoms: C_20  and  C_21
REMARK                            x       y       z     vdW  Elec       q    Type
REMARK                         _______ _______ _______ _____ _____    ______ ____
ROOT
ATOM      1  S   UNL     1     -25.445   6.941 -59.679  0.00  0.00    +0.000 S 
ATOM      2  N   UNL     1     -24.427   5.244 -58.035  0.00  0.00    +0.000 N 
ATOM      3  N   UNL     1     -24.612   7.222 -57.018  0.00  0.00    +0.000 NA
ATOM      4  C   UNL     1     -24.046   6.287 -56.161  0.00  0.00    +0.000 A 
ATOM      5  C   UNL     1     -23.908   5.035 -56.775  0.00  0.00    +0.000 A 
ATOM      6  C   UNL     1     -24.782   6.555 -58.120  0.00  0.00    +0.000 A 
ATOM      7  C   UNL     1     -24.704   4.500 -59.165  0.00  0.00    +0.000 A 
ATOM      8  C   UNL     1     -25.228   5.251 -60.149  0.00  0.00    +0.000 A 
ENDROOT
BRANCH   4   9
ATOM      9  C   UNL     1     -23.680   6.660 -54.799  0.00  0.00    +0.000 A 
ATOM     10  C   UNL     1     -22.603   7.536 -54.602  0.00  0.00    +0.000 A 
ATOM     11  C   UNL     1     -24.326   6.133 -53.678  0.00  0.00    +0.000 A 
ATOM     12  C   UNL     1     -22.851   7.376 -52.196  0.00  0.00    +0.000 A 
ATOM     13  C   UNL     1     -22.192   7.892 -53.313  0.00  0.00    +0.000 A 
ATOM     14  C   UNL     1     -23.921   6.495 -52.386  0.00  0.00    +0.000 A 
ATOM     15  C   UNL     1     -22.408   7.726 -50.805  0.00  0.00    +0.000 C 
ENDBRANCH   4   9
BRANCH   5  17
ATOM     16  N   UNL     1     -22.274   3.228 -56.425  0.00  0.00    +0.000 NA
ATOM     17  C   UNL     1     -23.439   3.784 -56.242  0.00  0.00    +0.000 C 
BRANCH  16  18
ATOM     18  O   UNL     1     -21.397   4.089 -57.096  0.00  0.00    +0.000 OA
BRANCH  18  19
ATOM     19  C   UNL     1     -20.382   4.569 -56.212  0.00  0.00    +0.000 C 
BRANCH  19  21
ATOM     20 CL   UNL     1     -19.203  10.203 -57.998  0.00  0.00    +0.000 Cl
ATOM     21  C   UNL     1     -20.099   5.996 -56.615  0.00  0.00    +0.000 A 
ATOM     22  C   UNL     1     -19.255   6.821 -55.860  0.00  0.00    +0.000 A 
ATOM     23  C   UNL     1     -20.676   6.501 -57.791  0.00  0.00    +0.000 A 
ATOM     24  C   UNL     1     -18.983   8.125 -56.287  0.00  0.00    +0.000 A 
ATOM     25  C   UNL     1     -20.401   7.798 -58.219  0.00  0.00    +0.000 A 
ATOM     26  C   UNL     1     -19.553   8.606 -57.465  0.00  0.00    +0.000 A 
ENDBRANCH  19  21
ENDBRANCH  18  19
ENDBRANCH  16  18
ENDBRANCH   5  17
TORSDOF 5
ENDMDL
MODEL 2
REMARK VINA RESULT:      -5.3      2.822      4.259
REMARK  Name = 4314289
REMARK  6 active torsions:
REMARK  status: ('A' for Active; 'I' for Inactive)
REMARK    1  A    between atoms: O_3  and  N_6
REMARK    2  A    between atoms: O_3  and  C_21
REMARK    3  A    between atoms: C_7  and  C_9
REMARK    4  A    between atoms: C_8  and  C_14
REMARK    5  A    between atoms: C_15  and  C_19
REMARK    6  A    between atoms: C_20  and  C_21
REMARK                            x       y       z     vdW  Elec       q    Type
REMARK                         _______ _______ _______ _____ _____    ______ ____
ROOT
ATOM      1  S   UNL     1     -23.280   9.510 -60.009  0.00  0.00    +0.000 S 
ATOM      2  N   UNL     1     -21.444   9.256 -58.225  0.00  0.00    +0.000 N 
ATOM      3  N   UNL     1     -23.384   8.549 -57.379  0.00  0.00    +0.000 NA
ATOM      4  C   UNL     1     -22.374   8.443 -56.432  0.00  0.00    +0.000 A 
ATOM      5  C   UNL     1     -21.143   8.888 -56.931  0.00  0.00    +0.000 A 
ATOM      6  C   UNL     1     -22.780   9.068 -58.406  0.00  0.00    +0.000 A 
ATOM      7  C   UNL     1     -20.772   9.705 -59.345  0.00  0.00    +0.000 A 
ATOM      8  C   UNL     1     -21.600   9.916 -60.381  0.00  0.00    +0.000 A 
ENDROOT
BRANCH   4   9
ATOM      9  C   UNL     1     -22.660   7.910 -55.104  0.00  0.00    +0.000 A 
ATOM     10  C   UNL     1     -23.489   6.784 -54.989  0.00  0.00    +0.000 A 
ATOM     11  C   UNL     1     -22.186   8.513 -53.936  0.00  0.00    +0.000 A 
ATOM     12  C   UNL     1     -23.332   6.857 -52.571  0.00  0.00    +0.000 A 
ATOM     13  C   UNL     1     -23.821   6.261 -53.735  0.00  0.00    +0.000 A 
ATOM     14  C   UNL     1     -22.512   7.985 -52.679  0.00  0.00    +0.000 A 
ATOM     15  C   UNL     1     -23.699   6.326 -51.216  0.00  0.00    +0.000 C 
ENDBRANCH   4   9
BRANCH   5  17
ATOM     16  N   UNL     1     -18.987   7.909 -56.261  0.00  0.00    +0.000 NA
ATOM     17  C   UNL     1     -19.839   8.893 -56.323  0.00  0.00    +0.000 C 
BRANCH  16  18
ATOM     18  O   UNL     1     -19.407   6.819 -57.034  0.00  0.00    +0.000 OA
BRANCH  18  19
ATOM     19  C   UNL     1     -19.712   5.696 -56.205  0.00  0.00    +0.000 C 
BRANCH  19  21
ATOM     20 CL   UNL     1     -24.322   2.743 -58.725  0.00  0.00    +0.000 Cl
ATOM     21  C   UNL     1     -20.889   4.999 -56.842  0.00  0.00    +0.000 A 
ATOM     22  C   UNL     1     -21.398   5.399 -58.085  0.00  0.00    +0.000 A 
ATOM     23  C   UNL     1     -21.473   3.904 -56.185  0.00  0.00    +0.000 A 
ATOM     24  C   UNL     1     -22.464   4.703 -58.664  0.00  0.00    +0.000 A 
ATOM     25  C   UNL     1     -22.531   3.207 -56.764  0.00  0.00    +0.000 A 
ATOM     26  C   UNL     1     -23.023   3.609 -58.003  0.00  0.00    +0.000 A 
ENDBRANCH  19  21
ENDBRANCH  18  19
ENDBRANCH  16  18
ENDBRANCH   5  17
TORSDOF 5
ENDMDL
MODEL 3
REMARK VINA RESULT:      -5.3     17.790     19.534
REMARK  Name = 4314289
REMARK  6 active torsions:
REMARK  status: ('A' for Active; 'I' for Inactive)
REMARK    1  A    between atoms: O_3  and  N_6
REMARK    2  A    between atoms: O_3  and  C_21
REMARK    3  A    between atoms: C_7  and  C_9
REMARK    4  A    between atoms: C_8  and  C_14
REMARK    5  A    between atoms: C_15  and  C_19
REMARK    6  A    between atoms: C_20  and  C_21
REMARK                            x       y       z     vdW  Elec       q    Type
REMARK                         _______ _______ _______ _____ _____    ______ ____
ROOT
ATOM      1  S   UNL     1      -5.482  -6.740 -50.363  0.00  0.00    +0.000 S 
ATOM      2  N   UNL     1      -6.799  -4.544 -50.605  0.00  0.00    +0.000 N 
ATOM      3  N   UNL     1      -5.808  -5.016 -52.548  0.00  0.00    +0.000 NA
ATOM      4  C   UNL     1      -6.513  -3.823 -52.640  0.00  0.00    +0.000 A 
ATOM      5  C   UNL     1      -7.140  -3.494 -51.431  0.00  0.00    +0.000 A 
ATOM      6  C   UNL     1      -5.987  -5.376 -51.312  0.00  0.00    +0.000 A 
ATOM      7  C   UNL     1      -7.084  -4.973 -49.323  0.00  0.00    +0.000 A 
ATOM      8  C   UNL     1      -6.446  -6.116 -49.020  0.00  0.00    +0.000 A 
ENDROOT
BRANCH   4   9
ATOM      9  C   UNL     1      -6.542  -3.078 -53.894  0.00  0.00    +0.000 A 
ATOM     10  C   UNL     1      -5.561  -3.338 -54.861  0.00  0.00    +0.000 A 
ATOM     11  C   UNL     1      -7.479  -2.071 -54.147  0.00  0.00    +0.000 A 
ATOM     12  C   UNL     1      -6.474  -1.629 -56.318  0.00  0.00    +0.000 A 
ATOM     13  C   UNL     1      -5.527  -2.622 -56.063  0.00  0.00    +0.000 A 
ATOM     14  C   UNL     1      -7.451  -1.359 -55.353  0.00  0.00    +0.000 A 
ATOM     15  C   UNL     1      -6.438  -0.833 -57.589  0.00  0.00    +0.000 C 
ENDBRANCH   4   9
BRANCH   5  17
ATOM     16  N   UNL     1      -7.674  -1.205 -50.702  0.00  0.00    +0.000 NA
ATOM     17  C   UNL     1      -8.012  -2.398 -51.104  0.00  0.00    +0.000 C 
BRANCH  16  18
ATOM     18  O   UNL     1      -6.289  -1.012 -50.781  0.00  0.00    +0.000 OA
BRANCH  18  19
ATOM     19  C   UNL     1      -5.980   0.367 -50.988  0.00  0.00    +0.000 C 
BRANCH  19  21
ATOM     20 CL   UNL     1      -3.370   0.798 -56.404  0.00  0.00    +0.000 Cl
ATOM     21  C   UNL     1      -5.369   0.470 -52.364  0.00  0.00    +0.000 A 
ATOM     22  C   UNL     1      -5.847   1.383 -53.315  0.00  0.00    +0.000 A 
ATOM     23  C   UNL     1      -4.279  -0.351 -52.693  0.00  0.00    +0.000 A 
ATOM     24  C   UNL     1      -5.230   1.479 -54.567  0.00  0.00    +0.000 A 
ATOM     25  C   UNL     1      -3.661  -0.251 -53.937  0.00  0.00    +0.000 A 
ATOM     26  C   UNL     1      -4.139   0.665 -54.870  0.00  0.00    +0.000 A 
ENDBRANCH  19  21
ENDBRANCH  18  19
ENDBRANCH  16  18
ENDBRANCH   5  17
TORSDOF 5
ENDMDL
MODEL 4
REMARK VINA RESULT:      -5.1      2.602      4.009
REMARK  Name = 4314289
REMARK  6 active torsions:
REMARK  status: ('A' for Active; 'I' for Inactive)
REMARK    1  A    between atoms: O_3  and  N_6
REMARK    2  A    between atoms: O_3  and  C_21
REMARK    3  A    between atoms: C_7  and  C_9
REMARK    4  A    between atoms: C_8  and  C_14
REMARK    5  A    between atoms: C_15  and  C_19
REMARK    6  A    between atoms: C_20  and  C_21
REMARK                            x       y       z     vdW  Elec       q    Type
REMARK                         _______ _______ _______ _____ _____    ______ ____
ROOT
ATOM      1  S   UNL     1     -26.285   2.266 -54.700  0.00  0.00    +0.000 S 
ATOM      2  N   UNL     1     -24.713   2.738 -56.681  0.00  0.00    +0.000 N 
ATOM      3  N   UNL     1     -24.080   3.979 -54.938  0.00  0.00    +0.000 NA
ATOM      4  C   UNL     1     -23.261   4.226 -56.032  0.00  0.00    +0.000 A 
ATOM      5  C   UNL     1     -23.640   3.467 -57.148  0.00  0.00    +0.000 A 
ATOM      6  C   UNL     1     -24.939   3.117 -55.394  0.00  0.00    +0.000 A 
ATOM      7  C   UNL     1     -25.553   1.743 -57.141  0.00  0.00    +0.000 A 
ATOM      8  C   UNL     1     -26.468   1.389 -56.223  0.00  0.00    +0.000 A 
ENDROOT
BRANCH   4   9
ATOM      9  C   UNL     1     -22.159   5.176 -55.930  0.00  0.00    +0.000 A 
ATOM     10  C   UNL     1     -22.339   6.347 -55.180  0.00  0.00    +0.000 A 
ATOM     11  C   UNL     1     -20.945   4.991 -56.599  0.00  0.00    +0.000 A 
ATOM     12  C   UNL     1     -20.107   7.108 -55.742  0.00  0.00    +0.000 A 
ATOM     13  C   UNL     1     -21.323   7.304 -55.085  0.00  0.00    +0.000 A 
ATOM     14  C   UNL     1     -19.924   5.945 -56.498  0.00  0.00    +0.000 A 
ATOM     15  C   UNL     1     -19.015   8.135 -55.672  0.00  0.00    +0.000 C 
ENDBRANCH   4   9
BRANCH   5  17
ATOM     16  N   UNL     1     -23.220   4.145 -59.475  0.00  0.00    +0.000 NA
ATOM     17  C   UNL     1     -23.037   3.362 -58.450  0.00  0.00    +0.000 C 
BRANCH  16  18
ATOM     18  O   UNL     1     -23.975   5.272 -59.131  0.00  0.00    +0.000 OA
BRANCH  18  19
ATOM     19  C   UNL     1     -23.698   6.359 -60.016  0.00  0.00    +0.000 C 
BRANCH  19  21
ATOM     20 CL   UNL     1     -21.646  10.823 -56.524  0.00  0.00    +0.000 Cl
ATOM     21  C   UNL     1     -23.222   7.503 -59.155  0.00  0.00    +0.000 A 
ATOM     22  C   UNL     1     -24.063   8.120 -58.218  0.00  0.00    +0.000 A 
ATOM     23  C   UNL     1     -21.895   7.945 -59.277  0.00  0.00    +0.000 A 
ATOM     24  C   UNL     1     -23.575   9.151 -57.409  0.00  0.00    +0.000 A 
ATOM     25  C   UNL     1     -21.407   8.968 -58.467  0.00  0.00    +0.000 A 
ATOM     26  C   UNL     1     -22.250   9.567 -57.534  0.00  0.00    +0.000 A 
ENDBRANCH  19  21
ENDBRANCH  18  19
ENDBRANCH  16  18
ENDBRANCH   5  17
TORSDOF 5
ENDMDL
MODEL 5
REMARK VINA RESULT:      -5.0     23.213     24.776
REMARK  Name = 4314289
REMARK  6 active torsions:
REMARK  status: ('A' for Active; 'I' for Inactive)
REMARK    1  A    between atoms: O_3  and  N_6
REMARK    2  A    between atoms: O_3  and  C_21
REMARK    3  A    between atoms: C_7  and  C_9
REMARK    4  A    between atoms: C_8  and  C_14
REMARK    5  A    between atoms: C_15  and  C_19
REMARK    6  A    between atoms: C_20  and  C_21
REMARK                            x       y       z     vdW  Elec       q    Type
REMARK                         _______ _______ _______ _____ _____    ______ ____
ROOT
ATOM      1  S   UNL     1     -14.712  -0.576 -33.626  0.00  0.00    +0.000 S 
ATOM      2  N   UNL     1     -12.501   0.701 -33.940  0.00  0.00    +0.000 N 
ATOM      3  N   UNL     1     -14.051   2.109 -33.170  0.00  0.00    +0.000 NA
ATOM      4  C   UNL     1     -12.849   2.774 -33.370  0.00  0.00    +0.000 A 
ATOM      5  C   UNL     1     -11.855   1.916 -33.863  0.00  0.00    +0.000 A 
ATOM      6  C   UNL     1     -13.792   0.896 -33.558  0.00  0.00    +0.000 A 
ATOM      7  C   UNL     1     -12.186  -0.608 -34.251  0.00  0.00    +0.000 A 
ATOM      8  C   UNL     1     -13.253  -1.419 -34.160  0.00  0.00    +0.000 A 
ENDROOT
BRANCH   4   9
ATOM      9  C   UNL     1     -12.731   4.195 -33.065  0.00  0.00    +0.000 A 
ATOM     10  C   UNL     1     -11.721   4.621 -32.191  0.00  0.00    +0.000 A 
ATOM     11  C   UNL     1     -13.625   5.146 -33.566  0.00  0.00    +0.000 A 
ATOM     12  C   UNL     1     -12.478   6.917 -32.355  0.00  0.00    +0.000 A 
ATOM     13  C   UNL     1     -11.594   5.969 -31.840  0.00  0.00    +0.000 A 
ATOM     14  C   UNL     1     -13.494   6.498 -33.222  0.00  0.00    +0.000 A 
ATOM     15  C   UNL     1     -12.374   8.364 -31.970  0.00  0.00    +0.000 C 
ENDBRANCH   4   9
BRANCH   5  17
ATOM     16  N   UNL     1      -9.966   2.843 -35.139  0.00  0.00    +0.000 NA
ATOM     17  C   UNL     1     -10.467   2.166 -34.144  0.00  0.00    +0.000 C 
BRANCH  16  18
ATOM     18  O   UNL     1     -10.968   3.492 -35.871  0.00  0.00    +0.000 OA
BRANCH  18  19
ATOM     19  C   UNL     1     -10.397   4.390 -36.825  0.00  0.00    +0.000 C 
BRANCH  19  21
ATOM     20 CL   UNL     1     -10.925   9.995 -34.675  0.00  0.00    +0.000 Cl
ATOM     21  C   UNL     1     -10.524   5.776 -36.242  0.00  0.00    +0.000 A 
ATOM     22  C   UNL     1      -9.558   6.299 -35.371  0.00  0.00    +0.000 A 
ATOM     23  C   UNL     1     -11.622   6.572 -36.602  0.00  0.00    +0.000 A 
ATOM     24  C   UNL     1      -9.687   7.603 -34.883  0.00  0.00    +0.000 A 
ATOM     25  C   UNL     1     -11.748   7.873 -36.120  0.00  0.00    +0.000 A 
ATOM     26  C   UNL     1     -10.778   8.385 -35.262  0.00  0.00    +0.000 A 
ENDBRANCH  19  21
ENDBRANCH  18  19
ENDBRANCH  16  18
ENDBRANCH   5  17
TORSDOF 5
ENDMDL
MODEL 6
REMARK VINA RESULT:      -4.9     11.402     13.160
REMARK  Name = 4314289
REMARK  6 active torsions:
REMARK  status: ('A' for Active; 'I' for Inactive)
REMARK    1  A    between atoms: O_3  and  N_6
REMARK    2  A    between atoms: O_3  and  C_21
REMARK    3  A    between atoms: C_7  and  C_9
REMARK    4  A    between atoms: C_8  and  C_14
REMARK    5  A    between atoms: C_15  and  C_19
REMARK    6  A    between atoms: C_20  and  C_21
REMARK                            x       y       z     vdW  Elec       q    Type
REMARK                         _______ _______ _______ _____ _____    ______ ____
ROOT
ATOM      1  S   UNL     1      -9.782  11.905 -64.069  0.00  0.00    +0.000 S 
ATOM      2  N   UNL     1     -12.052  11.664 -62.883  0.00  0.00    +0.000 N 
ATOM      3  N   UNL     1     -10.433  11.728 -61.349  0.00  0.00    +0.000 NA
ATOM      4  C   UNL     1     -11.673  11.578 -60.741  0.00  0.00    +0.000 A 
ATOM      5  C   UNL     1     -12.711  11.525 -61.680  0.00  0.00    +0.000 A 
ATOM      6  C   UNL     1     -10.720  11.738 -62.616  0.00  0.00    +0.000 A 
ATOM      7  C   UNL     1     -12.376  11.781 -64.221  0.00  0.00    +0.000 A 
ATOM      8  C   UNL     1     -11.285  11.894 -64.997  0.00  0.00    +0.000 A 
ENDROOT
BRANCH   4   9
ATOM      9  C   UNL     1     -11.778  11.503 -59.287  0.00  0.00    +0.000 A 
ATOM     10  C   UNL     1     -10.690  11.918 -58.506  0.00  0.00    +0.000 A 
ATOM     11  C   UNL     1     -12.902  10.978 -58.643  0.00  0.00    +0.000 A 
ATOM     12  C   UNL     1     -11.861  11.319 -56.470  0.00  0.00    +0.000 A 
ATOM     13  C   UNL     1     -10.731  11.829 -57.111  0.00  0.00    +0.000 A 
ATOM     14  C   UNL     1     -12.947  10.895 -57.245  0.00  0.00    +0.000 A 
ATOM     15  C   UNL     1     -11.914  11.191 -54.976  0.00  0.00    +0.000 C 
ENDBRANCH   4   9
BRANCH   5  17
ATOM     16  N   UNL     1     -14.937  12.388 -61.088  0.00  0.00    +0.000 NA
ATOM     17  C   UNL     1     -14.134  11.444 -61.490  0.00  0.00    +0.000 C 
BRANCH  16  18
ATOM     18  O   UNL     1     -14.279  13.621 -61.009  0.00  0.00    +0.000 OA
BRANCH  18  19
ATOM     19  C   UNL     1     -14.767  14.388 -59.907  0.00  0.00    +0.000 C 
BRANCH  19  21
ATOM     20 CL   UNL     1     -10.095  15.843 -56.388  0.00  0.00    +0.000 Cl
ATOM     21  C   UNL     1     -13.569  14.723 -59.052  0.00  0.00    +0.000 A 
ATOM     22  C   UNL     1     -12.363  15.164 -59.614  0.00  0.00    +0.000 A 
ATOM     23  C   UNL     1     -13.673  14.615 -57.656  0.00  0.00    +0.000 A 
ATOM     24  C   UNL     1     -11.287  15.505 -58.788  0.00  0.00    +0.000 A 
ATOM     25  C   UNL     1     -12.603  14.960 -56.833  0.00  0.00    +0.000 A 
ATOM     26  C   UNL     1     -11.413  15.406 -57.403  0.00  0.00    +0.000 A 
ENDBRANCH  19  21
ENDBRANCH  18  19
ENDBRANCH  16  18
ENDBRANCH   5  17
TORSDOF 5
ENDMDL
MODEL 7
REMARK VINA RESULT:      -4.9      1.995      4.025
REMARK  Name = 4314289
REMARK  6 active torsions:
REMARK  status: ('A' for Active; 'I' for Inactive)
REMARK    1  A    between atoms: O_3  and  N_6
REMARK    2  A    between atoms: O_3  and  C_21
REMARK    3  A    between atoms: C_7  and  C_9
REMARK    4  A    between atoms: C_8  and  C_14
REMARK    5  A    between atoms: C_15  and  C_19
REMARK    6  A    between atoms: C_20  and  C_21
REMARK                            x       y       z     vdW  Elec       q    Type
REMARK                         _______ _______ _______ _____ _____    ______ ____
ROOT
ATOM      1  S   UNL     1     -25.263   3.490 -61.210  0.00  0.00    +0.000 S 
ATOM      2  N   UNL     1     -24.208   3.007 -58.913  0.00  0.00    +0.000 N 
ATOM      3  N   UNL     1     -23.267   4.838 -59.776  0.00  0.00    +0.000 NA
ATOM      4  C   UNL     1     -22.704   4.538 -58.542  0.00  0.00    +0.000 A 
ATOM      5  C   UNL     1     -23.269   3.386 -57.978  0.00  0.00    +0.000 A 
ATOM      6  C   UNL     1     -24.124   3.878 -59.956  0.00  0.00    +0.000 A 
ATOM      7  C   UNL     1     -25.191   2.046 -59.047  0.00  0.00    +0.000 A 
ATOM      8  C   UNL     1     -25.836   2.141 -60.222  0.00  0.00    +0.000 A 
ENDROOT
BRANCH   4   9
ATOM      9  C   UNL     1     -21.660   5.388 -57.981  0.00  0.00    +0.000 A 
ATOM     10  C   UNL     1     -21.037   4.999 -56.786  0.00  0.00    +0.000 A 
ATOM     11  C   UNL     1     -21.295   6.608 -58.558  0.00  0.00    +0.000 A 
ATOM     12  C   UNL     1     -19.684   7.010 -56.780  0.00  0.00    +0.000 A 
ATOM     13  C   UNL     1     -20.057   5.801 -56.192  0.00  0.00    +0.000 A 
ATOM     14  C   UNL     1     -20.308   7.408 -57.967  0.00  0.00    +0.000 A 
ATOM     15  C   UNL     1     -18.654   7.896 -56.143  0.00  0.00    +0.000 C 
ENDBRANCH   4   9
BRANCH   5  17
ATOM     16  N   UNL     1     -23.543   3.099 -55.550  0.00  0.00    +0.000 NA
ATOM     17  C   UNL     1     -23.035   2.764 -56.702  0.00  0.00    +0.000 C 
BRANCH  16  18
ATOM     18  O   UNL     1     -24.534   4.078 -55.692  0.00  0.00    +0.000 OA
BRANCH  18  19
ATOM     19  C   UNL     1     -24.631   4.877 -54.512  0.00  0.00    +0.000 C 
BRANCH  19  21
ATOM     20 CL   UNL     1     -21.975  10.089 -55.964  0.00  0.00    +0.000 Cl
ATOM     21  C   UNL     1     -23.976   6.198 -54.831  0.00  0.00    +0.000 A 
ATOM     22  C   UNL     1     -22.971   6.738 -54.015  0.00  0.00    +0.000 A 
ATOM     23  C   UNL     1     -24.363   6.892 -55.988  0.00  0.00    +0.000 A 
ATOM     24  C   UNL     1     -22.357   7.945 -54.365  0.00  0.00    +0.000 A 
ATOM     25  C   UNL     1     -23.747   8.092 -56.339  0.00  0.00    +0.000 A 
ATOM     26  C   UNL     1     -22.745   8.613 -55.526  0.00  0.00    +0.000 A 
ENDBRANCH  19  21
ENDBRANCH  18  19
ENDBRANCH  16  18
ENDBRANCH   5  17
TORSDOF 5
ENDMDL
MODEL 8
REMARK VINA RESULT:      -4.9     22.715     24.753
REMARK  Name = 4314289
REMARK  6 active torsions:
REMARK  status: ('A' for Active; 'I' for Inactive)
REMARK    1  A    between atoms: O_3  and  N_6
REMARK    2  A    between atoms: O_3  and  C_21
REMARK    3  A    between atoms: C_7  and  C_9
REMARK    4  A    between atoms: C_8  and  C_14
REMARK    5  A    between atoms: C_15  and  C_19
REMARK    6  A    between atoms: C_20  and  C_21
REMARK                            x       y       z     vdW  Elec       q    Type
REMARK                         _______ _______ _______ _____ _____    ______ ____
ROOT
ATOM      1  S   UNL     1      -6.477  18.133 -40.700  0.00  0.00    +0.000 S 
ATOM      2  N   UNL     1      -6.266  16.427 -42.613  0.00  0.00    +0.000 N 
ATOM      3  N   UNL     1      -5.001  15.759 -40.900  0.00  0.00    +0.000 NA
ATOM      4  C   UNL     1      -4.894  14.868 -41.960  0.00  0.00    +0.000 A 
ATOM      5  C   UNL     1      -5.671  15.265 -43.056  0.00  0.00    +0.000 A 
ATOM      6  C   UNL     1      -5.798  16.677 -41.360  0.00  0.00    +0.000 A 
ATOM      7  C   UNL     1      -7.198  17.339 -43.070  0.00  0.00    +0.000 A 
ATOM      8  C   UNL     1      -7.412  18.328 -42.186  0.00  0.00    +0.000 A 
ENDROOT
BRANCH   4   9
ATOM      9  C   UNL     1      -4.051  13.682 -41.844  0.00  0.00    +0.000 A 
ATOM     10  C   UNL     1      -4.174  12.666 -42.803  0.00  0.00    +0.000 A 
ATOM     11  C   UNL     1      -3.165  13.493 -40.780  0.00  0.00    +0.000 A 
ATOM     12  C   UNL     1      -2.519  11.317 -41.656  0.00  0.00    +0.000 A 
ATOM     13  C   UNL     1      -3.415  11.495 -42.711  0.00  0.00    +0.000 A 
ATOM     14  C   UNL     1      -2.398  12.324 -40.691  0.00  0.00    +0.000 A 
ATOM     15  C   UNL     1      -1.714  10.057 -41.527  0.00  0.00    +0.000 C 
ENDBRANCH   4   9
BRANCH   5  17
ATOM     16  N   UNL     1      -5.284  14.819 -45.444  0.00  0.00    +0.000 NA
ATOM     17  C   UNL     1      -5.903  14.613 -44.317  0.00  0.00    +0.000 C 
BRANCH  16  18
ATOM     18  O   UNL     1      -4.184  15.669 -45.276  0.00  0.00    +0.000 OA
BRANCH  18  19
ATOM     19  C   UNL     1      -3.108  15.284 -46.134  0.00  0.00    +0.000 C 
BRANCH  19  21
ATOM     20 CL   UNL     1       0.966  12.462 -42.705  0.00  0.00    +0.000 Cl
ATOM     21  C   UNL     1      -2.117  14.539 -45.275  0.00  0.00    +0.000 A 
ATOM     22  C   UNL     1      -1.649  13.264 -45.625  0.00  0.00    +0.000 A 
ATOM     23  C   UNL     1      -1.630  15.147 -44.107  0.00  0.00    +0.000 A 
ATOM     24  C   UNL     1      -0.699  12.621 -44.826  0.00  0.00    +0.000 A 
ATOM     25  C   UNL     1      -0.679  14.509 -43.314  0.00  0.00    +0.000 A 
ATOM     26  C   UNL     1      -0.216  13.247 -43.677  0.00  0.00    +0.000 A 
ENDBRANCH  19  21
ENDBRANCH  18  19
ENDBRANCH  16  18
ENDBRANCH   5  17
TORSDOF 5
ENDMDL
MODEL 9
REMARK VINA RESULT:      -4.8     14.446     17.017
REMARK  Name = 4314289
REMARK  6 active torsions:
REMARK  status: ('A' for Active; 'I' for Inactive)
REMARK    1  A    between atoms: O_3  and  N_6
REMARK    2  A    between atoms: O_3  and  C_21
REMARK    3  A    between atoms: C_7  and  C_9
REMARK    4  A    between atoms: C_8  and  C_14
REMARK    5  A    between atoms: C_15  and  C_19
REMARK    6  A    between atoms: C_20  and  C_21
REMARK                            x       y       z     vdW  Elec       q    Type
REMARK                         _______ _______ _______ _____ _____    ______ ____
ROOT
ATOM      1  S   UNL     1     -15.728  15.837 -51.382  0.00  0.00    +0.000 S 
ATOM      2  N   UNL     1     -16.293  15.470 -48.900  0.00  0.00    +0.000 N 
ATOM      3  N   UNL     1     -14.217  16.272 -49.063  0.00  0.00    +0.000 NA
ATOM      4  C   UNL     1     -14.545  16.043 -47.733  0.00  0.00    +0.000 A 
ATOM      5  C   UNL     1     -15.842  15.530 -47.598  0.00  0.00    +0.000 A 
ATOM      6  C   UNL     1     -15.276  15.881 -49.706  0.00  0.00    +0.000 A 
ATOM      7  C   UNL     1     -17.461  15.154 -49.566  0.00  0.00    +0.000 A 
ATOM      8  C   UNL     1     -17.330  15.272 -50.898  0.00  0.00    +0.000 A 
ENDROOT
BRANCH   4   9
ATOM      9  C   UNL     1     -13.588  16.343 -46.674  0.00  0.00    +0.000 A 
ATOM     10  C   UNL     1     -12.474  17.141 -46.971  0.00  0.00    +0.000 A 
ATOM     11  C   UNL     1     -13.707  15.817 -45.384  0.00  0.00    +0.000 A 
ATOM     12  C   UNL     1     -11.642  16.909 -44.707  0.00  0.00    +0.000 A 
ATOM     13  C   UNL     1     -11.511  17.423 -45.997  0.00  0.00    +0.000 A 
ATOM     14  C   UNL     1     -12.747  16.105 -44.405  0.00  0.00    +0.000 A 
ATOM     15  C   UNL     1     -10.605  17.180 -43.656  0.00  0.00    +0.000 C 
ENDBRANCH   4   9
BRANCH   5  17
ATOM     16  N   UNL     1     -17.102  16.051 -45.550  0.00  0.00    +0.000 NA
ATOM     17  C   UNL     1     -16.601  15.217 -46.417  0.00  0.00    +0.000 C 
BRANCH  16  18
ATOM     18  O   UNL     1     -16.975  17.377 -45.983  0.00  0.00    +0.000 OA
BRANCH  18  19
ATOM     19  C   UNL     1     -17.196  18.287 -44.903  0.00  0.00    +0.000 C 
BRANCH  19  21
ATOM     20 CL   UNL     1     -11.774  20.659 -43.761  0.00  0.00    +0.000 Cl
ATOM     21  C   UNL     1     -15.856  18.902 -44.578  0.00  0.00    +0.000 A 
ATOM     22  C   UNL     1     -15.262  18.748 -43.317  0.00  0.00    +0.000 A 
ATOM     23  C   UNL     1     -15.176  19.624 -45.571  0.00  0.00    +0.000 A 
ATOM     24  C   UNL     1     -14.001  19.297 -43.066  0.00  0.00    +0.000 A 
ATOM     25  C   UNL     1     -13.918  20.167 -45.321  0.00  0.00    +0.000 A 
ATOM     26  C   UNL     1     -13.333  20.000 -44.068  0.00  0.00    +0.000 A 
ENDBRANCH  19  21
ENDBRANCH  18  19
ENDBRANCH  16  18
ENDBRANCH   5  17
TORSDOF 5
ENDMDL
MODEL 10
REMARK VINA RESULT:      -4.7     17.302     19.312
REMARK  Name = 4314289
REMARK  6 active torsions:
REMARK  status: ('A' for Active; 'I' for Inactive)
REMARK    1  A    between atoms: O_3  and  N_6
REMARK    2  A    between atoms: O_3  and  C_21
REMARK    3  A    between atoms: C_7  and  C_9
REMARK    4  A    between atoms: C_8  and  C_14
REMARK    5  A    between atoms: C_15  and  C_19
REMARK    6  A    between atoms: C_20  and  C_21
REMARK                            x       y       z     vdW  Elec       q    Type
REMARK                         _______ _______ _______ _____ _____    ______ ____
ROOT
ATOM      1  S   UNL     1      -3.672  -3.883 -54.956  0.00  0.00    +0.000 S 
ATOM      2  N   UNL     1      -5.813  -2.455 -54.978  0.00  0.00    +0.000 N 
ATOM      3  N   UNL     1      -4.043  -1.110 -54.781  0.00  0.00    +0.000 NA
ATOM      4  C   UNL     1      -5.218  -0.370 -54.776  0.00  0.00    +0.000 A 
ATOM      5  C   UNL     1      -6.350  -1.189 -54.889  0.00  0.00    +0.000 A 
ATOM      6  C   UNL     1      -4.461  -2.338 -54.868  0.00  0.00    +0.000 A 
ATOM      7  C   UNL     1      -6.261  -3.747 -55.179  0.00  0.00    +0.000 A 
ATOM      8  C   UNL     1      -5.256  -4.638 -55.172  0.00  0.00    +0.000 A 
ENDROOT
BRANCH   4   9
ATOM      9  C   UNL     1      -5.174   1.084 -54.669  0.00  0.00    +0.000 A 
ATOM     10  C   UNL     1      -4.534   1.820 -55.677  0.00  0.00    +0.000 A 
ATOM     11  C   UNL     1      -5.696   1.772 -53.570  0.00  0.00    +0.000 A 
ATOM     12  C   UNL     1      -4.971   3.897 -54.507  0.00  0.00    +0.000 A 
ATOM     13  C   UNL     1      -4.434   3.213 -55.598  0.00  0.00    +0.000 A 
ATOM     14  C   UNL     1      -5.604   3.168 -53.493  0.00  0.00    +0.000 A 
ATOM     15  C   UNL     1      -4.851   5.388 -54.392  0.00  0.00    +0.000 C 
ENDBRANCH   4   9
BRANCH   5  17
ATOM     16  N   UNL     1      -8.603  -0.719 -54.019  0.00  0.00    +0.000 NA
ATOM     17  C   UNL     1      -7.742  -0.842 -54.990  0.00  0.00    +0.000 C 
BRANCH  16  18
ATOM     18  O   UNL     1      -7.978  -0.795 -52.769  0.00  0.00    +0.000 OA
BRANCH  18  19
ATOM     19  C   UNL     1      -8.269  -2.040 -52.130  0.00  0.00    +0.000 C 
BRANCH  19  21
ATOM     20 CL   UNL     1      -2.903  -4.200 -50.435  0.00  0.00    +0.000 Cl
ATOM     21  C   UNL     1      -6.947  -2.608 -51.673  0.00  0.00    +0.000 A 
ATOM     22  C   UNL     1      -6.729  -3.991 -51.590  0.00  0.00    +0.000 A 
ATOM     23  C   UNL     1      -5.901  -1.730 -51.347  0.00  0.00    +0.000 A 
ATOM     24  C   UNL     1      -5.478  -4.481 -51.202  0.00  0.00    +0.000 A 
ATOM     25  C   UNL     1      -4.654  -2.219 -50.965  0.00  0.00    +0.000 A 
ATOM     26  C   UNL     1      -4.447  -3.594 -50.895  0.00  0.00    +0.000 A 
ENDBRANCH  19  21
ENDBRANCH  18  19
ENDBRANCH  16  18
ENDBRANCH   5  17
TORSDOF 5
ENDMDL
