MODEL 1
REMARK VINA RESULT:      -5.7      0.000      0.000
REMARK  Name = 5091255
REMARK  6 active torsions:
REMARK  status: ('A' for Active; 'I' for Inactive)
REMARK    1  A    between atoms: O_3  and  N_8
REMARK    2  A    between atoms: O_3  and  C_22
REMARK    3  A    between atoms: N_9  and  C_26
REMARK    4  A    between atoms: C_10  and  C_15
REMARK    5  A    between atoms: C_11  and  C_13
REMARK    6  A    between atoms: C_19  and  C_22
REMARK                            x       y       z     vdW  Elec       q    Type
REMARK                         _______ _______ _______ _____ _____    ______ ____
ROOT
ATOM      1  S   UNL     1     -15.171   7.701 -35.598  0.00  0.00    +0.000 S 
ATOM      2  N   UNL     1     -13.407   6.533 -34.123  0.00  0.00    +0.000 N 
ATOM      3  N   UNL     1     -12.511   7.011 -36.118  0.00  0.00    +0.000 NA
ATOM      4  C   UNL     1     -12.099   6.108 -34.030  0.00  0.00    +0.000 A 
ATOM      5  C   UNL     1     -11.583   6.386 -35.305  0.00  0.00    +0.000 A 
ATOM      6  C   UNL     1     -13.573   7.060 -35.371  0.00  0.00    +0.000 A 
ATOM      7  C   UNL     1     -14.527   6.623 -33.318  0.00  0.00    +0.000 A 
ATOM      8  C   UNL     1     -15.563   7.202 -33.951  0.00  0.00    +0.000 A 
ENDROOT
BRANCH   5  10
ATOM      9 CL   UNL     1      -5.995   5.370 -37.186  0.00  0.00    +0.000 Cl
ATOM     10  C   UNL     1     -10.230   6.121 -35.778  0.00  0.00    +0.000 A 
ATOM     11  C   UNL     1      -9.247   7.115 -35.645  0.00  0.00    +0.000 A 
ATOM     12  C   UNL     1      -9.884   4.909 -36.395  0.00  0.00    +0.000 A 
ATOM     13  C   UNL     1      -7.938   6.886 -36.084  0.00  0.00    +0.000 A 
ATOM     14  C   UNL     1      -8.574   4.675 -36.820  0.00  0.00    +0.000 A 
ATOM     15  C   UNL     1      -7.605   5.662 -36.660  0.00  0.00    +0.000 A 
ENDBRANCH   5  10
BRANCH   4  17
ATOM     16  N   UNL     1     -10.873   6.300 -31.876  0.00  0.00    +0.000 NA
ATOM     17  C   UNL     1     -11.389   5.641 -32.870  0.00  0.00    +0.000 C 
BRANCH  16  18
ATOM     18  O   UNL     1     -11.138   7.672 -31.911  0.00  0.00    +0.000 OA
BRANCH  18  19
ATOM     19  C   UNL     1      -9.913   8.388 -31.711  0.00  0.00    +0.000 C 
BRANCH  19  20
ATOM     20  C   UNL     1      -9.935   9.669 -32.503  0.00  0.00    +0.000 A 
ATOM     21  C   UNL     1      -9.212  10.789 -32.069  0.00  0.00    +0.000 A 
ATOM     22  C   UNL     1     -10.723   9.765 -33.662  0.00  0.00    +0.000 A 
ATOM     23  C   UNL     1     -10.049  12.068 -33.941  0.00  0.00    +0.000 A 
ATOM     24  C   UNL     1      -9.264  11.988 -32.783  0.00  0.00    +0.000 A 
ATOM     25  C   UNL     1     -10.779  10.959 -34.385  0.00  0.00    +0.000 A 
BRANCH  23  28
ATOM     26  O   UNL     1     -11.245  13.774 -34.961  0.00  0.00    +0.000 OA
ATOM     27  O   UNL     1      -9.052  13.870 -35.008  0.00  0.00    +0.000 OA
ATOM     28  N   UNL     1     -10.120  13.327 -34.690  0.00  0.00    +0.000 N 
ENDBRANCH  23  28
ENDBRANCH  19  20
ENDBRANCH  18  19
ENDBRANCH  16  18
ENDBRANCH   4  17
TORSDOF 6
ENDMDL
MODEL 2
REMARK VINA RESULT:      -5.5      3.121      4.117
REMARK  Name = 5091255
REMARK  6 active torsions:
REMARK  status: ('A' for Active; 'I' for Inactive)
REMARK    1  A    between atoms: O_3  and  N_8
REMARK    2  A    between atoms: O_3  and  C_22
REMARK    3  A    between atoms: N_9  and  C_26
REMARK    4  A    between atoms: C_10  and  C_15
REMARK    5  A    between atoms: C_11  and  C_13
REMARK    6  A    between atoms: C_19  and  C_22
REMARK                            x       y       z     vdW  Elec       q    Type
REMARK                         _______ _______ _______ _____ _____    ______ ____
ROOT
ATOM      1  S   UNL     1     -10.750   2.222 -32.166  0.00  0.00    +0.000 S 
ATOM      2  N   UNL     1     -10.987   3.470 -34.410  0.00  0.00    +0.000 N 
ATOM      3  N   UNL     1      -8.835   3.451 -33.792  0.00  0.00    +0.000 NA
ATOM      4  C   UNL     1     -10.322   4.108 -35.435  0.00  0.00    +0.000 A 
ATOM      5  C   UNL     1      -8.989   4.112 -34.996  0.00  0.00    +0.000 A 
ATOM      6  C   UNL     1     -10.050   3.103 -33.488  0.00  0.00    +0.000 A 
ATOM      7  C   UNL     1     -12.272   3.064 -34.102  0.00  0.00    +0.000 A 
ATOM      8  C   UNL     1     -12.329   2.402 -32.933  0.00  0.00    +0.000 A 
ENDROOT
BRANCH   5  10
ATOM      9 CL   UNL     1      -4.249   6.365 -37.870  0.00  0.00    +0.000 Cl
ATOM     10  C   UNL     1      -7.842   4.683 -35.691  0.00  0.00    +0.000 A 
ATOM     11  C   UNL     1      -6.710   3.885 -35.923  0.00  0.00    +0.000 A 
ATOM     12  C   UNL     1      -7.819   6.023 -36.108  0.00  0.00    +0.000 A 
ATOM     13  C   UNL     1      -5.596   4.405 -36.592  0.00  0.00    +0.000 A 
ATOM     14  C   UNL     1      -6.713   6.538 -36.789  0.00  0.00    +0.000 A 
ATOM     15  C   UNL     1      -5.608   5.727 -37.032  0.00  0.00    +0.000 A 
ENDBRANCH   5  10
BRANCH   4  17
ATOM     16  N   UNL     1     -11.550   5.562 -37.035  0.00  0.00    +0.000 NA
ATOM     17  C   UNL     1     -10.835   4.527 -36.712  0.00  0.00    +0.000 C 
BRANCH  16  18
ATOM     18  O   UNL     1     -11.772   6.446 -35.975  0.00  0.00    +0.000 OA
BRANCH  18  19
ATOM     19  C   UNL     1     -11.173   7.709 -36.289  0.00  0.00    +0.000 C 
BRANCH  19  20
ATOM     20  C   UNL     1     -10.815   8.435 -35.018  0.00  0.00    +0.000 A 
ATOM     21  C   UNL     1     -11.578   9.526 -34.579  0.00  0.00    +0.000 A 
ATOM     22  C   UNL     1      -9.679   8.051 -34.287  0.00  0.00    +0.000 A 
ATOM     23  C   UNL     1     -10.090   9.823 -32.699  0.00  0.00    +0.000 A 
ATOM     24  C   UNL     1     -11.223  10.220 -33.421  0.00  0.00    +0.000 A 
ATOM     25  C   UNL     1      -9.316   8.738 -33.126  0.00  0.00    +0.000 A 
BRANCH  23  28
ATOM     26  O   UNL     1     -10.608  11.027 -30.784  0.00  0.00    +0.000 OA
ATOM     27  O   UNL     1      -8.492  10.661 -31.241  0.00  0.00    +0.000 OA
ATOM     28  N   UNL     1      -9.702  10.556 -31.489  0.00  0.00    +0.000 N 
ENDBRANCH  23  28
ENDBRANCH  19  20
ENDBRANCH  18  19
ENDBRANCH  16  18
ENDBRANCH   4  17
TORSDOF 6
ENDMDL
MODEL 3
REMARK VINA RESULT:      -5.4      2.834      3.360
REMARK  Name = 5091255
REMARK  6 active torsions:
REMARK  status: ('A' for Active; 'I' for Inactive)
REMARK    1  A    between atoms: O_3  and  N_8
REMARK    2  A    between atoms: O_3  and  C_22
REMARK    3  A    between atoms: N_9  and  C_26
REMARK    4  A    between atoms: C_10  and  C_15
REMARK    5  A    between atoms: C_11  and  C_13
REMARK    6  A    between atoms: C_19  and  C_22
REMARK                            x       y       z     vdW  Elec       q    Type
REMARK                         _______ _______ _______ _____ _____    ______ ____
ROOT
ATOM      1  S   UNL     1     -15.208   7.700 -35.453  0.00  0.00    +0.000 S 
ATOM      2  N   UNL     1     -13.598   6.083 -34.251  0.00  0.00    +0.000 N 
ATOM      3  N   UNL     1     -12.567   6.980 -36.025  0.00  0.00    +0.000 NA
ATOM      4  C   UNL     1     -12.324   5.559 -34.218  0.00  0.00    +0.000 A 
ATOM      5  C   UNL     1     -11.723   6.109 -35.360  0.00  0.00    +0.000 A 
ATOM      6  C   UNL     1     -13.665   6.915 -35.331  0.00  0.00    +0.000 A 
ATOM      7  C   UNL     1     -14.754   6.046 -33.494  0.00  0.00    +0.000 A 
ATOM      8  C   UNL     1     -15.718   6.835 -34.001  0.00  0.00    +0.000 A 
ENDROOT
BRANCH   5  10
ATOM      9 CL   UNL     1      -6.175   5.092 -37.356  0.00  0.00    +0.000 Cl
ATOM     10  C   UNL     1     -10.363   5.878 -35.831  0.00  0.00    +0.000 A 
ATOM     11  C   UNL     1     -10.063   4.686 -36.509  0.00  0.00    +0.000 A 
ATOM     12  C   UNL     1      -9.330   6.799 -35.597  0.00  0.00    +0.000 A 
ATOM     13  C   UNL     1      -8.767   4.439 -36.978  0.00  0.00    +0.000 A 
ATOM     14  C   UNL     1      -8.040   6.559 -36.077  0.00  0.00    +0.000 A 
ATOM     15  C   UNL     1      -7.764   5.383 -36.768  0.00  0.00    +0.000 A 
ENDBRANCH   5  10
BRANCH   4  17
ATOM     16  N   UNL     1     -10.952   5.126 -32.190  0.00  0.00    +0.000 NA
ATOM     17  C   UNL     1     -11.706   4.770 -33.186  0.00  0.00    +0.000 C 
BRANCH  16  18
ATOM     18  O   UNL     1     -10.799   6.510 -32.065  0.00  0.00    +0.000 OA
BRANCH  18  19
ATOM     19  C   UNL     1     -11.463   6.946 -30.873  0.00  0.00    +0.000 C 
BRANCH  19  20
ATOM     20  C   UNL     1     -12.545   7.934 -31.222  0.00  0.00    +0.000 A 
ATOM     21  C   UNL     1     -13.742   7.969 -30.493  0.00  0.00    +0.000 A 
ATOM     22  C   UNL     1     -12.379   8.799 -32.316  0.00  0.00    +0.000 A 
ATOM     23  C   UNL     1     -14.579   9.720 -31.932  0.00  0.00    +0.000 A 
ATOM     24  C   UNL     1     -14.759   8.859 -30.841  0.00  0.00    +0.000 A 
ATOM     25  C   UNL     1     -13.391   9.696 -32.670  0.00  0.00    +0.000 A 
BRANCH  23  28
ATOM     26  O   UNL     1     -15.701  11.741 -31.723  0.00  0.00    +0.000 OA
ATOM     27  O   UNL     1     -16.435  10.292 -33.201  0.00  0.00    +0.000 OA
ATOM     28  N   UNL     1     -15.648  10.650 -32.313  0.00  0.00    +0.000 N 
ENDBRANCH  23  28
ENDBRANCH  19  20
ENDBRANCH  18  19
ENDBRANCH  16  18
ENDBRANCH   4  17
TORSDOF 6
ENDMDL
MODEL 4
REMARK VINA RESULT:      -5.4     23.222     25.190
REMARK  Name = 5091255
REMARK  6 active torsions:
REMARK  status: ('A' for Active; 'I' for Inactive)
REMARK    1  A    between atoms: O_3  and  N_8
REMARK    2  A    between atoms: O_3  and  C_22
REMARK    3  A    between atoms: N_9  and  C_26
REMARK    4  A    between atoms: C_10  and  C_15
REMARK    5  A    between atoms: C_11  and  C_13
REMARK    6  A    between atoms: C_19  and  C_22
REMARK                            x       y       z     vdW  Elec       q    Type
REMARK                         _______ _______ _______ _____ _____    ______ ____
ROOT
ATOM      1  S   UNL     1     -26.184   6.773 -59.262  0.00  0.00    +0.000 S 
ATOM      2  N   UNL     1     -24.731   5.193 -57.832  0.00  0.00    +0.000 N 
ATOM      3  N   UNL     1     -25.031   7.123 -56.739  0.00  0.00    +0.000 NA
ATOM      4  C   UNL     1     -24.082   5.018 -56.630  0.00  0.00    +0.000 A 
ATOM      5  C   UNL     1     -24.257   6.255 -55.991  0.00  0.00    +0.000 A 
ATOM      6  C   UNL     1     -25.272   6.446 -57.821  0.00  0.00    +0.000 A 
ATOM      7  C   UNL     1     -25.022   4.461 -58.969  0.00  0.00    +0.000 A 
ATOM      8  C   UNL     1     -25.772   5.157 -59.842  0.00  0.00    +0.000 A 
ENDROOT
BRANCH   5  10
ATOM      9 CL   UNL     1     -22.234   7.756 -50.563  0.00  0.00    +0.000 Cl
ATOM     10  C   UNL     1     -23.754   6.640 -54.678  0.00  0.00    +0.000 A 
ATOM     11  C   UNL     1     -24.367   6.122 -53.526  0.00  0.00    +0.000 A 
ATOM     12  C   UNL     1     -22.690   7.544 -54.527  0.00  0.00    +0.000 A 
ATOM     13  C   UNL     1     -23.901   6.470 -52.252  0.00  0.00    +0.000 A 
ATOM     14  C   UNL     1     -22.216   7.880 -53.257  0.00  0.00    +0.000 A 
ATOM     15  C   UNL     1     -22.820   7.339 -52.125  0.00  0.00    +0.000 A 
ENDBRANCH   5  10
BRANCH   4  17
ATOM     16  N   UNL     1     -22.347   3.266 -56.307  0.00  0.00    +0.000 NA
ATOM     17  C   UNL     1     -23.503   3.817 -56.089  0.00  0.00    +0.000 C 
BRANCH  16  18
ATOM     18  O   UNL     1     -21.509   4.022 -57.133  0.00  0.00    +0.000 OA
BRANCH  18  19
ATOM     19  C   UNL     1     -20.450   4.574 -56.342  0.00  0.00    +0.000 C 
BRANCH  19  20
ATOM     20  C   UNL     1     -20.276   6.035 -56.669  0.00  0.00    +0.000 A 
ATOM     21  C   UNL     1     -20.991   6.621 -57.722  0.00  0.00    +0.000 A 
ATOM     22  C   UNL     1     -19.354   6.811 -55.946  0.00  0.00    +0.000 A 
ATOM     23  C   UNL     1     -19.883   8.729 -57.316  0.00  0.00    +0.000 A 
ATOM     24  C   UNL     1     -20.801   7.965 -58.048  0.00  0.00    +0.000 A 
ATOM     25  C   UNL     1     -19.158   8.157 -56.263  0.00  0.00    +0.000 A 
BRANCH  23  28
ATOM     26  O   UNL     1     -20.635  10.909 -57.574  0.00  0.00    +0.000 OA
ATOM     27  O   UNL     1     -18.528  10.478 -58.016  0.00  0.00    +0.000 OA
ATOM     28  N   UNL     1     -19.666  10.138 -57.660  0.00  0.00    +0.000 N 
ENDBRANCH  23  28
ENDBRANCH  19  20
ENDBRANCH  18  19
ENDBRANCH  16  18
ENDBRANCH   4  17
TORSDOF 6
ENDMDL
MODEL 5
REMARK VINA RESULT:      -5.2      3.654      6.202
REMARK  Name = 5091255
REMARK  6 active torsions:
REMARK  status: ('A' for Active; 'I' for Inactive)
REMARK    1  A    between atoms: O_3  and  N_8
REMARK    2  A    between atoms: O_3  and  C_22
REMARK    3  A    between atoms: N_9  and  C_26
REMARK    4  A    between atoms: C_10  and  C_15
REMARK    5  A    between atoms: C_11  and  C_13
REMARK    6  A    between atoms: C_19  and  C_22
REMARK                            x       y       z     vdW  Elec       q    Type
REMARK                         _______ _______ _______ _____ _____    ______ ____
ROOT
ATOM      1  S   UNL     1     -12.334   4.637 -29.605  0.00  0.00    +0.000 S 
ATOM      2  N   UNL     1     -13.181   5.773 -31.759  0.00  0.00    +0.000 N 
ATOM      3  N   UNL     1     -11.365   6.849 -31.015  0.00  0.00    +0.000 NA
ATOM      4  C   UNL     1     -12.954   6.763 -32.691  0.00  0.00    +0.000 A 
ATOM      5  C   UNL     1     -11.838   7.437 -32.173  0.00  0.00    +0.000 A 
ATOM      6  C   UNL     1     -12.205   5.878 -30.812  0.00  0.00    +0.000 A 
ATOM      7  C   UNL     1     -14.049   4.716 -31.561  0.00  0.00    +0.000 A 
ATOM      8  C   UNL     1     -13.754   4.017 -30.451  0.00  0.00    +0.000 A 
ENDROOT
BRANCH   5  10
ATOM      9 CL   UNL     1      -9.047  12.138 -34.605  0.00  0.00    +0.000 Cl
ATOM     10  C   UNL     1     -11.171   8.597 -32.752  0.00  0.00    +0.000 A 
ATOM     11  C   UNL     1      -9.931   8.431 -33.390  0.00  0.00    +0.000 A 
ATOM     12  C   UNL     1     -11.715   9.888 -32.661  0.00  0.00    +0.000 A 
ATOM     13  C   UNL     1      -9.271   9.526 -33.960  0.00  0.00    +0.000 A 
ATOM     14  C   UNL     1     -11.063  10.978 -33.243  0.00  0.00    +0.000 A 
ATOM     15  C   UNL     1      -9.846  10.793 -33.892  0.00  0.00    +0.000 A 
ENDBRANCH   5  10
BRANCH   4  17
ATOM     16  N   UNL     1     -13.312   6.486 -35.135  0.00  0.00    +0.000 NA
ATOM     17  C   UNL     1     -13.598   6.963 -33.961  0.00  0.00    +0.000 C 
BRANCH  16  18
ATOM     18  O   UNL     1     -12.262   5.563 -35.129  0.00  0.00    +0.000 OA
BRANCH  18  19
ATOM     19  C   UNL     1     -11.883   5.280 -36.481  0.00  0.00    +0.000 C 
BRANCH  19  20
ATOM     20  C   UNL     1     -10.381   5.218 -36.589  0.00  0.00    +0.000 A 
ATOM     21  C   UNL     1      -9.750   4.098 -37.147  0.00  0.00    +0.000 A 
ATOM     22  C   UNL     1      -9.598   6.269 -36.084  0.00  0.00    +0.000 A 
ATOM     23  C   UNL     1      -7.588   5.083 -36.709  0.00  0.00    +0.000 A 
ATOM     24  C   UNL     1      -8.358   4.026 -37.211  0.00  0.00    +0.000 A 
ATOM     25  C   UNL     1      -8.203   6.207 -36.146  0.00  0.00    +0.000 A 
BRANCH  23  28
ATOM     26  O   UNL     1      -5.613   3.954 -37.162  0.00  0.00    +0.000 OA
ATOM     27  O   UNL     1      -5.483   6.008 -36.399  0.00  0.00    +0.000 OA
ATOM     28  N   UNL     1      -6.124   5.010 -36.760  0.00  0.00    +0.000 N 
ENDBRANCH  23  28
ENDBRANCH  19  20
ENDBRANCH  18  19
ENDBRANCH  16  18
ENDBRANCH   4  17
TORSDOF 6
ENDMDL
MODEL 6
REMARK VINA RESULT:      -5.1      4.024      6.007
REMARK  Name = 5091255
REMARK  6 active torsions:
REMARK  status: ('A' for Active; 'I' for Inactive)
REMARK    1  A    between atoms: O_3  and  N_8
REMARK    2  A    between atoms: O_3  and  C_22
REMARK    3  A    between atoms: N_9  and  C_26
REMARK    4  A    between atoms: C_10  and  C_15
REMARK    5  A    between atoms: C_11  and  C_13
REMARK    6  A    between atoms: C_19  and  C_22
REMARK                            x       y       z     vdW  Elec       q    Type
REMARK                         _______ _______ _______ _____ _____    ______ ____
ROOT
ATOM      1  S   UNL     1     -11.499   0.942 -33.390  0.00  0.00    +0.000 S 
ATOM      2  N   UNL     1     -11.871   3.141 -34.684  0.00  0.00    +0.000 N 
ATOM      3  N   UNL     1      -9.709   2.571 -34.790  0.00  0.00    +0.000 NA
ATOM      4  C   UNL     1     -11.291   4.114 -35.469  0.00  0.00    +0.000 A 
ATOM      5  C   UNL     1      -9.936   3.748 -35.480  0.00  0.00    +0.000 A 
ATOM      6  C   UNL     1     -10.885   2.265 -34.331  0.00  0.00    +0.000 A 
ATOM      7  C   UNL     1     -13.128   2.791 -34.227  0.00  0.00    +0.000 A 
ATOM      8  C   UNL     1     -13.109   1.657 -33.506  0.00  0.00    +0.000 A 
ENDROOT
BRANCH   5  10
ATOM      9 CL   UNL     1      -5.458   6.670 -38.166  0.00  0.00    +0.000 Cl
ATOM     10  C   UNL     1      -8.847   4.445 -36.153  0.00  0.00    +0.000 A 
ATOM     11  C   UNL     1      -8.513   5.749 -35.754  0.00  0.00    +0.000 A 
ATOM     12  C   UNL     1      -8.139   3.864 -37.217  0.00  0.00    +0.000 A 
ATOM     13  C   UNL     1      -7.468   6.440 -36.378  0.00  0.00    +0.000 A 
ATOM     14  C   UNL     1      -7.087   4.548 -37.830  0.00  0.00    +0.000 A 
ATOM     15  C   UNL     1      -6.753   5.831 -37.407  0.00  0.00    +0.000 A 
ENDBRANCH   5  10
BRANCH   4  17
ATOM     16  N   UNL     1     -12.496   6.259 -35.827  0.00  0.00    +0.000 NA
ATOM     17  C   UNL     1     -11.932   5.158 -36.223  0.00  0.00    +0.000 C 
BRANCH  16  18
ATOM     18  O   UNL     1     -12.373   6.494 -34.455  0.00  0.00    +0.000 OA
BRANCH  18  19
ATOM     19  C   UNL     1     -13.073   7.700 -34.124  0.00  0.00    +0.000 C 
BRANCH  19  20
ATOM     20  C   UNL     1     -14.523   7.393 -33.857  0.00  0.00    +0.000 A 
ATOM     21  C   UNL     1     -15.532   8.246 -34.326  0.00  0.00    +0.000 A 
ATOM     22  C   UNL     1     -14.873   6.268 -33.092  0.00  0.00    +0.000 A 
ATOM     23  C   UNL     1     -17.209   6.852 -33.286  0.00  0.00    +0.000 A 
ATOM     24  C   UNL     1     -16.873   7.980 -34.046  0.00  0.00    +0.000 A 
ATOM     25  C   UNL     1     -16.213   5.992 -32.809  0.00  0.00    +0.000 A 
BRANCH  23  28
ATOM     26  O   UNL     1     -19.476   7.300 -33.494  0.00  0.00    +0.000 OA
ATOM     27  O   UNL     1     -18.861   5.625 -32.215  0.00  0.00    +0.000 OA
ATOM     28  N   UNL     1     -18.615   6.572 -32.976  0.00  0.00    +0.000 N 
ENDBRANCH  23  28
ENDBRANCH  19  20
ENDBRANCH  18  19
ENDBRANCH  16  18
ENDBRANCH   4  17
TORSDOF 6
ENDMDL
MODEL 7
REMARK VINA RESULT:      -5.0      2.829      4.095
REMARK  Name = 5091255
REMARK  6 active torsions:
REMARK  status: ('A' for Active; 'I' for Inactive)
REMARK    1  A    between atoms: O_3  and  N_8
REMARK    2  A    between atoms: O_3  and  C_22
REMARK    3  A    between atoms: N_9  and  C_26
REMARK    4  A    between atoms: C_10  and  C_15
REMARK    5  A    between atoms: C_11  and  C_13
REMARK    6  A    between atoms: C_19  and  C_22
REMARK                            x       y       z     vdW  Elec       q    Type
REMARK                         _______ _______ _______ _____ _____    ______ ____
ROOT
ATOM      1  S   UNL     1     -15.736   7.587 -34.902  0.00  0.00    +0.000 S 
ATOM      2  N   UNL     1     -13.840   6.505 -33.529  0.00  0.00    +0.000 N 
ATOM      3  N   UNL     1     -13.064   7.075 -35.550  0.00  0.00    +0.000 NA
ATOM      4  C   UNL     1     -12.506   6.161 -33.501  0.00  0.00    +0.000 A 
ATOM      5  C   UNL     1     -12.065   6.495 -34.791  0.00  0.00    +0.000 A 
ATOM      6  C   UNL     1     -14.093   7.044 -34.757  0.00  0.00    +0.000 A 
ATOM      7  C   UNL     1     -14.927   6.510 -32.674  0.00  0.00    +0.000 A 
ATOM      8  C   UNL     1     -16.023   7.034 -33.250  0.00  0.00    +0.000 A 
ENDROOT
BRANCH   5  10
ATOM      9 CL   UNL     1      -6.576   5.718 -37.044  0.00  0.00    +0.000 Cl
ATOM     10  C   UNL     1     -10.720   6.324 -35.327  0.00  0.00    +0.000 A 
ATOM     11  C   UNL     1     -10.354   5.090 -35.888  0.00  0.00    +0.000 A 
ATOM     12  C   UNL     1      -9.762   7.349 -35.269  0.00  0.00    +0.000 A 
ATOM     13  C   UNL     1      -9.071   4.899 -36.416  0.00  0.00    +0.000 A 
ATOM     14  C   UNL     1      -8.487   7.163 -35.808  0.00  0.00    +0.000 A 
ATOM     15  C   UNL     1      -8.147   5.942 -36.383  0.00  0.00    +0.000 A 
ENDBRANCH   5  10
BRANCH   4  17
ATOM     16  N   UNL     1     -10.866   6.364 -31.644  0.00  0.00    +0.000 NA
ATOM     17  C   UNL     1     -11.717   5.719 -32.383  0.00  0.00    +0.000 C 
BRANCH  16  18
ATOM     18  O   UNL     1     -10.782   7.728 -31.940  0.00  0.00    +0.000 OA
BRANCH  18  19
ATOM     19  C   UNL     1     -10.861   8.476 -30.720  0.00  0.00    +0.000 C 
BRANCH  19  20
ATOM     20  C   UNL     1      -9.497   8.567 -30.087  0.00  0.00    +0.000 A 
ATOM     21  C   UNL     1      -9.266   8.041 -28.809  0.00  0.00    +0.000 A 
ATOM     22  C   UNL     1      -8.454   9.227 -30.759  0.00  0.00    +0.000 A 
ATOM     23  C   UNL     1      -6.979   8.815 -28.891  0.00  0.00    +0.000 A 
ATOM     24  C   UNL     1      -8.012   8.160 -28.208  0.00  0.00    +0.000 A 
ATOM     25  C   UNL     1      -7.195   9.349 -30.167  0.00  0.00    +0.000 A 
BRANCH  23  28
ATOM     26  O   UNL     1      -4.796   9.601 -28.874  0.00  0.00    +0.000 OA
ATOM     27  O   UNL     1      -5.491   8.425 -27.155  0.00  0.00    +0.000 OA
ATOM     28  N   UNL     1      -5.662   8.957 -28.262  0.00  0.00    +0.000 N 
ENDBRANCH  23  28
ENDBRANCH  19  20
ENDBRANCH  18  19
ENDBRANCH  16  18
ENDBRANCH   4  17
TORSDOF 6
ENDMDL
MODEL 8
REMARK VINA RESULT:      -5.0     20.576     22.600
REMARK  Name = 5091255
REMARK  6 active torsions:
REMARK  status: ('A' for Active; 'I' for Inactive)
REMARK    1  A    between atoms: O_3  and  N_8
REMARK    2  A    between atoms: O_3  and  C_22
REMARK    3  A    between atoms: N_9  and  C_26
REMARK    4  A    between atoms: C_10  and  C_15
REMARK    5  A    between atoms: C_11  and  C_13
REMARK    6  A    between atoms: C_19  and  C_22
REMARK                            x       y       z     vdW  Elec       q    Type
REMARK                         _______ _______ _______ _____ _____    ______ ____
ROOT
ATOM      1  S   UNL     1      -4.482  -7.872 -53.436  0.00  0.00    +0.000 S 
ATOM      2  N   UNL     1      -4.883  -5.902 -51.820  0.00  0.00    +0.000 N 
ATOM      3  N   UNL     1      -5.926  -5.500 -53.760  0.00  0.00    +0.000 NA
ATOM      4  C   UNL     1      -5.521  -4.696 -51.631  0.00  0.00    +0.000 A 
ATOM      5  C   UNL     1      -6.129  -4.458 -52.873  0.00  0.00    +0.000 A 
ATOM      6  C   UNL     1      -5.174  -6.318 -53.087  0.00  0.00    +0.000 A 
ATOM      7  C   UNL     1      -4.115  -6.794 -51.095  0.00  0.00    +0.000 A 
ATOM      8  C   UNL     1      -3.798  -7.889 -51.809  0.00  0.00    +0.000 A 
ENDROOT
BRANCH   5  10
ATOM      9 CL   UNL     1      -9.403   0.278 -54.504  0.00  0.00    +0.000 Cl
ATOM     10  C   UNL     1      -6.931  -3.299 -53.247  0.00  0.00    +0.000 A 
ATOM     11  C   UNL     1      -6.758  -2.723 -54.516  0.00  0.00    +0.000 A 
ATOM     12  C   UNL     1      -7.852  -2.718 -52.362  0.00  0.00    +0.000 A 
ATOM     13  C   UNL     1      -7.518  -1.614 -54.905  0.00  0.00    +0.000 A 
ATOM     14  C   UNL     1      -8.621  -1.620 -52.755  0.00  0.00    +0.000 A 
ATOM     15  C   UNL     1      -8.455  -1.074 -54.025  0.00  0.00    +0.000 A 
ENDBRANCH   5  10
BRANCH   4  17
ATOM     16  N   UNL     1      -5.256  -2.745 -50.112  0.00  0.00    +0.000 NA
ATOM     17  C   UNL     1      -5.666  -3.940 -50.416  0.00  0.00    +0.000 C 
BRANCH  16  18
ATOM     18  O   UNL     1      -4.658  -2.066 -51.178  0.00  0.00    +0.000 OA
BRANCH  18  19
ATOM     19  C   UNL     1      -5.072  -0.695 -51.149  0.00  0.00    +0.000 C 
BRANCH  19  20
ATOM     20  C   UNL     1      -4.916  -0.084 -52.517  0.00  0.00    +0.000 A 
ATOM     21  C   UNL     1      -5.685   1.025 -52.896  0.00  0.00    +0.000 A 
ATOM     22  C   UNL     1      -4.028  -0.655 -53.444  0.00  0.00    +0.000 A 
ATOM     23  C   UNL     1      -4.673   0.991 -55.089  0.00  0.00    +0.000 A 
ATOM     24  C   UNL     1      -5.566   1.567 -54.177  0.00  0.00    +0.000 A 
ATOM     25  C   UNL     1      -3.901  -0.118 -54.727  0.00  0.00    +0.000 A 
BRANCH  23  28
ATOM     26  O   UNL     1      -4.476   0.747 -57.389  0.00  0.00    +0.000 OA
ATOM     27  O   UNL     1      -4.533   2.779 -56.561  0.00  0.00    +0.000 OA
ATOM     28  N   UNL     1      -4.552   1.546 -56.442  0.00  0.00    +0.000 N 
ENDBRANCH  23  28
ENDBRANCH  19  20
ENDBRANCH  18  19
ENDBRANCH  16  18
ENDBRANCH   4  17
TORSDOF 6
ENDMDL
MODEL 9
REMARK VINA RESULT:      -4.9     21.431     24.271
REMARK  Name = 5091255
REMARK  6 active torsions:
REMARK  status: ('A' for Active; 'I' for Inactive)
REMARK    1  A    between atoms: O_3  and  N_8
REMARK    2  A    between atoms: O_3  and  C_22
REMARK    3  A    between atoms: N_9  and  C_26
REMARK    4  A    between atoms: C_10  and  C_15
REMARK    5  A    between atoms: C_11  and  C_13
REMARK    6  A    between atoms: C_19  and  C_22
REMARK                            x       y       z     vdW  Elec       q    Type
REMARK                         _______ _______ _______ _____ _____    ______ ____
ROOT
ATOM      1  S   UNL     1      -4.793   4.885 -54.725  0.00  0.00    +0.000 S 
ATOM      2  N   UNL     1      -4.217   2.391 -55.040  0.00  0.00    +0.000 N 
ATOM      3  N   UNL     1      -5.945   2.585 -53.630  0.00  0.00    +0.000 NA
ATOM      4  C   UNL     1      -4.563   1.094 -54.730  0.00  0.00    +0.000 A 
ATOM      5  C   UNL     1      -5.618   1.255 -53.819  0.00  0.00    +0.000 A 
ATOM      6  C   UNL     1      -5.077   3.211 -54.367  0.00  0.00    +0.000 A 
ATOM      7  C   UNL     1      -3.320   3.059 -55.853  0.00  0.00    +0.000 A 
ATOM      8  C   UNL     1      -3.475   4.393 -55.792  0.00  0.00    +0.000 A 
ENDROOT
BRANCH   5  10
ATOM      9 CL   UNL     1      -8.706  -3.116 -51.142  0.00  0.00    +0.000 Cl
ATOM     10  C   UNL     1      -6.361   0.197 -53.146  0.00  0.00    +0.000 A 
ATOM     11  C   UNL     1      -7.488  -0.360 -53.772  0.00  0.00    +0.000 A 
ATOM     12  C   UNL     1      -6.004  -0.264 -51.869  0.00  0.00    +0.000 A 
ATOM     13  C   UNL     1      -8.217  -1.381 -53.152  0.00  0.00    +0.000 A 
ATOM     14  C   UNL     1      -6.723  -1.293 -51.256  0.00  0.00    +0.000 A 
ATOM     15  C   UNL     1      -7.824  -1.850 -51.901  0.00  0.00    +0.000 A 
ENDBRANCH   5  10
BRANCH   4  17
ATOM     16  N   UNL     1      -4.562  -0.858 -56.270  0.00  0.00    +0.000 NA
ATOM     17  C   UNL     1      -4.075  -0.128 -55.312  0.00  0.00    +0.000 C 
BRANCH  16  18
ATOM     18  O   UNL     1      -5.692  -0.307 -56.881  0.00  0.00    +0.000 OA
BRANCH  18  19
ATOM     19  C   UNL     1      -5.753  -0.757 -58.240  0.00  0.00    +0.000 C 
BRANCH  19  20
ATOM     20  C   UNL     1      -5.716   0.426 -59.172  0.00  0.00    +0.000 A 
ATOM     21  C   UNL     1      -4.886   1.523 -58.902  0.00  0.00    +0.000 A 
ATOM     22  C   UNL     1      -6.553   0.458 -60.300  0.00  0.00    +0.000 A 
ATOM     23  C   UNL     1      -5.716   2.651 -60.871  0.00  0.00    +0.000 A 
ATOM     24  C   UNL     1      -4.880   2.634 -59.747  0.00  0.00    +0.000 A 
ATOM     25  C   UNL     1      -6.553   1.565 -61.152  0.00  0.00    +0.000 A 
BRANCH  23  28
ATOM     26  O   UNL     1      -6.816   4.171 -62.236  0.00  0.00    +0.000 OA
ATOM     27  O   UNL     1      -4.647   4.389 -61.974  0.00  0.00    +0.000 OA
ATOM     28  N   UNL     1      -5.727   3.820 -61.756  0.00  0.00    +0.000 N 
ENDBRANCH  23  28
ENDBRANCH  19  20
ENDBRANCH  18  19
ENDBRANCH  16  18
ENDBRANCH   4  17
TORSDOF 6
ENDMDL
MODEL 10
REMARK VINA RESULT:      -4.8      4.388      5.976
REMARK  Name = 5091255
REMARK  6 active torsions:
REMARK  status: ('A' for Active; 'I' for Inactive)
REMARK    1  A    between atoms: O_3  and  N_8
REMARK    2  A    between atoms: O_3  and  C_22
REMARK    3  A    between atoms: N_9  and  C_26
REMARK    4  A    between atoms: C_10  and  C_15
REMARK    5  A    between atoms: C_11  and  C_13
REMARK    6  A    between atoms: C_19  and  C_22
REMARK                            x       y       z     vdW  Elec       q    Type
REMARK                         _______ _______ _______ _____ _____    ______ ____
ROOT
ATOM      1  S   UNL     1     -10.037  13.928 -33.178  0.00  0.00    +0.000 S 
ATOM      2  N   UNL     1     -10.196  11.567 -32.152  0.00  0.00    +0.000 N 
ATOM      3  N   UNL     1     -10.377  11.426 -34.379  0.00  0.00    +0.000 NA
ATOM      4  C   UNL     1     -10.305  10.218 -32.409  0.00  0.00    +0.000 A 
ATOM      5  C   UNL     1     -10.456  10.171 -33.803  0.00  0.00    +0.000 A 
ATOM      6  C   UNL     1     -10.235  12.212 -33.354  0.00  0.00    +0.000 A 
ATOM      7  C   UNL     1     -10.006  12.404 -31.068  0.00  0.00    +0.000 A 
ATOM      8  C   UNL     1      -9.918  13.696 -31.432  0.00  0.00    +0.000 A 
ENDROOT
BRANCH   5  10
ATOM      9 CL   UNL     1     -11.257   5.320 -37.214  0.00  0.00    +0.000 Cl
ATOM     10  C   UNL     1     -10.632   8.979 -34.624  0.00  0.00    +0.000 A 
ATOM     11  C   UNL     1     -11.886   8.718 -35.199  0.00  0.00    +0.000 A 
ATOM     12  C   UNL     1      -9.591   8.061 -34.832  0.00  0.00    +0.000 A 
ATOM     13  C   UNL     1     -12.083   7.584 -35.997  0.00  0.00    +0.000 A 
ATOM     14  C   UNL     1      -9.782   6.938 -35.640  0.00  0.00    +0.000 A 
ATOM     15  C   UNL     1     -11.025   6.705 -36.222  0.00  0.00    +0.000 A 
ENDBRANCH   5  10
BRANCH   4  17
ATOM     16  N   UNL     1      -9.093   8.687 -30.871  0.00  0.00    +0.000 NA
ATOM     17  C   UNL     1     -10.146   9.116 -31.498  0.00  0.00    +0.000 C 
BRANCH  16  18
ATOM     18  O   UNL     1      -7.963   9.489 -31.052  0.00  0.00    +0.000 OA
BRANCH  18  19
ATOM     19  C   UNL     1      -6.955   9.092 -30.113  0.00  0.00    +0.000 C 
BRANCH  19  20
ATOM     20  C   UNL     1      -5.939  10.194 -29.958  0.00  0.00    +0.000 A 
ATOM     21  C   UNL     1      -6.319  11.538 -30.075  0.00  0.00    +0.000 A 
ATOM     22  C   UNL     1      -4.588   9.877 -29.741  0.00  0.00    +0.000 A 
ATOM     23  C   UNL     1      -4.027  12.226 -29.747  0.00  0.00    +0.000 A 
ATOM     24  C   UNL     1      -5.370  12.556 -29.968  0.00  0.00    +0.000 A 
ATOM     25  C   UNL     1      -3.631  10.889 -29.631  0.00  0.00    +0.000 A 
BRANCH  23  28
ATOM     26  O   UNL     1      -2.610  13.591 -28.515  0.00  0.00    +0.000 OA
ATOM     27  O   UNL     1      -2.639  13.824 -30.698  0.00  0.00    +0.000 OA
ATOM     28  N   UNL     1      -3.021  13.289 -29.647  0.00  0.00    +0.000 N 
ENDBRANCH  23  28
ENDBRANCH  19  20
ENDBRANCH  18  19
ENDBRANCH  16  18
ENDBRANCH   4  17
TORSDOF 6
ENDMDL
