REMARK  Name = 5091255
REMARK  6 active torsions:
REMARK  status: ('A' for Active; 'I' for Inactive)
REMARK    1  A    between atoms: O_3  and  N_8
REMARK    2  A    between atoms: O_3  and  C_22
REMARK    3  A    between atoms: N_9  and  C_26
REMARK    4  A    between atoms: C_10  and  C_15
REMARK    5  A    between atoms: C_11  and  C_13
REMARK    6  A    between atoms: C_19  and  C_22
REMARK                            x       y       z     vdW  Elec       q    Type
REMARK                         _______ _______ _______ _____ _____    ______ ____
ROOT
ATOM      1  S   UNL     1       7.300   0.772   1.643  0.00  0.00    +0.000 S 
ATOM      2  N   UNL     1       6.053  -0.273  -0.358  0.00  0.00    +0.000 N 
ATOM      3  N   UNL     1       4.566   0.539   1.105  0.00  0.00    +0.000 NA
ATOM      4  C   UNL     1       4.826  -0.509  -0.939  0.00  0.00    +0.000 A 
ATOM      5  C   UNL     1       3.922  -0.025   0.019  0.00  0.00    +0.000 A 
ATOM      6  C   UNL     1       5.823   0.353   0.833  0.00  0.00    +0.000 A 
ATOM      7  C   UNL     1       7.392  -0.434  -0.662  0.00  0.00    +0.000 A 
ATOM      8  C   UNL     1       8.194   0.050   0.303  0.00  0.00    +0.000 A 
ENDROOT
BRANCH   5  10
ATOM      9 CL   UNL     1      -2.052   0.023  -0.317  0.00  0.00    +0.000 Cl
ATOM     10  C   UNL     1       2.467  -0.037  -0.067  0.00  0.00    +0.000 A 
ATOM     11  C   UNL     1       1.734   1.009   0.516  0.00  0.00    +0.000 A 
ATOM     12  C   UNL     1       1.769  -1.084  -0.689  0.00  0.00    +0.000 A 
ATOM     13  C   UNL     1       0.336   1.027   0.444  0.00  0.00    +0.000 A 
ATOM     14  C   UNL     1       0.375  -1.059  -0.774  0.00  0.00    +0.000 A 
ATOM     15  C   UNL     1      -0.336  -0.003  -0.211  0.00  0.00    +0.000 A 
ENDBRANCH   5  10
BRANCH   4  17
ATOM     16  N   UNL     1       5.135  -1.890  -2.983  0.00  0.00    +0.000 NA
ATOM     17  C   UNL     1       4.539  -0.986  -2.265  0.00  0.00    +0.000 C 
BRANCH  16  18
ATOM     18  O   UNL     1       6.162  -2.558  -2.310  0.00  0.00    +0.000 OA
BRANCH  18  19
ATOM     19  C   UNL     1       6.821  -3.442  -3.225  0.00  0.00    +0.000 C 
BRANCH  19  20
ATOM     20  C   UNL     1       6.329  -4.851  -3.019  0.00  0.00    +0.000 A 
ATOM     21  C   UNL     1       5.262  -5.353  -3.777  0.00  0.00    +0.000 A 
ATOM     22  C   UNL     1       6.909  -5.659  -2.027  0.00  0.00    +0.000 A 
ATOM     23  C   UNL     1       5.374  -7.443  -2.570  0.00  0.00    +0.000 A 
ATOM     24  C   UNL     1       4.783  -6.646  -3.559  0.00  0.00    +0.000 A 
ATOM     25  C   UNL     1       6.438  -6.955  -1.803  0.00  0.00    +0.000 A 
BRANCH  23  28
ATOM     26  O   UNL     1       3.907  -9.187  -3.007  0.00  0.00    +0.000 OA
ATOM     27  O   UNL     1       5.430  -9.475  -1.452  0.00  0.00    +0.000 OA
ATOM     28  N   UNL     1       4.868  -8.798  -2.325  0.00  0.00    +0.000 N 
ENDBRANCH  23  28
ENDBRANCH  19  20
ENDBRANCH  18  19
ENDBRANCH  16  18
ENDBRANCH   4  17
TORSDOF 6
