MODEL 1
REMARK VINA RESULT:      -6.5      0.000      0.000
REMARK  Name = 5091255
REMARK  6 active torsions:
REMARK  status: ('A' for Active; 'I' for Inactive)
REMARK    1  A    between atoms: O_3  and  N_8
REMARK    2  A    between atoms: O_3  and  C_22
REMARK    3  A    between atoms: N_9  and  C_26
REMARK    4  A    between atoms: C_10  and  C_15
REMARK    5  A    between atoms: C_11  and  C_13
REMARK    6  A    between atoms: C_19  and  C_22
REMARK                            x       y       z     vdW  Elec       q    Type
REMARK                         _______ _______ _______ _____ _____    ______ ____
ROOT
ATOM      1  S   UNL     1      15.050  12.517  21.613  0.00  0.00    +0.000 S 
ATOM      2  N   UNL     1      14.403  10.021  21.554  0.00  0.00    +0.000 N 
ATOM      3  N   UNL     1      16.597  10.231  21.165  0.00  0.00    +0.000 NA
ATOM      4  C   UNL     1      14.860   8.728  21.422  0.00  0.00    +0.000 A 
ATOM      5  C   UNL     1      16.224   8.900  21.142  0.00  0.00    +0.000 A 
ATOM      6  C   UNL     1      15.478  10.848  21.401  0.00  0.00    +0.000 A 
ATOM      7  C   UNL     1      13.221  10.679  21.843  0.00  0.00    +0.000 A 
ATOM      8  C   UNL     1      13.382  12.013  21.895  0.00  0.00    +0.000 A 
ENDROOT
BRANCH   5  10
ATOM      9 CL   UNL     1      20.281   4.603  20.203  0.00  0.00    +0.000 Cl
ATOM     10  C   UNL     1      17.204   7.851  20.891  0.00  0.00    +0.000 A 
ATOM     11  C   UNL     1      18.346   7.767  21.703  0.00  0.00    +0.000 A 
ATOM     12  C   UNL     1      17.058   6.936  19.836  0.00  0.00    +0.000 A 
ATOM     13  C   UNL     1      19.302   6.766  21.489  0.00  0.00    +0.000 A 
ATOM     14  C   UNL     1      18.004   5.928  19.631  0.00  0.00    +0.000 A 
ATOM     15  C   UNL     1      19.119   5.844  20.460  0.00  0.00    +0.000 A 
ENDBRANCH   5  10
BRANCH   4  17
ATOM     16  N   UNL     1      13.579   6.678  20.840  0.00  0.00    +0.000 NA
ATOM     17  C   UNL     1      14.155   7.499  21.667  0.00  0.00    +0.000 C 
BRANCH  16  18
ATOM     18  O   UNL     1      13.760   7.013  19.495  0.00  0.00    +0.000 OA
BRANCH  18  19
ATOM     19  C   UNL     1      12.590   7.690  19.022  0.00  0.00    +0.000 C 
BRANCH  19  20
ATOM     20  C   UNL     1      12.962   8.643  17.915  0.00  0.00    +0.000 A 
ATOM     21  C   UNL     1      14.111   9.439  18.015  0.00  0.00    +0.000 A 
ATOM     22  C   UNL     1      12.129   8.773  16.792  0.00  0.00    +0.000 A 
ATOM     23  C   UNL     1      13.598  10.465  15.888  0.00  0.00    +0.000 A 
ATOM     24  C   UNL     1      14.435  10.348  17.006  0.00  0.00    +0.000 A 
ATOM     25  C   UNL     1      12.446   9.678  15.776  0.00  0.00    +0.000 A 
BRANCH  23  28
ATOM     26  O   UNL     1      14.928  12.138  14.986  0.00  0.00    +0.000 OA
ATOM     27  O   UNL     1      13.177  11.472  13.842  0.00  0.00    +0.000 OA
ATOM     28  N   UNL     1      13.924  11.427  14.830  0.00  0.00    +0.000 N 
ENDBRANCH  23  28
ENDBRANCH  19  20
ENDBRANCH  18  19
ENDBRANCH  16  18
ENDBRANCH   4  17
TORSDOF 6
ENDMDL
MODEL 2
REMARK VINA RESULT:      -6.0      3.609      5.998
REMARK  Name = 5091255
REMARK  6 active torsions:
REMARK  status: ('A' for Active; 'I' for Inactive)
REMARK    1  A    between atoms: O_3  and  N_8
REMARK    2  A    between atoms: O_3  and  C_22
REMARK    3  A    between atoms: N_9  and  C_26
REMARK    4  A    between atoms: C_10  and  C_15
REMARK    5  A    between atoms: C_11  and  C_13
REMARK    6  A    between atoms: C_19  and  C_22
REMARK                            x       y       z     vdW  Elec       q    Type
REMARK                         _______ _______ _______ _____ _____    ______ ____
ROOT
ATOM      1  S   UNL     1      20.099  13.126  17.999  0.00  0.00    +0.000 S 
ATOM      2  N   UNL     1      19.371  11.917  20.157  0.00  0.00    +0.000 N 
ATOM      3  N   UNL     1      17.587  12.235  18.842  0.00  0.00    +0.000 NA
ATOM      4  C   UNL     1      18.326  11.332  20.838  0.00  0.00    +0.000 A 
ATOM      5  C   UNL     1      17.223  11.584  20.007  0.00  0.00    +0.000 A 
ATOM      6  C   UNL     1      18.865  12.416  18.992  0.00  0.00    +0.000 A 
ATOM      7  C   UNL     1      20.737  12.077  20.294  0.00  0.00    +0.000 A 
ATOM      8  C   UNL     1      21.282  12.717  19.244  0.00  0.00    +0.000 A 
ENDROOT
BRANCH   5  10
ATOM      9 CL   UNL     1      11.540   9.950  20.919  0.00  0.00    +0.000 Cl
ATOM     10  C   UNL     1      15.839  11.198  20.250  0.00  0.00    +0.000 A 
ATOM     11  C   UNL     1      15.043  10.774  19.174  0.00  0.00    +0.000 A 
ATOM     12  C   UNL     1      15.262  11.269  21.528  0.00  0.00    +0.000 A 
ATOM     13  C   UNL     1      13.712  10.392  19.378  0.00  0.00    +0.000 A 
ATOM     14  C   UNL     1      13.938  10.874  21.734  0.00  0.00    +0.000 A 
ATOM     15  C   UNL     1      13.169  10.434  20.661  0.00  0.00    +0.000 A 
ENDBRANCH   5  10
BRANCH   4  17
ATOM     16  N   UNL     1      18.412   9.233  22.168  0.00  0.00    +0.000 NA
ATOM     17  C   UNL     1      18.371  10.524  22.027  0.00  0.00    +0.000 C 
BRANCH  16  18
ATOM     18  O   UNL     1      18.517   8.537  20.961  0.00  0.00    +0.000 OA
BRANCH  18  19
ATOM     19  C   UNL     1      18.017   7.207  21.144  0.00  0.00    +0.000 C 
BRANCH  19  20
ATOM     20  C   UNL     1      16.577   7.138  20.708  0.00  0.00    +0.000 A 
ATOM     21  C   UNL     1      15.541   7.210  21.649  0.00  0.00    +0.000 A 
ATOM     22  C   UNL     1      16.263   6.951  19.351  0.00  0.00    +0.000 A 
ATOM     23  C   UNL     1      13.909   6.927  19.891  0.00  0.00    +0.000 A 
ATOM     24  C   UNL     1      14.208   7.108  21.247  0.00  0.00    +0.000 A 
ATOM     25  C   UNL     1      14.932   6.850  18.939  0.00  0.00    +0.000 A 
BRANCH  23  28
ATOM     26  O   UNL     1      11.675   6.456  20.309  0.00  0.00    +0.000 OA
ATOM     27  O   UNL     1      12.247   7.058  18.277  0.00  0.00    +0.000 OA
ATOM     28  N   UNL     1      12.511   6.805  19.461  0.00  0.00    +0.000 N 
ENDBRANCH  23  28
ENDBRANCH  19  20
ENDBRANCH  18  19
ENDBRANCH  16  18
ENDBRANCH   4  17
TORSDOF 6
ENDMDL
MODEL 3
REMARK VINA RESULT:      -5.8      5.522      8.413
REMARK  Name = 5091255
REMARK  6 active torsions:
REMARK  status: ('A' for Active; 'I' for Inactive)
REMARK    1  A    between atoms: O_3  and  N_8
REMARK    2  A    between atoms: O_3  and  C_22
REMARK    3  A    between atoms: N_9  and  C_26
REMARK    4  A    between atoms: C_10  and  C_15
REMARK    5  A    between atoms: C_11  and  C_13
REMARK    6  A    between atoms: C_19  and  C_22
REMARK                            x       y       z     vdW  Elec       q    Type
REMARK                         _______ _______ _______ _____ _____    ______ ____
ROOT
ATOM      1  S   UNL     1      14.940  15.136  22.709  0.00  0.00    +0.000 S 
ATOM      2  N   UNL     1      12.893  14.043  23.833  0.00  0.00    +0.000 N 
ATOM      3  N   UNL     1      12.210  15.337  22.139  0.00  0.00    +0.000 NA
ATOM      4  C   UNL     1      11.525  13.883  23.801  0.00  0.00    +0.000 A 
ATOM      5  C   UNL     1      11.130  14.735  22.758  0.00  0.00    +0.000 A 
ATOM      6  C   UNL     1      13.224  14.900  22.824  0.00  0.00    +0.000 A 
ATOM      7  C   UNL     1      13.978  13.550  24.534  0.00  0.00    +0.000 A 
ATOM      8  C   UNL     1      15.143  14.042  24.079  0.00  0.00    +0.000 A 
ENDROOT
BRANCH   5  10
ATOM      9 CL   UNL     1       5.569  15.682  20.761  0.00  0.00    +0.000 Cl
ATOM     10  C   UNL     1       9.769  14.976  22.293  0.00  0.00    +0.000 A 
ATOM     11  C   UNL     1       9.510  15.015  20.914  0.00  0.00    +0.000 A 
ATOM     12  C   UNL     1       8.709  15.203  23.185  0.00  0.00    +0.000 A 
ATOM     13  C   UNL     1       8.212  15.238  20.438  0.00  0.00    +0.000 A 
ATOM     14  C   UNL     1       7.412  15.411  22.711  0.00  0.00    +0.000 A 
ATOM     15  C   UNL     1       7.167  15.424  21.340  0.00  0.00    +0.000 A 
ENDBRANCH   5  10
BRANCH   4  17
ATOM     16  N   UNL     1      10.372  11.732  24.273  0.00  0.00    +0.000 NA
ATOM     17  C   UNL     1      10.712  12.957  24.542  0.00  0.00    +0.000 C 
BRANCH  16  18
ATOM     18  O   UNL     1      10.973  11.220  23.120  0.00  0.00    +0.000 OA
BRANCH  18  19
ATOM     19  C   UNL     1      11.070   9.795  23.238  0.00  0.00    +0.000 C 
BRANCH  19  20
ATOM     20  C   UNL     1      11.548   9.206  21.936  0.00  0.00    +0.000 A 
ATOM     21  C   UNL     1      11.777  10.025  20.822  0.00  0.00    +0.000 A 
ATOM     22  C   UNL     1      11.723   7.817  21.817  0.00  0.00    +0.000 A 
ATOM     23  C   UNL     1      12.360   8.087  19.503  0.00  0.00    +0.000 A 
ATOM     24  C   UNL     1      12.184   9.473  19.607  0.00  0.00    +0.000 A 
ATOM     25  C   UNL     1      12.132   7.255  20.606  0.00  0.00    +0.000 A 
BRANCH  23  28
ATOM     26  O   UNL     1      13.985   7.290  18.052  0.00  0.00    +0.000 OA
ATOM     27  O   UNL     1      11.891   7.238  17.396  0.00  0.00    +0.000 OA
ATOM     28  N   UNL     1      12.774   7.496  18.226  0.00  0.00    +0.000 N 
ENDBRANCH  23  28
ENDBRANCH  19  20
ENDBRANCH  18  19
ENDBRANCH  16  18
ENDBRANCH   4  17
TORSDOF 6
ENDMDL
MODEL 4
REMARK VINA RESULT:      -5.8     26.121     28.410
REMARK  Name = 5091255
REMARK  6 active torsions:
REMARK  status: ('A' for Active; 'I' for Inactive)
REMARK    1  A    between atoms: O_3  and  N_8
REMARK    2  A    between atoms: O_3  and  C_22
REMARK    3  A    between atoms: N_9  and  C_26
REMARK    4  A    between atoms: C_10  and  C_15
REMARK    5  A    between atoms: C_11  and  C_13
REMARK    6  A    between atoms: C_19  and  C_22
REMARK                            x       y       z     vdW  Elec       q    Type
REMARK                         _______ _______ _______ _____ _____    ______ ____
ROOT
ATOM      1  S   UNL     1     -11.117  13.768  18.329  0.00  0.00    +0.000 S 
ATOM      2  N   UNL     1     -10.379  11.364  17.758  0.00  0.00    +0.000 N 
ATOM      3  N   UNL     1     -11.864  11.310  19.432  0.00  0.00    +0.000 NA
ATOM      4  C   UNL     1     -10.551  10.024  18.030  0.00  0.00    +0.000 A 
ATOM      5  C   UNL     1     -11.454  10.031  19.104  0.00  0.00    +0.000 A 
ATOM      6  C   UNL     1     -11.187  12.057  18.612  0.00  0.00    +0.000 A 
ATOM      7  C   UNL     1      -9.690  12.160  16.862  0.00  0.00    +0.000 A 
ATOM      8  C   UNL     1      -9.952  13.467  17.037  0.00  0.00    +0.000 A 
ENDROOT
BRANCH   5  10
ATOM      9 CL   UNL     1     -13.701   5.288  21.978  0.00  0.00    +0.000 Cl
ATOM     10  C   UNL     1     -11.979   8.870  19.812  0.00  0.00    +0.000 A 
ATOM     11  C   UNL     1     -13.343   8.824  20.143  0.00  0.00    +0.000 A 
ATOM     12  C   UNL     1     -11.154   7.804  20.205  0.00  0.00    +0.000 A 
ATOM     13  C   UNL     1     -13.877   7.719  20.817  0.00  0.00    +0.000 A 
ATOM     14  C   UNL     1     -11.689   6.695  20.865  0.00  0.00    +0.000 A 
ATOM     15  C   UNL     1     -13.047   6.655  21.165  0.00  0.00    +0.000 A 
ENDBRANCH   5  10
BRANCH   4  17
ATOM     16  N   UNL     1     -10.402   8.422  16.134  0.00  0.00    +0.000 NA
ATOM     17  C   UNL     1     -10.057   8.890  17.296  0.00  0.00    +0.000 C 
BRANCH  16  18
ATOM     18  O   UNL     1     -11.343   9.211  15.466  0.00  0.00    +0.000 OA
BRANCH  18  19
ATOM     19  C   UNL     1     -12.050   8.394  14.524  0.00  0.00    +0.000 C 
BRANCH  19  20
ATOM     20  C   UNL     1     -13.421   8.068  15.058  0.00  0.00    +0.000 A 
ATOM     21  C   UNL     1     -14.370   7.430  14.247  0.00  0.00    +0.000 A 
ATOM     22  C   UNL     1     -13.774   8.446  16.364  0.00  0.00    +0.000 A 
ATOM     23  C   UNL     1     -15.988   7.539  16.038  0.00  0.00    +0.000 A 
ATOM     24  C   UNL     1     -15.651   7.161  14.732  0.00  0.00    +0.000 A 
ATOM     25  C   UNL     1     -15.053   8.180  16.858  0.00  0.00    +0.000 A 
BRANCH  23  28
ATOM     26  O   UNL     1     -17.518   7.365  17.774  0.00  0.00    +0.000 OA
ATOM     27  O   UNL     1     -18.217   6.973  15.731  0.00  0.00    +0.000 OA
ATOM     28  N   UNL     1     -17.337   7.273  16.550  0.00  0.00    +0.000 N 
ENDBRANCH  23  28
ENDBRANCH  19  20
ENDBRANCH  18  19
ENDBRANCH  16  18
ENDBRANCH   4  17
TORSDOF 6
ENDMDL
MODEL 5
REMARK VINA RESULT:      -5.6      2.265      2.994
REMARK  Name = 5091255
REMARK  6 active torsions:
REMARK  status: ('A' for Active; 'I' for Inactive)
REMARK    1  A    between atoms: O_3  and  N_8
REMARK    2  A    between atoms: O_3  and  C_22
REMARK    3  A    between atoms: N_9  and  C_26
REMARK    4  A    between atoms: C_10  and  C_15
REMARK    5  A    between atoms: C_11  and  C_13
REMARK    6  A    between atoms: C_19  and  C_22
REMARK                            x       y       z     vdW  Elec       q    Type
REMARK                         _______ _______ _______ _____ _____    ______ ____
ROOT
ATOM      1  S   UNL     1      15.622  13.978  18.503  0.00  0.00    +0.000 S 
ATOM      2  N   UNL     1      15.132  12.591  20.622  0.00  0.00    +0.000 N 
ATOM      3  N   UNL     1      16.908  11.733  19.564  0.00  0.00    +0.000 NA
ATOM      4  C   UNL     1      15.541  11.543  21.418  0.00  0.00    +0.000 A 
ATOM      5  C   UNL     1      16.626  11.008  20.707  0.00  0.00    +0.000 A 
ATOM      6  C   UNL     1      15.986  12.648  19.558  0.00  0.00    +0.000 A 
ATOM      7  C   UNL     1      14.176  13.590  20.633  0.00  0.00    +0.000 A 
ATOM      8  C   UNL     1      14.281  14.406  19.569  0.00  0.00    +0.000 A 
ENDROOT
BRANCH   5  10
ATOM      9 CL   UNL     1      19.998   6.339  22.332  0.00  0.00    +0.000 Cl
ATOM     10  C   UNL     1      17.437   9.858  21.085  0.00  0.00    +0.000 A 
ATOM     11  C   UNL     1      18.612  10.058  21.828  0.00  0.00    +0.000 A 
ATOM     12  C   UNL     1      17.098   8.551  20.700  0.00  0.00    +0.000 A 
ATOM     13  C   UNL     1      19.408   8.971  22.210  0.00  0.00    +0.000 A 
ATOM     14  C   UNL     1      17.883   7.466  21.094  0.00  0.00    +0.000 A 
ATOM     15  C   UNL     1      19.033   7.679  21.850  0.00  0.00    +0.000 A 
ENDBRANCH   5  10
BRANCH   4  17
ATOM     16  N   UNL     1      14.370  10.164  23.123  0.00  0.00    +0.000 NA
ATOM     17  C   UNL     1      15.077  11.180  22.730  0.00  0.00    +0.000 C 
BRANCH  16  18
ATOM     18  O   UNL     1      14.101   9.238  22.110  0.00  0.00    +0.000 OA
BRANCH  18  19
ATOM     19  C   UNL     1      12.701   9.269  21.811  0.00  0.00    +0.000 C 
BRANCH  19  20
ATOM     20  C   UNL     1      12.492   9.134  20.325  0.00  0.00    +0.000 A 
ATOM     21  C   UNL     1      13.495   9.519  19.425  0.00  0.00    +0.000 A 
ATOM     22  C   UNL     1      11.266   8.662  19.828  0.00  0.00    +0.000 A 
ATOM     23  C   UNL     1      12.061   8.952  17.566  0.00  0.00    +0.000 A 
ATOM     24  C   UNL     1      13.287   9.428  18.048  0.00  0.00    +0.000 A 
ATOM     25  C   UNL     1      11.048   8.566  18.452  0.00  0.00    +0.000 A 
BRANCH  23  28
ATOM     26  O   UNL     1      10.661   8.695  15.733  0.00  0.00    +0.000 OA
ATOM     27  O   UNL     1      12.809   8.970  15.370  0.00  0.00    +0.000 OA
ATOM     28  N   UNL     1      11.828   8.866  16.120  0.00  0.00    +0.000 N 
ENDBRANCH  23  28
ENDBRANCH  19  20
ENDBRANCH  18  19
ENDBRANCH  16  18
ENDBRANCH   4  17
TORSDOF 6
ENDMDL
MODEL 6
REMARK VINA RESULT:      -5.6     14.185     16.223
REMARK  Name = 5091255
REMARK  6 active torsions:
REMARK  status: ('A' for Active; 'I' for Inactive)
REMARK    1  A    between atoms: O_3  and  N_8
REMARK    2  A    between atoms: O_3  and  C_22
REMARK    3  A    between atoms: N_9  and  C_26
REMARK    4  A    between atoms: C_10  and  C_15
REMARK    5  A    between atoms: C_11  and  C_13
REMARK    6  A    between atoms: C_19  and  C_22
REMARK                            x       y       z     vdW  Elec       q    Type
REMARK                         _______ _______ _______ _____ _____    ______ ____
ROOT
ATOM      1  S   UNL     1       3.561  21.125  23.699  0.00  0.00    +0.000 S 
ATOM      2  N   UNL     1       3.803  18.557  23.701  0.00  0.00    +0.000 N 
ATOM      3  N   UNL     1       3.207  19.247  21.657  0.00  0.00    +0.000 NA
ATOM      4  C   UNL     1       3.760  17.408  22.943  0.00  0.00    +0.000 A 
ATOM      5  C   UNL     1       3.347  17.872  21.685  0.00  0.00    +0.000 A 
ATOM      6  C   UNL     1       3.478  19.597  22.879  0.00  0.00    +0.000 A 
ATOM      7  C   UNL     1       4.128  18.937  24.990  0.00  0.00    +0.000 A 
ATOM      8  C   UNL     1       4.035  20.267  25.167  0.00  0.00    +0.000 A 
ENDROOT
BRANCH   5  10
ATOM      9 CL   UNL     1       2.348  14.656  16.739  0.00  0.00    +0.000 Cl
ATOM     10  C   UNL     1       3.116  17.070  20.490  0.00  0.00    +0.000 A 
ATOM     11  C   UNL     1       2.043  17.390  19.642  0.00  0.00    +0.000 A 
ATOM     12  C   UNL     1       3.917  15.961  20.174  0.00  0.00    +0.000 A 
ATOM     13  C   UNL     1       1.801  16.642  18.484  0.00  0.00    +0.000 A 
ATOM     14  C   UNL     1       3.685  15.223  19.011  0.00  0.00    +0.000 A 
ATOM     15  C   UNL     1       2.631  15.568  18.169  0.00  0.00    +0.000 A 
ENDBRANCH   5  10
BRANCH   4  17
ATOM     16  N   UNL     1       3.508  15.078  23.775  0.00  0.00    +0.000 NA
ATOM     17  C   UNL     1       4.185  16.081  23.301  0.00  0.00    +0.000 C 
BRANCH  16  18
ATOM     18  O   UNL     1       2.133  15.316  23.861  0.00  0.00    +0.000 OA
BRANCH  18  19
ATOM     19  C   UNL     1       1.445  14.379  23.024  0.00  0.00    +0.000 C 
BRANCH  19  20
ATOM     20  C   UNL     1       0.408  15.095  22.198  0.00  0.00    +0.000 A 
ATOM     21  C   UNL     1      -0.063  14.536  21.002  0.00  0.00    +0.000 A 
ATOM     22  C   UNL     1      -0.061  16.356  22.601  0.00  0.00    +0.000 A 
ATOM     23  C   UNL     1      -1.460  16.474  20.635  0.00  0.00    +0.000 A 
ATOM     24  C   UNL     1      -0.997  15.218  20.220  0.00  0.00    +0.000 A 
ATOM     25  C   UNL     1      -0.996  17.046  21.825  0.00  0.00    +0.000 A 
BRANCH  23  28
ATOM     26  O   UNL     1      -2.016  18.170  19.153  0.00  0.00    +0.000 OA
ATOM     27  O   UNL     1      -3.606  16.812  19.823  0.00  0.00    +0.000 OA
ATOM     28  N   UNL     1      -2.430  17.204  19.812  0.00  0.00    +0.000 N 
ENDBRANCH  23  28
ENDBRANCH  19  20
ENDBRANCH  18  19
ENDBRANCH  16  18
ENDBRANCH   4  17
TORSDOF 6
ENDMDL
MODEL 7
REMARK VINA RESULT:      -5.6     12.130     15.061
REMARK  Name = 5091255
REMARK  6 active torsions:
REMARK  status: ('A' for Active; 'I' for Inactive)
REMARK    1  A    between atoms: O_3  and  N_8
REMARK    2  A    between atoms: O_3  and  C_22
REMARK    3  A    between atoms: N_9  and  C_26
REMARK    4  A    between atoms: C_10  and  C_15
REMARK    5  A    between atoms: C_11  and  C_13
REMARK    6  A    between atoms: C_19  and  C_22
REMARK                            x       y       z     vdW  Elec       q    Type
REMARK                         _______ _______ _______ _____ _____    ______ ____
ROOT
ATOM      1  S   UNL     1       6.745  19.757  16.702  0.00  0.00    +0.000 S 
ATOM      2  N   UNL     1       6.772  17.556  18.045  0.00  0.00    +0.000 N 
ATOM      3  N   UNL     1       4.683  18.354  17.965  0.00  0.00    +0.000 NA
ATOM      4  C   UNL     1       6.015  16.620  18.715  0.00  0.00    +0.000 A 
ATOM      5  C   UNL     1       4.724  17.170  18.678  0.00  0.00    +0.000 A 
ATOM      6  C   UNL     1       5.923  18.538  17.625  0.00  0.00    +0.000 A 
ATOM      7  C   UNL     1       8.085  17.736  17.649  0.00  0.00    +0.000 A 
ATOM      8  C   UNL     1       8.251  18.866  16.940  0.00  0.00    +0.000 A 
ENDROOT
BRANCH   5  10
ATOM      9 CL   UNL     1      -0.229  14.752  21.008  0.00  0.00    +0.000 Cl
ATOM     10  C   UNL     1       3.514  16.601  19.259  0.00  0.00    +0.000 A 
ATOM     11  C   UNL     1       2.866  15.544  18.600  0.00  0.00    +0.000 A 
ATOM     12  C   UNL     1       2.954  17.101  20.445  0.00  0.00    +0.000 A 
ATOM     13  C   UNL     1       1.705  14.974  19.137  0.00  0.00    +0.000 A 
ATOM     14  C   UNL     1       1.805  16.522  20.989  0.00  0.00    +0.000 A 
ATOM     15  C   UNL     1       1.187  15.460  20.335  0.00  0.00    +0.000 A 
ENDBRANCH   5  10
BRANCH   4  17
ATOM     16  N   UNL     1       6.718  14.926  20.393  0.00  0.00    +0.000 NA
ATOM     17  C   UNL     1       6.410  15.323  19.195  0.00  0.00    +0.000 C 
BRANCH  16  18
ATOM     18  O   UNL     1       6.546  15.906  21.374  0.00  0.00    +0.000 OA
BRANCH  18  19
ATOM     19  C   UNL     1       6.369  15.268  22.644  0.00  0.00    +0.000 C 
BRANCH  19  20
ATOM     20  C   UNL     1       5.293  15.976  23.427  0.00  0.00    +0.000 A 
ATOM     21  C   UNL     1       4.027  15.396  23.585  0.00  0.00    +0.000 A 
ATOM     22  C   UNL     1       5.539  17.250  23.964  0.00  0.00    +0.000 A 
ATOM     23  C   UNL     1       3.280  17.337  24.814  0.00  0.00    +0.000 A 
ATOM     24  C   UNL     1       3.020  16.069  24.279  0.00  0.00    +0.000 A 
ATOM     25  C   UNL     1       4.538  17.931  24.661  0.00  0.00    +0.000 A 
BRANCH  23  28
ATOM     26  O   UNL     1       1.225  18.413  24.885  0.00  0.00    +0.000 OA
ATOM     27  O   UNL     1       2.388  18.270  26.742  0.00  0.00    +0.000 OA
ATOM     28  N   UNL     1       2.223  18.058  25.532  0.00  0.00    +0.000 N 
ENDBRANCH  23  28
ENDBRANCH  19  20
ENDBRANCH  18  19
ENDBRANCH  16  18
ENDBRANCH   4  17
TORSDOF 6
ENDMDL
MODEL 8
REMARK VINA RESULT:      -5.5     32.022     33.435
REMARK  Name = 5091255
REMARK  6 active torsions:
REMARK  status: ('A' for Active; 'I' for Inactive)
REMARK    1  A    between atoms: O_3  and  N_8
REMARK    2  A    between atoms: O_3  and  C_22
REMARK    3  A    between atoms: N_9  and  C_26
REMARK    4  A    between atoms: C_10  and  C_15
REMARK    5  A    between atoms: C_11  and  C_13
REMARK    6  A    between atoms: C_19  and  C_22
REMARK                            x       y       z     vdW  Elec       q    Type
REMARK                         _______ _______ _______ _____ _____    ______ ____
ROOT
ATOM      1  S   UNL     1     -15.521   8.748  32.806  0.00  0.00    +0.000 S 
ATOM      2  N   UNL     1     -17.007   6.695  32.330  0.00  0.00    +0.000 N 
ATOM      3  N   UNL     1     -14.866   6.171  31.941  0.00  0.00    +0.000 NA
ATOM      4  C   UNL     1     -17.032   5.365  31.968  0.00  0.00    +0.000 A 
ATOM      5  C   UNL     1     -15.685   5.084  31.696  0.00  0.00    +0.000 A 
ATOM      6  C   UNL     1     -15.703   7.097  32.301  0.00  0.00    +0.000 A 
ATOM      7  C   UNL     1     -17.890   7.671  32.751  0.00  0.00    +0.000 A 
ATOM      8  C   UNL     1     -17.270   8.832  33.029  0.00  0.00    +0.000 A 
ENDROOT
BRANCH   5  10
ATOM      9 CL   UNL     1     -13.402  -0.166  29.955  0.00  0.00    +0.000 Cl
ATOM     10  C   UNL     1     -15.130   3.812  31.249  0.00  0.00    +0.000 A 
ATOM     11  C   UNL     1     -14.405   3.021  32.154  0.00  0.00    +0.000 A 
ATOM     12  C   UNL     1     -15.270   3.366  29.925  0.00  0.00    +0.000 A 
ATOM     13  C   UNL     1     -13.866   1.792  31.755  0.00  0.00    +0.000 A 
ATOM     14  C   UNL     1     -14.744   2.133  29.530  0.00  0.00    +0.000 A 
ATOM     15  C   UNL     1     -14.048   1.350  30.446  0.00  0.00    +0.000 A 
ENDBRANCH   5  10
BRANCH   4  17
ATOM     16  N   UNL     1     -18.890   3.987  31.057  0.00  0.00    +0.000 NA
ATOM     17  C   UNL     1     -18.137   4.445  32.012  0.00  0.00    +0.000 C 
BRANCH  16  18
ATOM     18  O   UNL     1     -18.493   4.395  29.780  0.00  0.00    +0.000 OA
BRANCH  18  19
ATOM     19  C   UNL     1     -18.915   3.413  28.826  0.00  0.00    +0.000 C 
BRANCH  19  20
ATOM     20  C   UNL     1     -18.045   3.486  27.598  0.00  0.00    +0.000 A 
ATOM     21  C   UNL     1     -17.774   4.718  26.986  0.00  0.00    +0.000 A 
ATOM     22  C   UNL     1     -17.534   2.307  27.029  0.00  0.00    +0.000 A 
ATOM     23  C   UNL     1     -16.491   3.597  25.273  0.00  0.00    +0.000 A 
ATOM     24  C   UNL     1     -16.998   4.779  25.828  0.00  0.00    +0.000 A 
ATOM     25  C   UNL     1     -16.755   2.359  25.871  0.00  0.00    +0.000 A 
BRANCH  23  28
ATOM     26  O   UNL     1     -14.709   4.416  24.033  0.00  0.00    +0.000 OA
ATOM     27  O   UNL     1     -16.027   2.929  23.100  0.00  0.00    +0.000 OA
ATOM     28  N   UNL     1     -15.686   3.651  24.048  0.00  0.00    +0.000 N 
ENDBRANCH  23  28
ENDBRANCH  19  20
ENDBRANCH  18  19
ENDBRANCH  16  18
ENDBRANCH   4  17
TORSDOF 6
ENDMDL
MODEL 9
REMARK VINA RESULT:      -5.5     27.455     30.036
REMARK  Name = 5091255
REMARK  6 active torsions:
REMARK  status: ('A' for Active; 'I' for Inactive)
REMARK    1  A    between atoms: O_3  and  N_8
REMARK    2  A    between atoms: O_3  and  C_22
REMARK    3  A    between atoms: N_9  and  C_26
REMARK    4  A    between atoms: C_10  and  C_15
REMARK    5  A    between atoms: C_11  and  C_13
REMARK    6  A    between atoms: C_19  and  C_22
REMARK                            x       y       z     vdW  Elec       q    Type
REMARK                         _______ _______ _______ _____ _____    ______ ____
ROOT
ATOM      1  S   UNL     1      -5.938 -15.322  14.450  0.00  0.00    +0.000 S 
ATOM      2  N   UNL     1      -5.858 -13.865  16.576  0.00  0.00    +0.000 N 
ATOM      3  N   UNL     1      -7.430 -13.076  15.192  0.00  0.00    +0.000 NA
ATOM      4  C   UNL     1      -6.420 -12.804  17.253  0.00  0.00    +0.000 A 
ATOM      5  C   UNL     1      -7.369 -12.313  16.343  0.00  0.00    +0.000 A 
ATOM      6  C   UNL     1      -6.507 -13.971  15.380  0.00  0.00    +0.000 A 
ATOM      7  C   UNL     1      -4.904 -14.842  16.790  0.00  0.00    +0.000 A 
ATOM      8  C   UNL     1      -4.803 -15.690  15.751  0.00  0.00    +0.000 A 
ENDROOT
BRANCH   5  10
ATOM      9 CL   UNL     1     -11.068  -7.682  17.162  0.00  0.00    +0.000 Cl
ATOM     10  C   UNL     1      -8.253 -11.170  16.534  0.00  0.00    +0.000 A 
ATOM     11  C   UNL     1      -9.636 -11.382  16.651  0.00  0.00    +0.000 A 
ATOM     12  C   UNL     1      -7.767  -9.854  16.571  0.00  0.00    +0.000 A 
ATOM     13  C   UNL     1     -10.509 -10.304  16.840  0.00  0.00    +0.000 A 
ATOM     14  C   UNL     1      -8.636  -8.779  16.775  0.00  0.00    +0.000 A 
ATOM     15  C   UNL     1     -10.002  -9.008  16.912  0.00  0.00    +0.000 A 
ENDBRANCH   5  10
BRANCH   4  17
ATOM     16  N   UNL     1      -5.477 -11.433  19.100  0.00  0.00    +0.000 NA
ATOM     17  C   UNL     1      -6.204 -12.394  18.614  0.00  0.00    +0.000 C 
BRANCH  16  18
ATOM     18  O   UNL     1      -4.888 -10.623  18.126  0.00  0.00    +0.000 OA
BRANCH  18  19
ATOM     19  C   UNL     1      -3.568 -11.109  17.852  0.00  0.00    +0.000 C 
BRANCH  19  20
ATOM     20  C   UNL     1      -3.224 -10.868  16.405  0.00  0.00    +0.000 A 
ATOM     21  C   UNL     1      -4.224 -10.875  15.422  0.00  0.00    +0.000 A 
ATOM     22  C   UNL     1      -1.886 -10.681  16.023  0.00  0.00    +0.000 A 
ATOM     23  C   UNL     1      -2.561 -10.498  13.711  0.00  0.00    +0.000 A 
ATOM     24  C   UNL     1      -3.900 -10.689  14.078  0.00  0.00    +0.000 A 
ATOM     25  C   UNL     1      -1.551 -10.491  14.680  0.00  0.00    +0.000 A 
BRANCH  23  28
ATOM     26  O   UNL     1      -2.968 -10.804  11.447  0.00  0.00    +0.000 OA
ATOM     27  O   UNL     1      -1.175  -9.684  12.039  0.00  0.00    +0.000 OA
ATOM     28  N   UNL     1      -2.209 -10.315  12.299  0.00  0.00    +0.000 N 
ENDBRANCH  23  28
ENDBRANCH  19  20
ENDBRANCH  18  19
ENDBRANCH  16  18
ENDBRANCH   4  17
TORSDOF 6
ENDMDL
MODEL 10
REMARK VINA RESULT:      -5.4      7.645     11.166
REMARK  Name = 5091255
REMARK  6 active torsions:
REMARK  status: ('A' for Active; 'I' for Inactive)
REMARK    1  A    between atoms: O_3  and  N_8
REMARK    2  A    between atoms: O_3  and  C_22
REMARK    3  A    between atoms: N_9  and  C_26
REMARK    4  A    between atoms: C_10  and  C_15
REMARK    5  A    between atoms: C_11  and  C_13
REMARK    6  A    between atoms: C_19  and  C_22
REMARK                            x       y       z     vdW  Elec       q    Type
REMARK                         _______ _______ _______ _____ _____    ______ ____
ROOT
ATOM      1  S   UNL     1      25.751   7.652  21.190  0.00  0.00    +0.000 S 
ATOM      2  N   UNL     1      24.098   5.972  22.237  0.00  0.00    +0.000 N 
ATOM      3  N   UNL     1      23.009   7.282  20.784  0.00  0.00    +0.000 NA
ATOM      4  C   UNL     1      22.802   5.502  22.245  0.00  0.00    +0.000 A 
ATOM      5  C   UNL     1      22.144   6.368  21.358  0.00  0.00    +0.000 A 
ATOM      6  C   UNL     1      24.147   7.008  21.350  0.00  0.00    +0.000 A 
ATOM      7  C   UNL     1      25.317   5.658  22.807  0.00  0.00    +0.000 A 
ATOM      8  C   UNL     1      26.303   6.465  22.375  0.00  0.00    +0.000 A 
ENDROOT
BRANCH   5  10
ATOM      9 CL   UNL     1      16.342   6.360  19.895  0.00  0.00    +0.000 Cl
ATOM     10  C   UNL     1      20.733   6.342  20.996  0.00  0.00    +0.000 A 
ATOM     11  C   UNL     1      19.880   7.348  21.478  0.00  0.00    +0.000 A 
ATOM     12  C   UNL     1      20.188   5.320  20.204  0.00  0.00    +0.000 A 
ATOM     13  C   UNL     1      18.521   7.353  21.143  0.00  0.00    +0.000 A 
ATOM     14  C   UNL     1      18.835   5.332  19.856  0.00  0.00    +0.000 A 
ATOM     15  C   UNL     1      18.007   6.349  20.324  0.00  0.00    +0.000 A 
ENDBRANCH   5  10
BRANCH   4  17
ATOM     16  N   UNL     1      22.091   3.126  22.409  0.00  0.00    +0.000 NA
ATOM     17  C   UNL     1      22.280   4.322  22.880  0.00  0.00    +0.000 C 
BRANCH  16  18
ATOM     18  O   UNL     1      22.557   2.953  21.103  0.00  0.00    +0.000 OA
BRANCH  18  19
ATOM     19  C   UNL     1      23.645   2.021  21.115  0.00  0.00    +0.000 C 
BRANCH  19  20
ATOM     20  C   UNL     1      24.900   2.692  20.623  0.00  0.00    +0.000 A 
ATOM     21  C   UNL     1      26.142   2.400  21.204  0.00  0.00    +0.000 A 
ATOM     22  C   UNL     1      24.826   3.656  19.603  0.00  0.00    +0.000 A 
ATOM     23  C   UNL     1      27.212   4.007  19.750  0.00  0.00    +0.000 A 
ATOM     24  C   UNL     1      27.298   3.051  20.771  0.00  0.00    +0.000 A 
ATOM     25  C   UNL     1      25.979   4.311  19.162  0.00  0.00    +0.000 A 
BRANCH  23  28
ATOM     26  O   UNL     1      29.128   4.142  18.450  0.00  0.00    +0.000 OA
ATOM     27  O   UNL     1      28.663   5.816  19.791  0.00  0.00    +0.000 OA
ATOM     28  N   UNL     1      28.420   4.705  19.299  0.00  0.00    +0.000 N 
ENDBRANCH  23  28
ENDBRANCH  19  20
ENDBRANCH  18  19
ENDBRANCH  16  18
ENDBRANCH   4  17
TORSDOF 6
ENDMDL
