MODEL 1
REMARK VINA RESULT:      -5.7      0.000      0.000
REMARK  Name = 5523764
REMARK  5 active torsions:
REMARK  status: ('A' for Active; 'I' for Inactive)
REMARK    1  A    between atoms: O_4  and  N_8
REMARK    2  A    between atoms: O_4  and  C_24
REMARK    3  A    between atoms: C_9  and  C_14
REMARK    4  A    between atoms: C_10  and  C_12
REMARK    5  A    between atoms: C_21  and  C_24
REMARK                            x       y       z     vdW  Elec       q    Type
REMARK                         _______ _______ _______ _____ _____    ______ ____
ROOT
ATOM      1  S   UNL     1      -1.993   7.847 -58.998  0.00  0.00    +0.000 S 
ATOM      2  N   UNL     1      -3.399   6.238 -57.572  0.00  0.00    +0.000 N 
ATOM      3  N   UNL     1      -3.675   5.718 -59.724  0.00  0.00    +0.000 NA
ATOM      4  C   UNL     1      -4.275   5.175 -57.562  0.00  0.00    +0.000 A 
ATOM      5  C   UNL     1      -4.413   4.859 -58.919  0.00  0.00    +0.000 A 
ATOM      6  C   UNL     1      -3.082   6.500 -58.869  0.00  0.00    +0.000 A 
ATOM      7  C   UNL     1      -2.820   7.086 -56.649  0.00  0.00    +0.000 A 
ATOM      8  C   UNL     1      -2.035   8.004 -57.237  0.00  0.00    +0.000 A 
ENDROOT
BRANCH   5   9
ATOM      9  C   UNL     1      -5.210   3.787 -59.508  0.00  0.00    +0.000 A 
ATOM     10  C   UNL     1      -6.341   4.042 -60.294  0.00  0.00    +0.000 A 
ATOM     11  C   UNL     1      -4.858   2.452 -59.259  0.00  0.00    +0.000 A 
ATOM     12  C   UNL     1      -7.048   2.994 -60.891  0.00  0.00    +0.000 A 
ATOM     13  C   UNL     1      -5.578   1.403 -59.838  0.00  0.00    +0.000 A 
ATOM     14  C   UNL     1      -6.662   1.676 -60.670  0.00  0.00    +0.000 A 
ENDBRANCH   5   9
BRANCH   4  16
ATOM     15  N   UNL     1      -4.328   3.545 -55.861  0.00  0.00    +0.000 NA
ATOM     16  C   UNL     1      -4.858   4.602 -56.378  0.00  0.00    +0.000 C 
BRANCH  15  17
ATOM     17  O   UNL     1      -5.053   3.079 -54.742  0.00  0.00    +0.000 OA
BRANCH  17  19
ATOM     18  O   UNL     1      -3.195   1.747 -54.339  0.00  0.00    +0.000 OA
ATOM     19  C   UNL     1      -4.391   1.990 -54.231  0.00  0.00    +0.000 C 
BRANCH  19  22
ATOM     20 CL   UNL     1      -8.745  -0.896 -53.919  0.00  0.00    +0.000 Cl
ATOM     21 CL   UNL     1      -7.856  -1.636 -50.882  0.00  0.00    +0.000 Cl
ATOM     22  C   UNL     1      -5.294   1.073 -53.478  0.00  0.00    +0.000 A 
ATOM     23  C   UNL     1      -6.483   0.547 -54.002  0.00  0.00    +0.000 A 
ATOM     24  C   UNL     1      -4.926   0.742 -52.162  0.00  0.00    +0.000 A 
ATOM     25  C   UNL     1      -7.286  -0.292 -53.213  0.00  0.00    +0.000 A 
ATOM     26  C   UNL     1      -5.725  -0.093 -51.378  0.00  0.00    +0.000 A 
ATOM     27  C   UNL     1      -6.910  -0.613 -51.902  0.00  0.00    +0.000 A 
ENDBRANCH  19  22
ENDBRANCH  17  19
ENDBRANCH  15  17
ENDBRANCH   4  16
TORSDOF 5
ENDMDL
MODEL 2
REMARK VINA RESULT:      -5.6     22.884     26.539
REMARK  Name = 5523764
REMARK  5 active torsions:
REMARK  status: ('A' for Active; 'I' for Inactive)
REMARK    1  A    between atoms: O_4  and  N_8
REMARK    2  A    between atoms: O_4  and  C_24
REMARK    3  A    between atoms: C_9  and  C_14
REMARK    4  A    between atoms: C_10  and  C_12
REMARK    5  A    between atoms: C_21  and  C_24
REMARK                            x       y       z     vdW  Elec       q    Type
REMARK                         _______ _______ _______ _____ _____    ______ ____
ROOT
ATOM      1  S   UNL     1     -10.162   6.738 -27.128  0.00  0.00    +0.000 S 
ATOM      2  N   UNL     1      -9.643   8.055 -29.271  0.00  0.00    +0.000 N 
ATOM      3  N   UNL     1      -7.969   8.348 -27.825  0.00  0.00    +0.000 NA
ATOM      4  C   UNL     1      -8.762   8.889 -29.925  0.00  0.00    +0.000 A 
ATOM      5  C   UNL     1      -7.716   9.038 -29.004  0.00  0.00    +0.000 A 
ATOM      6  C   UNL     1      -9.114   7.772 -28.050  0.00  0.00    +0.000 A 
ATOM      7  C   UNL     1     -10.880   7.494 -29.514  0.00  0.00    +0.000 A 
ATOM      8  C   UNL     1     -11.307   6.756 -28.476  0.00  0.00    +0.000 A 
ENDROOT
BRANCH   5   9
ATOM      9  C   UNL     1      -6.484   9.802 -29.171  0.00  0.00    +0.000 A 
ATOM     10  C   UNL     1      -5.487   9.424 -30.079  0.00  0.00    +0.000 A 
ATOM     11  C   UNL     1      -6.267  10.938 -28.376  0.00  0.00    +0.000 A 
ATOM     12  C   UNL     1      -4.344  10.211 -30.254  0.00  0.00    +0.000 A 
ATOM     13  C   UNL     1      -5.114  11.713 -28.536  0.00  0.00    +0.000 A 
ATOM     14  C   UNL     1      -4.161  11.358 -29.489  0.00  0.00    +0.000 A 
ENDBRANCH   5   9
BRANCH   4  16
ATOM     15  N   UNL     1      -8.940   8.634 -32.261  0.00  0.00    +0.000 NA
ATOM     16  C   UNL     1      -8.965   9.428 -31.243  0.00  0.00    +0.000 C 
BRANCH  15  17
ATOM     17  O   UNL     1      -9.097   9.328 -33.481  0.00  0.00    +0.000 OA
BRANCH  17  19
ATOM     18  O   UNL     1     -11.369   9.755 -33.691  0.00  0.00    +0.000 OA
ATOM     19  C   UNL     1     -10.368   9.094 -33.942  0.00  0.00    +0.000 C 
BRANCH  19  22
ATOM     20 CL   UNL     1      -8.049   5.273 -36.663  0.00  0.00    +0.000 Cl
ATOM     21 CL   UNL     1     -11.018   4.359 -37.620  0.00  0.00    +0.000 Cl
ATOM     22  C   UNL     1     -10.442   7.903 -34.837  0.00  0.00    +0.000 A 
ATOM     23  C   UNL     1      -9.319   7.193 -35.282  0.00  0.00    +0.000 A 
ATOM     24  C   UNL     1     -11.718   7.493 -35.261  0.00  0.00    +0.000 A 
ATOM     25  C   UNL     1      -9.479   6.096 -36.142  0.00  0.00    +0.000 A 
ATOM     26  C   UNL     1     -11.877   6.401 -36.117  0.00  0.00    +0.000 A 
ATOM     27  C   UNL     1     -10.756   5.698 -36.561  0.00  0.00    +0.000 A 
ENDBRANCH  19  22
ENDBRANCH  17  19
ENDBRANCH  15  17
ENDBRANCH   4  16
TORSDOF 5
ENDMDL
MODEL 3
REMARK VINA RESULT:      -5.5      6.700      9.560
REMARK  Name = 5523764
REMARK  5 active torsions:
REMARK  status: ('A' for Active; 'I' for Inactive)
REMARK    1  A    between atoms: O_4  and  N_8
REMARK    2  A    between atoms: O_4  and  C_24
REMARK    3  A    between atoms: C_9  and  C_14
REMARK    4  A    between atoms: C_10  and  C_12
REMARK    5  A    between atoms: C_21  and  C_24
REMARK                            x       y       z     vdW  Elec       q    Type
REMARK                         _______ _______ _______ _____ _____    ______ ____
ROOT
ATOM      1  S   UNL     1      -9.282  -3.609 -48.635  0.00  0.00    +0.000 S 
ATOM      2  N   UNL     1      -7.232  -3.639 -50.183  0.00  0.00    +0.000 N 
ATOM      3  N   UNL     1      -8.160  -1.611 -50.258  0.00  0.00    +0.000 NA
ATOM      4  C   UNL     1      -6.446  -2.931 -51.065  0.00  0.00    +0.000 A 
ATOM      5  C   UNL     1      -7.037  -1.662 -51.076  0.00  0.00    +0.000 A 
ATOM      6  C   UNL     1      -8.213  -2.805 -49.742  0.00  0.00    +0.000 A 
ATOM      7  C   UNL     1      -7.297  -4.925 -49.687  0.00  0.00    +0.000 A 
ATOM      8  C   UNL     1      -8.329  -5.085 -48.842  0.00  0.00    +0.000 A 
ENDROOT
BRANCH   5   9
ATOM      9  C   UNL     1      -6.606  -0.483 -51.822  0.00  0.00    +0.000 A 
ATOM     10  C   UNL     1      -5.782   0.498 -51.259  0.00  0.00    +0.000 A 
ATOM     11  C   UNL     1      -7.053  -0.303 -53.140  0.00  0.00    +0.000 A 
ATOM     12  C   UNL     1      -5.341   1.585 -52.019  0.00  0.00    +0.000 A 
ATOM     13  C   UNL     1      -6.630   0.796 -53.894  0.00  0.00    +0.000 A 
ATOM     14  C   UNL     1      -5.758   1.730 -53.339  0.00  0.00    +0.000 A 
ENDBRANCH   5   9
BRANCH   4  16
ATOM     15  N   UNL     1      -5.414  -3.764 -53.013  0.00  0.00    +0.000 NA
ATOM     16  C   UNL     1      -5.306  -3.466 -51.762  0.00  0.00    +0.000 C 
BRANCH  15  17
ATOM     17  O   UNL     1      -4.228  -4.330 -53.530  0.00  0.00    +0.000 OA
BRANCH  17  19
ATOM     18  O   UNL     1      -4.312  -4.965 -55.761  0.00  0.00    +0.000 OA
ATOM     19  C   UNL     1      -4.210  -4.114 -54.885  0.00  0.00    +0.000 C 
BRANCH  19  22
ATOM     20 CL   UNL     1      -2.205   0.625 -53.937  0.00  0.00    +0.000 Cl
ATOM     21 CL   UNL     1      -3.867   1.680 -56.523  0.00  0.00    +0.000 Cl
ATOM     22  C   UNL     1      -4.056  -2.672 -55.232  0.00  0.00    +0.000 A 
ATOM     23  C   UNL     1      -3.263  -1.776 -54.504  0.00  0.00    +0.000 A 
ATOM     24  C   UNL     1      -4.768  -2.198 -56.348  0.00  0.00    +0.000 A 
ATOM     25  C   UNL     1      -3.193  -0.428 -54.889  0.00  0.00    +0.000 A 
ATOM     26  C   UNL     1      -4.698  -0.857 -56.731  0.00  0.00    +0.000 A 
ATOM     27  C   UNL     1      -3.909   0.034 -56.002  0.00  0.00    +0.000 A 
ENDBRANCH  19  22
ENDBRANCH  17  19
ENDBRANCH  15  17
ENDBRANCH   4  16
TORSDOF 5
ENDMDL
MODEL 4
REMARK VINA RESULT:      -5.4     18.416     19.385
REMARK  Name = 5523764
REMARK  5 active torsions:
REMARK  status: ('A' for Active; 'I' for Inactive)
REMARK    1  A    between atoms: O_4  and  N_8
REMARK    2  A    between atoms: O_4  and  C_24
REMARK    3  A    between atoms: C_9  and  C_14
REMARK    4  A    between atoms: C_10  and  C_12
REMARK    5  A    between atoms: C_21  and  C_24
REMARK                            x       y       z     vdW  Elec       q    Type
REMARK                         _______ _______ _______ _____ _____    ______ ____
ROOT
ATOM      1  S   UNL     1     -25.185  10.913 -55.715  0.00  0.00    +0.000 S 
ATOM      2  N   UNL     1     -23.776   9.577 -54.034  0.00  0.00    +0.000 N 
ATOM      3  N   UNL     1     -23.050   9.128 -56.096  0.00  0.00    +0.000 NA
ATOM      4  C   UNL     1     -22.748   8.678 -53.851  0.00  0.00    +0.000 A 
ATOM      5  C   UNL     1     -22.301   8.430 -55.156  0.00  0.00    +0.000 A 
ATOM      6  C   UNL     1     -23.894   9.803 -55.370  0.00  0.00    +0.000 A 
ATOM      7  C   UNL     1     -24.692  10.244 -53.247  0.00  0.00    +0.000 A 
ATOM      8  C   UNL     1     -25.520  11.007 -53.982  0.00  0.00    +0.000 A 
ENDROOT
BRANCH   5   9
ATOM      9  C   UNL     1     -21.202   7.565 -55.573  0.00  0.00    +0.000 A 
ATOM     10  C   UNL     1     -21.374   6.192 -55.793  0.00  0.00    +0.000 A 
ATOM     11  C   UNL     1     -19.920   8.111 -55.731  0.00  0.00    +0.000 A 
ATOM     12  C   UNL     1     -20.313   5.403 -56.248  0.00  0.00    +0.000 A 
ATOM     13  C   UNL     1     -18.853   7.317 -56.164  0.00  0.00    +0.000 A 
ATOM     14  C   UNL     1     -19.056   5.966 -56.441  0.00  0.00    +0.000 A 
ENDBRANCH   5   9
BRANCH   4  16
ATOM     15  N   UNL     1     -23.054   7.311 -51.956  0.00  0.00    +0.000 NA
ATOM     16  C   UNL     1     -22.317   8.170 -52.576  0.00  0.00    +0.000 C 
BRANCH  15  17
ATOM     17  O   UNL     1     -22.519   6.962 -50.697  0.00  0.00    +0.000 OA
BRANCH  17  19
ATOM     18  O   UNL     1     -23.474   8.617 -49.379  0.00  0.00    +0.000 OA
ATOM     19  C   UNL     1     -23.361   7.448 -49.727  0.00  0.00    +0.000 C 
BRANCH  19  22
ATOM     20 CL   UNL     1     -26.145   3.030 -50.066  0.00  0.00    +0.000 Cl
ATOM     21 CL   UNL     1     -26.726   3.330 -46.883  0.00  0.00    +0.000 Cl
ATOM     22  C   UNL     1     -24.187   6.378 -49.098  0.00  0.00    +0.000 A 
ATOM     23  C   UNL     1     -24.721   5.290 -49.802  0.00  0.00    +0.000 A 
ATOM     24  C   UNL     1     -24.449   6.491 -47.721  0.00  0.00    +0.000 A 
ATOM     25  C   UNL     1     -25.508   4.340 -49.132  0.00  0.00    +0.000 A 
ATOM     26  C   UNL     1     -25.231   5.545 -47.056  0.00  0.00    +0.000 A 
ATOM     27  C   UNL     1     -25.765   4.465 -47.761  0.00  0.00    +0.000 A 
ENDBRANCH  19  22
ENDBRANCH  17  19
ENDBRANCH  15  17
ENDBRANCH   4  16
TORSDOF 5
ENDMDL
MODEL 5
REMARK VINA RESULT:      -5.4     20.383     21.841
REMARK  Name = 5523764
REMARK  5 active torsions:
REMARK  status: ('A' for Active; 'I' for Inactive)
REMARK    1  A    between atoms: O_4  and  N_8
REMARK    2  A    between atoms: O_4  and  C_24
REMARK    3  A    between atoms: C_9  and  C_14
REMARK    4  A    between atoms: C_10  and  C_12
REMARK    5  A    between atoms: C_21  and  C_24
REMARK                            x       y       z     vdW  Elec       q    Type
REMARK                         _______ _______ _______ _____ _____    ______ ____
ROOT
ATOM      1  S   UNL     1     -17.299  19.923 -40.185  0.00  0.00    +0.000 S 
ATOM      2  N   UNL     1     -17.295  18.223 -42.111  0.00  0.00    +0.000 N 
ATOM      3  N   UNL     1     -15.261  19.126 -41.947  0.00  0.00    +0.000 NA
ATOM      4  C   UNL     1     -16.566  17.620 -43.113  0.00  0.00    +0.000 A 
ATOM      5  C   UNL     1     -15.294  18.190 -42.973  0.00  0.00    +0.000 A 
ATOM      6  C   UNL     1     -16.469  19.087 -41.462  0.00  0.00    +0.000 A 
ATOM      7  C   UNL     1     -18.594  18.201 -41.647  0.00  0.00    +0.000 A 
ATOM      8  C   UNL     1     -18.772  19.046 -40.618  0.00  0.00    +0.000 A 
ENDROOT
BRANCH   5   9
ATOM      9  C   UNL     1     -14.098  17.903 -43.759  0.00  0.00    +0.000 A 
ATOM     10  C   UNL     1     -13.624  18.778 -44.745  0.00  0.00    +0.000 A 
ATOM     11  C   UNL     1     -13.409  16.699 -43.548  0.00  0.00    +0.000 A 
ATOM     12  C   UNL     1     -12.443  18.501 -45.439  0.00  0.00    +0.000 A 
ATOM     13  C   UNL     1     -12.239  16.411 -44.258  0.00  0.00    +0.000 A 
ATOM     14  C   UNL     1     -11.747  17.322 -45.191  0.00  0.00    +0.000 A 
ENDBRANCH   5   9
BRANCH   4  16
ATOM     15  N   UNL     1     -17.337  17.003 -45.253  0.00  0.00    +0.000 NA
ATOM     16  C   UNL     1     -17.088  16.649 -44.038  0.00  0.00    +0.000 C 
BRANCH  15  17
ATOM     17  O   UNL     1     -17.896  15.951 -46.010  0.00  0.00    +0.000 OA
BRANCH  17  19
ATOM     18  O   UNL     1     -16.749  13.975 -45.601  0.00  0.00    +0.000 OA
ATOM     19  C   UNL     1     -16.915  15.015 -46.227  0.00  0.00    +0.000 C 
BRANCH  19  22
ATOM     20 CL   UNL     1     -16.061  15.705 -51.343  0.00  0.00    +0.000 Cl
ATOM     21 CL   UNL     1     -12.998  16.473 -50.574  0.00  0.00    +0.000 Cl
ATOM     22  C   UNL     1     -16.017  15.381 -47.359  0.00  0.00    +0.000 A 
ATOM     23  C   UNL     1     -16.419  15.390 -48.701  0.00  0.00    +0.000 A 
ATOM     24  C   UNL     1     -14.688  15.715 -47.046  0.00  0.00    +0.000 A 
ATOM     25  C   UNL     1     -15.499  15.725 -49.707  0.00  0.00    +0.000 A 
ATOM     26  C   UNL     1     -13.773  16.049 -48.047  0.00  0.00    +0.000 A 
ATOM     27  C   UNL     1     -14.176  16.055 -49.383  0.00  0.00    +0.000 A 
ENDBRANCH  19  22
ENDBRANCH  17  19
ENDBRANCH  15  17
ENDBRANCH   4  16
TORSDOF 5
ENDMDL
MODEL 6
REMARK VINA RESULT:      -5.3     13.179     14.752
REMARK  Name = 5523764
REMARK  5 active torsions:
REMARK  status: ('A' for Active; 'I' for Inactive)
REMARK    1  A    between atoms: O_4  and  N_8
REMARK    2  A    between atoms: O_4  and  C_24
REMARK    3  A    between atoms: C_9  and  C_14
REMARK    4  A    between atoms: C_10  and  C_12
REMARK    5  A    between atoms: C_21  and  C_24
REMARK                            x       y       z     vdW  Elec       q    Type
REMARK                         _______ _______ _______ _____ _____    ______ ____
ROOT
ATOM      1  S   UNL     1     -16.991  13.097 -63.672  0.00  0.00    +0.000 S 
ATOM      2  N   UNL     1     -16.023  12.275 -61.439  0.00  0.00    +0.000 N 
ATOM      3  N   UNL     1     -18.184  12.751 -61.153  0.00  0.00    +0.000 NA
ATOM      4  C   UNL     1     -16.265  12.002 -60.111  0.00  0.00    +0.000 A 
ATOM      5  C   UNL     1     -17.628  12.290 -59.966  0.00  0.00    +0.000 A 
ATOM      6  C   UNL     1     -17.191  12.702 -61.992  0.00  0.00    +0.000 A 
ATOM      7  C   UNL     1     -14.943  12.261 -62.298  0.00  0.00    +0.000 A 
ATOM      8  C   UNL     1     -15.281  12.668 -63.534  0.00  0.00    +0.000 A 
ENDROOT
BRANCH   5   9
ATOM      9  C   UNL     1     -18.444  12.158 -58.763  0.00  0.00    +0.000 A 
ATOM     10  C   UNL     1     -18.624  13.216 -57.862  0.00  0.00    +0.000 A 
ATOM     11  C   UNL     1     -19.048  10.925 -58.473  0.00  0.00    +0.000 A 
ATOM     12  C   UNL     1     -19.459  13.073 -56.750  0.00  0.00    +0.000 A 
ATOM     13  C   UNL     1     -19.865  10.776 -57.348  0.00  0.00    +0.000 A 
ATOM     14  C   UNL     1     -20.085  11.857 -56.497  0.00  0.00    +0.000 A 
ENDBRANCH   5   9
BRANCH   4  16
ATOM     15  N   UNL     1     -14.663  10.425 -59.402  0.00  0.00    +0.000 NA
ATOM     16  C   UNL     1     -15.276  11.538 -59.174  0.00  0.00    +0.000 C 
BRANCH  15  17
ATOM     17  O   UNL     1     -13.771  10.086 -58.361  0.00  0.00    +0.000 OA
BRANCH  17  19
ATOM     18  O   UNL     1     -11.993  10.797 -59.671  0.00  0.00    +0.000 OA
ATOM     19  C   UNL     1     -12.579  10.724 -58.598  0.00  0.00    +0.000 C 
BRANCH  19  22
ATOM     20 CL   UNL     1      -9.646  14.399 -56.303  0.00  0.00    +0.000 Cl
ATOM     21 CL   UNL     1     -10.439  13.041 -53.458  0.00  0.00    +0.000 Cl
ATOM     22  C   UNL     1     -12.022  11.369 -57.375  0.00  0.00    +0.000 A 
ATOM     23  C   UNL     1     -11.184  12.491 -57.399  0.00  0.00    +0.000 A 
ATOM     24  C   UNL     1     -12.355  10.795 -56.135  0.00  0.00    +0.000 A 
ATOM     25  C   UNL     1     -10.686  13.020 -56.198  0.00  0.00    +0.000 A 
ATOM     26  C   UNL     1     -11.859  11.322 -54.941  0.00  0.00    +0.000 A 
ATOM     27  C   UNL     1     -11.022  12.438 -54.968  0.00  0.00    +0.000 A 
ENDBRANCH  19  22
ENDBRANCH  17  19
ENDBRANCH  15  17
ENDBRANCH   4  16
TORSDOF 5
ENDMDL
MODEL 7
REMARK VINA RESULT:      -5.3     12.951     14.719
REMARK  Name = 5523764
REMARK  5 active torsions:
REMARK  status: ('A' for Active; 'I' for Inactive)
REMARK    1  A    between atoms: O_4  and  N_8
REMARK    2  A    between atoms: O_4  and  C_24
REMARK    3  A    between atoms: C_9  and  C_14
REMARK    4  A    between atoms: C_10  and  C_12
REMARK    5  A    between atoms: C_21  and  C_24
REMARK                            x       y       z     vdW  Elec       q    Type
REMARK                         _______ _______ _______ _____ _____    ______ ____
ROOT
ATOM      1  S   UNL     1     -12.025  11.393 -63.176  0.00  0.00    +0.000 S 
ATOM      2  N   UNL     1     -13.266  11.944 -60.996  0.00  0.00    +0.000 N 
ATOM      3  N   UNL     1     -11.147  11.443 -60.509  0.00  0.00    +0.000 NA
ATOM      4  C   UNL     1     -13.189  12.059 -59.625  0.00  0.00    +0.000 A 
ATOM      5  C   UNL     1     -11.848  11.759 -59.352  0.00  0.00    +0.000 A 
ATOM      6  C   UNL     1     -12.034  11.588 -61.450  0.00  0.00    +0.000 A 
ATOM      7  C   UNL     1     -14.236  12.056 -61.970  0.00  0.00    +0.000 A 
ATOM      8  C   UNL     1     -13.747  11.799 -63.195  0.00  0.00    +0.000 A 
ENDROOT
BRANCH   5   9
ATOM      9  C   UNL     1     -11.183  11.750 -58.052  0.00  0.00    +0.000 A 
ATOM     10  C   UNL     1     -11.530  10.845 -57.041  0.00  0.00    +0.000 A 
ATOM     11  C   UNL     1     -10.182  12.697 -57.786  0.00  0.00    +0.000 A 
ATOM     12  C   UNL     1     -10.834  10.826 -55.829  0.00  0.00    +0.000 A 
ATOM     13  C   UNL     1      -9.501  12.692 -56.564  0.00  0.00    +0.000 A 
ATOM     14  C   UNL     1      -9.815  11.743 -55.594  0.00  0.00    +0.000 A 
ENDBRANCH   5   9
BRANCH   4  16
ATOM     15  N   UNL     1     -14.581  13.651 -58.584  0.00  0.00    +0.000 NA
ATOM     16  C   UNL     1     -14.290  12.406 -58.766  0.00  0.00    +0.000 C 
BRANCH  15  17
ATOM     17  O   UNL     1     -15.645  13.821 -57.671  0.00  0.00    +0.000 OA
BRANCH  17  19
ATOM     18  O   UNL     1     -16.919  14.806 -59.342  0.00  0.00    +0.000 OA
ATOM     19  C   UNL     1     -16.791  14.043 -58.392  0.00  0.00    +0.000 C 
BRANCH  19  22
ATOM     20 CL   UNL     1     -20.938  13.395 -55.268  0.00  0.00    +0.000 Cl
ATOM     21 CL   UNL     1     -21.294  10.452 -56.602  0.00  0.00    +0.000 Cl
ATOM     22  C   UNL     1     -17.940  13.226 -57.906  0.00  0.00    +0.000 A 
ATOM     23  C   UNL     1     -18.836  13.653 -56.916  0.00  0.00    +0.000 A 
ATOM     24  C   UNL     1     -18.110  11.951 -58.472  0.00  0.00    +0.000 A 
ATOM     25  C   UNL     1     -19.878  12.808 -56.502  0.00  0.00    +0.000 A 
ATOM     26  C   UNL     1     -19.147  11.111 -58.059  0.00  0.00    +0.000 A 
ATOM     27  C   UNL     1     -20.035  11.537 -57.071  0.00  0.00    +0.000 A 
ENDBRANCH  19  22
ENDBRANCH  17  19
ENDBRANCH  15  17
ENDBRANCH   4  16
TORSDOF 5
ENDMDL
MODEL 8
REMARK VINA RESULT:      -5.3     23.917     26.918
REMARK  Name = 5523764
REMARK  5 active torsions:
REMARK  status: ('A' for Active; 'I' for Inactive)
REMARK    1  A    between atoms: O_4  and  N_8
REMARK    2  A    between atoms: O_4  and  C_24
REMARK    3  A    between atoms: C_9  and  C_14
REMARK    4  A    between atoms: C_10  and  C_12
REMARK    5  A    between atoms: C_21  and  C_24
REMARK                            x       y       z     vdW  Elec       q    Type
REMARK                         _______ _______ _______ _____ _____    ______ ____
ROOT
ATOM      1  S   UNL     1     -24.722   0.524 -48.556  0.00  0.00    +0.000 S 
ATOM      2  N   UNL     1     -26.749  -0.207 -47.157  0.00  0.00    +0.000 N 
ATOM      3  N   UNL     1     -25.426   1.068 -45.892  0.00  0.00    +0.000 NA
ATOM      4  C   UNL     1     -27.382  -0.156 -45.934  0.00  0.00    +0.000 A 
ATOM      5  C   UNL     1     -26.542   0.664 -45.170  0.00  0.00    +0.000 A 
ATOM      6  C   UNL     1     -25.614   0.538 -47.065  0.00  0.00    +0.000 A 
ATOM      7  C   UNL     1     -26.946  -0.820 -48.377  0.00  0.00    +0.000 A 
ATOM      8  C   UNL     1     -25.959  -0.535 -49.245  0.00  0.00    +0.000 A 
ENDROOT
BRANCH   5   9
ATOM      9  C   UNL     1     -26.729   1.090 -43.787  0.00  0.00    +0.000 A 
ATOM     10  C   UNL     1     -26.937   2.430 -43.438  0.00  0.00    +0.000 A 
ATOM     11  C   UNL     1     -26.670   0.135 -42.760  0.00  0.00    +0.000 A 
ATOM     12  C   UNL     1     -27.170   2.796 -42.110  0.00  0.00    +0.000 A 
ATOM     13  C   UNL     1     -26.881   0.505 -41.428  0.00  0.00    +0.000 A 
ATOM     14  C   UNL     1     -27.150   1.833 -41.106  0.00  0.00    +0.000 A 
ENDBRANCH   5   9
BRANCH   4  16
ATOM     15  N   UNL     1     -28.580  -1.908 -44.910  0.00  0.00    +0.000 NA
ATOM     16  C   UNL     1     -28.614  -0.830 -45.619  0.00  0.00    +0.000 C 
BRANCH  15  17
ATOM     17  O   UNL     1     -29.863  -2.474 -44.742  0.00  0.00    +0.000 OA
BRANCH  17  19
ATOM     18  O   UNL     1     -29.864  -4.224 -43.217  0.00  0.00    +0.000 OA
ATOM     19  C   UNL     1     -29.921  -3.031 -43.488  0.00  0.00    +0.000 C 
BRANCH  19  22
ATOM     20 CL   UNL     1     -29.162  -1.454 -38.557  0.00  0.00    +0.000 Cl
ATOM     21 CL   UNL     1     -30.702   1.294 -39.357  0.00  0.00    +0.000 Cl
ATOM     22  C   UNL     1     -30.056  -2.006 -42.413  0.00  0.00    +0.000 A 
ATOM     23  C   UNL     1     -29.577  -2.179 -41.108  0.00  0.00    +0.000 A 
ATOM     24  C   UNL     1     -30.719  -0.811 -42.741  0.00  0.00    +0.000 A 
ATOM     25  C   UNL     1     -29.768  -1.169 -40.151  0.00  0.00    +0.000 A 
ATOM     26  C   UNL     1     -30.909   0.193 -41.790  0.00  0.00    +0.000 A 
ATOM     27  C   UNL     1     -30.434   0.017 -40.489  0.00  0.00    +0.000 A 
ENDBRANCH  19  22
ENDBRANCH  17  19
ENDBRANCH  15  17
ENDBRANCH   4  16
TORSDOF 5
ENDMDL
MODEL 9
REMARK VINA RESULT:      -5.2     12.708     14.514
REMARK  Name = 5523764
REMARK  5 active torsions:
REMARK  status: ('A' for Active; 'I' for Inactive)
REMARK    1  A    between atoms: O_4  and  N_8
REMARK    2  A    between atoms: O_4  and  C_24
REMARK    3  A    between atoms: C_9  and  C_14
REMARK    4  A    between atoms: C_10  and  C_12
REMARK    5  A    between atoms: C_21  and  C_24
REMARK                            x       y       z     vdW  Elec       q    Type
REMARK                         _______ _______ _______ _____ _____    ______ ____
ROOT
ATOM      1  S   UNL     1      -8.715  12.612 -54.741  0.00  0.00    +0.000 S 
ATOM      2  N   UNL     1     -10.683  13.817 -55.870  0.00  0.00    +0.000 N 
ATOM      3  N   UNL     1     -10.631  11.704 -56.583  0.00  0.00    +0.000 NA
ATOM      4  C   UNL     1     -11.739  13.722 -56.750  0.00  0.00    +0.000 A 
ATOM      5  C   UNL     1     -11.693  12.385 -57.165  0.00  0.00    +0.000 A 
ATOM      6  C   UNL     1     -10.082  12.598 -55.813  0.00  0.00    +0.000 A 
ATOM      7  C   UNL     1     -10.089  14.796 -55.099  0.00  0.00    +0.000 A 
ATOM      8  C   UNL     1      -9.025  14.325 -54.427  0.00  0.00    +0.000 A 
ENDROOT
BRANCH   5   9
ATOM      9  C   UNL     1     -12.597  11.706 -58.087  0.00  0.00    +0.000 A 
ATOM     10  C   UNL     1     -13.547  10.773 -57.653  0.00  0.00    +0.000 A 
ATOM     11  C   UNL     1     -12.499  11.967 -59.462  0.00  0.00    +0.000 A 
ATOM     12  C   UNL     1     -14.437  10.184 -58.556  0.00  0.00    +0.000 A 
ATOM     13  C   UNL     1     -13.375  11.360 -60.369  0.00  0.00    +0.000 A 
ATOM     14  C   UNL     1     -14.356  10.483 -59.912  0.00  0.00    +0.000 A 
ENDBRANCH   5   9
BRANCH   4  16
ATOM     15  N   UNL     1     -13.647  15.048 -56.355  0.00  0.00    +0.000 NA
ATOM     16  C   UNL     1     -12.619  14.806 -57.097  0.00  0.00    +0.000 C 
BRANCH  15  17
ATOM     17  O   UNL     1     -14.436  16.102 -56.865  0.00  0.00    +0.000 OA
BRANCH  17  19
ATOM     18  O   UNL     1     -16.583  16.004 -55.990  0.00  0.00    +0.000 OA
ATOM     19  C   UNL     1     -15.749  15.702 -56.834  0.00  0.00    +0.000 C 
BRANCH  19  22
ATOM     20 CL   UNL     1     -18.036  11.414 -58.774  0.00  0.00    +0.000 Cl
ATOM     21 CL   UNL     1     -16.956  12.343 -61.696  0.00  0.00    +0.000 Cl
ATOM     22  C   UNL     1     -16.106  14.824 -57.986  0.00  0.00    +0.000 A 
ATOM     23  C   UNL     1     -16.851  13.644 -57.864  0.00  0.00    +0.000 A 
ATOM     24  C   UNL     1     -15.647  15.210 -59.258  0.00  0.00    +0.000 A 
ATOM     25  C   UNL     1     -17.122  12.866 -59.000  0.00  0.00    +0.000 A 
ATOM     26  C   UNL     1     -15.918  14.436 -60.387  0.00  0.00    +0.000 A 
ATOM     27  C   UNL     1     -16.657  13.259 -60.262  0.00  0.00    +0.000 A 
ENDBRANCH  19  22
ENDBRANCH  17  19
ENDBRANCH  15  17
ENDBRANCH   4  16
TORSDOF 5
ENDMDL
MODEL 10
REMARK VINA RESULT:      -5.2     19.211     21.738
REMARK  Name = 5523764
REMARK  5 active torsions:
REMARK  status: ('A' for Active; 'I' for Inactive)
REMARK    1  A    between atoms: O_4  and  N_8
REMARK    2  A    between atoms: O_4  and  C_24
REMARK    3  A    between atoms: C_9  and  C_14
REMARK    4  A    between atoms: C_10  and  C_12
REMARK    5  A    between atoms: C_21  and  C_24
REMARK                            x       y       z     vdW  Elec       q    Type
REMARK                         _______ _______ _______ _____ _____    ______ ____
ROOT
ATOM      1  S   UNL     1     -25.501   0.330 -49.042  0.00  0.00    +0.000 S 
ATOM      2  N   UNL     1     -25.064   2.681 -49.979  0.00  0.00    +0.000 N 
ATOM      3  N   UNL     1     -25.534   2.851 -47.804  0.00  0.00    +0.000 NA
ATOM      4  C   UNL     1     -25.000   4.032 -49.715  0.00  0.00    +0.000 A 
ATOM      5  C   UNL     1     -25.279   4.105 -48.344  0.00  0.00    +0.000 A 
ATOM      6  C   UNL     1     -25.373   2.047 -48.816  0.00  0.00    +0.000 A 
ATOM      7  C   UNL     1     -24.937   1.854 -51.077  0.00  0.00    +0.000 A 
ATOM      8  C   UNL     1     -25.135   0.564 -50.756  0.00  0.00    +0.000 A 
ENDROOT
BRANCH   5   9
ATOM      9  C   UNL     1     -25.323   5.299 -47.506  0.00  0.00    +0.000 A 
ATOM     10  C   UNL     1     -24.312   6.269 -47.532  0.00  0.00    +0.000 A 
ATOM     11  C   UNL     1     -26.394   5.476 -46.617  0.00  0.00    +0.000 A 
ATOM     12  C   UNL     1     -24.414   7.429 -46.759  0.00  0.00    +0.000 A 
ATOM     13  C   UNL     1     -26.484   6.626 -45.826  0.00  0.00    +0.000 A 
ATOM     14  C   UNL     1     -25.503   7.611 -45.912  0.00  0.00    +0.000 A 
ENDBRANCH   5   9
BRANCH   4  16
ATOM     15  N   UNL     1     -25.629   5.395 -51.532  0.00  0.00    +0.000 NA
ATOM     16  C   UNL     1     -24.712   5.047 -50.693  0.00  0.00    +0.000 C 
BRANCH  15  17
ATOM     17  O   UNL     1     -25.167   6.356 -52.457  0.00  0.00    +0.000 OA
BRANCH  17  19
ATOM     18  O   UNL     1     -25.379   4.779 -54.147  0.00  0.00    +0.000 OA
ATOM     19  C   UNL     1     -24.781   5.697 -53.598  0.00  0.00    +0.000 C 
BRANCH  19  22
ATOM     20 CL   UNL     1     -20.883   5.469 -57.081  0.00  0.00    +0.000 Cl
ATOM     21 CL   UNL     1     -19.579   8.030 -55.564  0.00  0.00    +0.000 Cl
ATOM     22  C   UNL     1     -23.503   6.223 -54.158  0.00  0.00    +0.000 A 
ATOM     23  C   UNL     1     -22.852   5.667 -55.267  0.00  0.00    +0.000 A 
ATOM     24  C   UNL     1     -22.925   7.330 -53.515  0.00  0.00    +0.000 A 
ATOM     25  C   UNL     1     -21.639   6.213 -55.714  0.00  0.00    +0.000 A 
ATOM     26  C   UNL     1     -21.718   7.874 -53.960  0.00  0.00    +0.000 A 
ATOM     27  C   UNL     1     -21.069   7.316 -55.063  0.00  0.00    +0.000 A 
ENDBRANCH  19  22
ENDBRANCH  17  19
ENDBRANCH  15  17
ENDBRANCH   4  16
TORSDOF 5
ENDMDL
