MODEL 1
REMARK VINA RESULT:      -6.2      0.000      0.000
REMARK  Name = 5523764
REMARK  5 active torsions:
REMARK  status: ('A' for Active; 'I' for Inactive)
REMARK    1  A    between atoms: O_4  and  N_8
REMARK    2  A    between atoms: O_4  and  C_24
REMARK    3  A    between atoms: C_9  and  C_14
REMARK    4  A    between atoms: C_10  and  C_12
REMARK    5  A    between atoms: C_21  and  C_24
REMARK                            x       y       z     vdW  Elec       q    Type
REMARK                         _______ _______ _______ _____ _____    ______ ____
ROOT
ATOM      1  S   UNL     1     -20.294   2.295  24.223  0.00  0.00    +0.000 S 
ATOM      2  N   UNL     1     -17.852   3.085  24.329  0.00  0.00    +0.000 N 
ATOM      3  N   UNL     1     -18.674   3.012  26.403  0.00  0.00    +0.000 NA
ATOM      4  C   UNL     1     -16.810   3.499  25.130  0.00  0.00    +0.000 A 
ATOM      5  C   UNL     1     -17.347   3.425  26.421  0.00  0.00    +0.000 A 
ATOM      6  C   UNL     1     -18.910   2.808  25.139  0.00  0.00    +0.000 A 
ATOM      7  C   UNL     1     -18.093   2.923  22.980  0.00  0.00    +0.000 A 
ATOM      8  C   UNL     1     -19.348   2.503  22.744  0.00  0.00    +0.000 A 
ENDROOT
BRANCH   5   9
ATOM      9  C   UNL     1     -16.678   3.725  27.684  0.00  0.00    +0.000 A 
ATOM     10  C   UNL     1     -16.949   4.888  28.415  0.00  0.00    +0.000 A 
ATOM     11  C   UNL     1     -15.706   2.840  28.174  0.00  0.00    +0.000 A 
ATOM     12  C   UNL     1     -16.334   5.117  29.649  0.00  0.00    +0.000 A 
ATOM     13  C   UNL     1     -15.074   3.080  29.398  0.00  0.00    +0.000 A 
ATOM     14  C   UNL     1     -15.402   4.210  30.144  0.00  0.00    +0.000 A 
ENDBRANCH   5   9
BRANCH   4  16
ATOM     15  N   UNL     1     -15.394   5.009  24.003  0.00  0.00    +0.000 NA
ATOM     16  C   UNL     1     -15.514   3.899  24.650  0.00  0.00    +0.000 C 
BRANCH  15  17
ATOM     17  O   UNL     1     -14.073   5.223  23.552  0.00  0.00    +0.000 OA
BRANCH  17  19
ATOM     18  O   UNL     1     -14.602   4.547  21.396  0.00  0.00    +0.000 OA
ATOM     19  C   UNL     1     -14.104   5.341  22.185  0.00  0.00    +0.000 C 
BRANCH  19  22
ATOM     20 CL   UNL     1     -14.008  10.550  21.707  0.00  0.00    +0.000 Cl
ATOM     21 CL   UNL     1     -11.245  10.195  20.032  0.00  0.00    +0.000 Cl
ATOM     22  C   UNL     1     -13.452   6.592  21.704  0.00  0.00    +0.000 A 
ATOM     23  C   UNL     1     -13.972   7.875  21.921  0.00  0.00    +0.000 A 
ATOM     24  C   UNL     1     -12.256   6.458  20.977  0.00  0.00    +0.000 A 
ATOM     25  C   UNL     1     -13.303   8.999  21.412  0.00  0.00    +0.000 A 
ATOM     26  C   UNL     1     -11.591   7.576  20.471  0.00  0.00    +0.000 A 
ATOM     27  C   UNL     1     -12.113   8.852  20.686  0.00  0.00    +0.000 A 
ENDBRANCH  19  22
ENDBRANCH  17  19
ENDBRANCH  15  17
ENDBRANCH   4  16
TORSDOF 5
ENDMDL
MODEL 2
REMARK VINA RESULT:      -5.8     17.887     19.704
REMARK  Name = 5523764
REMARK  5 active torsions:
REMARK  status: ('A' for Active; 'I' for Inactive)
REMARK    1  A    between atoms: O_4  and  N_8
REMARK    2  A    between atoms: O_4  and  C_24
REMARK    3  A    between atoms: C_9  and  C_14
REMARK    4  A    between atoms: C_10  and  C_12
REMARK    5  A    between atoms: C_21  and  C_24
REMARK                            x       y       z     vdW  Elec       q    Type
REMARK                         _______ _______ _______ _____ _____    ______ ____
ROOT
ATOM      1  S   UNL     1     -10.456  -7.252  16.232  0.00  0.00    +0.000 S 
ATOM      2  N   UNL     1     -10.297  -9.402  17.630  0.00  0.00    +0.000 N 
ATOM      3  N   UNL     1      -8.235  -8.744  17.087  0.00  0.00    +0.000 NA
ATOM      4  C   UNL     1      -9.471 -10.349  18.195  0.00  0.00    +0.000 A 
ATOM      5  C   UNL     1      -8.188  -9.901  17.856  0.00  0.00    +0.000 A 
ATOM      6  C   UNL     1      -9.508  -8.488  17.003  0.00  0.00    +0.000 A 
ATOM      7  C   UNL     1     -11.654  -9.178  17.513  0.00  0.00    +0.000 A 
ATOM      8  C   UNL     1     -11.918  -8.069  16.800  0.00  0.00    +0.000 A 
ENDROOT
BRANCH   5   9
ATOM      9  C   UNL     1      -6.909 -10.505  18.214  0.00  0.00    +0.000 A 
ATOM     10  C   UNL     1      -5.899 -10.733  17.270  0.00  0.00    +0.000 A 
ATOM     11  C   UNL     1      -6.685 -10.905  19.540  0.00  0.00    +0.000 A 
ATOM     12  C   UNL     1      -4.664 -11.261  17.658  0.00  0.00    +0.000 A 
ATOM     13  C   UNL     1      -5.457 -11.454  19.923  0.00  0.00    +0.000 A 
ATOM     14  C   UNL     1      -4.440 -11.614  18.985  0.00  0.00    +0.000 A 
ENDBRANCH   5   9
BRANCH   4  16
ATOM     15  N   UNL     1     -10.518 -11.321  20.069  0.00  0.00    +0.000 NA
ATOM     16  C   UNL     1      -9.924 -11.496  18.937  0.00  0.00    +0.000 C 
BRANCH  15  17
ATOM     17  O   UNL     1     -10.844 -12.546  20.693  0.00  0.00    +0.000 OA
BRANCH  17  19
ATOM     18  O   UNL     1     -13.038 -12.354  19.961  0.00  0.00    +0.000 OA
ATOM     19  C   UNL     1     -12.209 -12.604  20.828  0.00  0.00    +0.000 C 
BRANCH  19  22
ATOM     20 CL   UNL     1     -11.582 -15.585  25.082  0.00  0.00    +0.000 Cl
ATOM     21 CL   UNL     1     -14.232 -14.146  26.296  0.00  0.00    +0.000 Cl
ATOM     22  C   UNL     1     -12.631 -13.030  22.193  0.00  0.00    +0.000 A 
ATOM     23  C   UNL     1     -11.965 -14.007  22.945  0.00  0.00    +0.000 A 
ATOM     24  C   UNL     1     -13.776 -12.418  22.734  0.00  0.00    +0.000 A 
ATOM     25  C   UNL     1     -12.447 -14.363  24.214  0.00  0.00    +0.000 A 
ATOM     26  C   UNL     1     -14.254 -12.773  23.997  0.00  0.00    +0.000 A 
ATOM     27  C   UNL     1     -13.590 -13.749  24.742  0.00  0.00    +0.000 A 
ENDBRANCH  19  22
ENDBRANCH  17  19
ENDBRANCH  15  17
ENDBRANCH   4  16
TORSDOF 5
ENDMDL
MODEL 3
REMARK VINA RESULT:      -5.7     24.364     27.833
REMARK  Name = 5523764
REMARK  5 active torsions:
REMARK  status: ('A' for Active; 'I' for Inactive)
REMARK    1  A    between atoms: O_4  and  N_8
REMARK    2  A    between atoms: O_4  and  C_24
REMARK    3  A    between atoms: C_9  and  C_14
REMARK    4  A    between atoms: C_10  and  C_12
REMARK    5  A    between atoms: C_21  and  C_24
REMARK                            x       y       z     vdW  Elec       q    Type
REMARK                         _______ _______ _______ _____ _____    ______ ____
ROOT
ATOM      1  S   UNL     1      -0.250  13.805   3.943  0.00  0.00    +0.000 S 
ATOM      2  N   UNL     1      -1.238  12.032   2.368  0.00  0.00    +0.000 N 
ATOM      3  N   UNL     1      -1.789  11.515   4.468  0.00  0.00    +0.000 NA
ATOM      4  C   UNL     1      -1.971  10.871   2.259  0.00  0.00    +0.000 A 
ATOM      5  C   UNL     1      -2.319  10.583   3.584  0.00  0.00    +0.000 A 
ATOM      6  C   UNL     1      -1.177  12.358   3.688  0.00  0.00    +0.000 A 
ATOM      7  C   UNL     1      -0.555  12.884   1.526  0.00  0.00    +0.000 A 
ATOM      8  C   UNL     1       0.031  13.890   2.199  0.00  0.00    +0.000 A 
ENDROOT
BRANCH   5   9
ATOM      9  C   UNL     1      -3.125   9.468   4.073  0.00  0.00    +0.000 A 
ATOM     10  C   UNL     1      -4.490   9.349   3.784  0.00  0.00    +0.000 A 
ATOM     11  C   UNL     1      -2.528   8.493   4.887  0.00  0.00    +0.000 A 
ATOM     12  C   UNL     1      -5.220   8.239   4.220  0.00  0.00    +0.000 A 
ATOM     13  C   UNL     1      -3.263   7.394   5.342  0.00  0.00    +0.000 A 
ATOM     14  C   UNL     1      -4.605   7.258   4.991  0.00  0.00    +0.000 A 
ENDBRANCH   5   9
BRANCH   4  16
ATOM     15  N   UNL     1      -1.332   9.471   0.474  0.00  0.00    +0.000 NA
ATOM     16  C   UNL     1      -2.253  10.191   1.022  0.00  0.00    +0.000 C 
BRANCH  15  17
ATOM     17  O   UNL     1      -1.750   8.922  -0.759  0.00  0.00    +0.000 OA
BRANCH  17  19
ATOM     18  O   UNL     1      -0.348  10.275  -2.020  0.00  0.00    +0.000 OA
ATOM     19  C   UNL     1      -1.455   9.828  -1.748  0.00  0.00    +0.000 C 
BRANCH  19  22
ATOM     20 CL   UNL     1      -3.653  12.225  -5.847  0.00  0.00    +0.000 Cl
ATOM     21 CL   UNL     1      -6.536  11.420  -4.579  0.00  0.00    +0.000 Cl
ATOM     22  C   UNL     1      -2.661  10.244  -2.520  0.00  0.00    +0.000 A 
ATOM     23  C   UNL     1      -2.607  10.960  -3.723  0.00  0.00    +0.000 A 
ATOM     24  C   UNL     1      -3.917   9.905  -1.986  0.00  0.00    +0.000 A 
ATOM     25  C   UNL     1      -3.795  11.331  -4.372  0.00  0.00    +0.000 A 
ATOM     26  C   UNL     1      -5.098  10.274  -2.633  0.00  0.00    +0.000 A 
ATOM     27  C   UNL     1      -5.041  10.990  -3.830  0.00  0.00    +0.000 A 
ENDBRANCH  19  22
ENDBRANCH  17  19
ENDBRANCH  15  17
ENDBRANCH   4  16
TORSDOF 5
ENDMDL
MODEL 4
REMARK VINA RESULT:      -5.7     26.738     28.926
REMARK  Name = 5523764
REMARK  5 active torsions:
REMARK  status: ('A' for Active; 'I' for Inactive)
REMARK    1  A    between atoms: O_4  and  N_8
REMARK    2  A    between atoms: O_4  and  C_24
REMARK    3  A    between atoms: C_9  and  C_14
REMARK    4  A    between atoms: C_10  and  C_12
REMARK    5  A    between atoms: C_21  and  C_24
REMARK                            x       y       z     vdW  Elec       q    Type
REMARK                         _______ _______ _______ _____ _____    ______ ____
ROOT
ATOM      1  S   UNL     1      13.209  14.468  26.385  0.00  0.00    +0.000 S 
ATOM      2  N   UNL     1      12.137  12.962  24.601  0.00  0.00    +0.000 N 
ATOM      3  N   UNL     1      11.214  14.990  24.478  0.00  0.00    +0.000 NA
ATOM      4  C   UNL     1      11.213  12.862  23.584  0.00  0.00    +0.000 A 
ATOM      5  C   UNL     1      10.666  14.150  23.517  0.00  0.00    +0.000 A 
ATOM      6  C   UNL     1      12.091  14.237  25.075  0.00  0.00    +0.000 A 
ATOM      7  C   UNL     1      13.025  12.130  25.252  0.00  0.00    +0.000 A 
ATOM      8  C   UNL     1      13.685  12.772  26.231  0.00  0.00    +0.000 A 
ENDROOT
BRANCH   5   9
ATOM      9  C   UNL     1       9.646  14.638  22.595  0.00  0.00    +0.000 A 
ATOM     10  C   UNL     1       8.310  14.809  22.979  0.00  0.00    +0.000 A 
ATOM     11  C   UNL     1       9.999  14.920  21.266  0.00  0.00    +0.000 A 
ATOM     12  C   UNL     1       7.370  15.334  22.087  0.00  0.00    +0.000 A 
ATOM     13  C   UNL     1       9.054  15.424  20.367  0.00  0.00    +0.000 A 
ATOM     14  C   UNL     1       7.743  15.648  20.784  0.00  0.00    +0.000 A 
ENDBRANCH   5   9
BRANCH   4  16
ATOM     15  N   UNL     1      11.801  11.266  21.953  0.00  0.00    +0.000 NA
ATOM     16  C   UNL     1      10.945  11.664  22.833  0.00  0.00    +0.000 C 
BRANCH  15  17
ATOM     17  O   UNL     1      11.361  10.114  21.266  0.00  0.00    +0.000 OA
BRANCH  17  19
ATOM     18  O   UNL     1      12.969   8.617  22.014  0.00  0.00    +0.000 OA
ATOM     19  C   UNL     1      12.433   9.268  21.126  0.00  0.00    +0.000 C 
BRANCH  19  22
ATOM     20 CL   UNL     1      14.178  11.567  16.761  0.00  0.00    +0.000 Cl
ATOM     21 CL   UNL     1      14.289   8.606  15.425  0.00  0.00    +0.000 Cl
ATOM     22  C   UNL     1      12.921   9.190  19.718  0.00  0.00    +0.000 A 
ATOM     23  C   UNL     1      13.305  10.307  18.964  0.00  0.00    +0.000 A 
ATOM     24  C   UNL     1      12.975   7.917  19.124  0.00  0.00    +0.000 A 
ATOM     25  C   UNL     1      13.730  10.144  17.637  0.00  0.00    +0.000 A 
ATOM     26  C   UNL     1      13.399   7.756  17.803  0.00  0.00    +0.000 A 
ATOM     27  C   UNL     1      13.778   8.870  17.054  0.00  0.00    +0.000 A 
ENDBRANCH  19  22
ENDBRANCH  17  19
ENDBRANCH  15  17
ENDBRANCH   4  16
TORSDOF 5
ENDMDL
MODEL 5
REMARK VINA RESULT:      -5.4     31.495     34.580
REMARK  Name = 5523764
REMARK  5 active torsions:
REMARK  status: ('A' for Active; 'I' for Inactive)
REMARK    1  A    between atoms: O_4  and  N_8
REMARK    2  A    between atoms: O_4  and  C_24
REMARK    3  A    between atoms: C_9  and  C_14
REMARK    4  A    between atoms: C_10  and  C_12
REMARK    5  A    between atoms: C_21  and  C_24
REMARK                            x       y       z     vdW  Elec       q    Type
REMARK                         _______ _______ _______ _____ _____    ______ ____
ROOT
ATOM      1  S   UNL     1      11.817  11.785   5.910  0.00  0.00    +0.000 S 
ATOM      2  N   UNL     1      12.306   9.448   4.963  0.00  0.00    +0.000 N 
ATOM      3  N   UNL     1      10.986   9.237   6.749  0.00  0.00    +0.000 NA
ATOM      4  C   UNL     1      12.107   8.090   5.088  0.00  0.00    +0.000 A 
ATOM      5  C   UNL     1      11.262   7.990   6.201  0.00  0.00    +0.000 A 
ATOM      6  C   UNL     1      11.616  10.060   5.962  0.00  0.00    +0.000 A 
ATOM      7  C   UNL     1      13.022  10.297   4.144  0.00  0.00    +0.000 A 
ATOM      8  C   UNL     1      12.872  11.583   4.505  0.00  0.00    +0.000 A 
ENDROOT
BRANCH   5   9
ATOM      9  C   UNL     1      10.698   6.778   6.786  0.00  0.00    +0.000 A 
ATOM     10  C   UNL     1      10.165   5.747   6.001  0.00  0.00    +0.000 A 
ATOM     11  C   UNL     1      10.654   6.644   8.182  0.00  0.00    +0.000 A 
ATOM     12  C   UNL     1       9.685   4.574   6.591  0.00  0.00    +0.000 A 
ATOM     13  C   UNL     1      10.152   5.480   8.773  0.00  0.00    +0.000 A 
ATOM     14  C   UNL     1       9.686   4.438   7.976  0.00  0.00    +0.000 A 
ENDBRANCH   5   9
BRANCH   4  16
ATOM     15  N   UNL     1      11.992   6.636   3.237  0.00  0.00    +0.000 NA
ATOM     16  C   UNL     1      12.684   7.092   4.227  0.00  0.00    +0.000 C 
BRANCH  15  17
ATOM     17  O   UNL     1      12.678   5.625   2.530  0.00  0.00    +0.000 OA
BRANCH  17  19
ATOM     18  O   UNL     1      11.005   4.091   3.014  0.00  0.00    +0.000 OA
ATOM     19  C   UNL     1      11.780   4.630   2.233  0.00  0.00    +0.000 C 
BRANCH  19  22
ATOM     20 CL   UNL     1       9.674   4.629  -2.556  0.00  0.00    +0.000 Cl
ATOM     21 CL   UNL     1      12.195   2.808  -3.501  0.00  0.00    +0.000 Cl
ATOM     22  C   UNL     1      11.816   4.237   0.795  0.00  0.00    +0.000 A 
ATOM     23  C   UNL     1      10.830   4.594  -0.135  0.00  0.00    +0.000 A 
ATOM     24  C   UNL     1      12.899   3.449   0.369  0.00  0.00    +0.000 A 
ATOM     25  C   UNL     1      10.932   4.161  -1.466  0.00  0.00    +0.000 A 
ATOM     26  C   UNL     1      13.000   3.019  -0.956  0.00  0.00    +0.000 A 
ATOM     27  C   UNL     1      12.015   3.373  -1.879  0.00  0.00    +0.000 A 
ENDBRANCH  19  22
ENDBRANCH  17  19
ENDBRANCH  15  17
ENDBRANCH   4  16
TORSDOF 5
ENDMDL
MODEL 6
REMARK VINA RESULT:      -5.3     19.451     22.666
REMARK  Name = 5523764
REMARK  5 active torsions:
REMARK  status: ('A' for Active; 'I' for Inactive)
REMARK    1  A    between atoms: O_4  and  N_8
REMARK    2  A    between atoms: O_4  and  C_24
REMARK    3  A    between atoms: C_9  and  C_14
REMARK    4  A    between atoms: C_10  and  C_12
REMARK    5  A    between atoms: C_21  and  C_24
REMARK                            x       y       z     vdW  Elec       q    Type
REMARK                         _______ _______ _______ _____ _____    ______ ____
ROOT
ATOM      1  S   UNL     1       4.234  20.975  26.806  0.00  0.00    +0.000 S 
ATOM      2  N   UNL     1       3.318  18.822  25.747  0.00  0.00    +0.000 N 
ATOM      3  N   UNL     1       5.452  19.066  25.144  0.00  0.00    +0.000 NA
ATOM      4  C   UNL     1       3.578  17.733  24.943  0.00  0.00    +0.000 A 
ATOM      5  C   UNL     1       4.925  17.902  24.598  0.00  0.00    +0.000 A 
ATOM      6  C   UNL     1       4.460  19.557  25.828  0.00  0.00    +0.000 A 
ATOM      7  C   UNL     1       2.237  19.348  26.425  0.00  0.00    +0.000 A 
ATOM      8  C   UNL     1       2.550  20.496  27.050  0.00  0.00    +0.000 A 
ENDROOT
BRANCH   5   9
ATOM      9  C   UNL     1       5.751  17.026  23.773  0.00  0.00    +0.000 A 
ATOM     10  C   UNL     1       5.198  16.095  22.884  0.00  0.00    +0.000 A 
ATOM     11  C   UNL     1       7.148  17.088  23.890  0.00  0.00    +0.000 A 
ATOM     12  C   UNL     1       6.018  15.312  22.067  0.00  0.00    +0.000 A 
ATOM     13  C   UNL     1       7.968  16.288  23.089  0.00  0.00    +0.000 A 
ATOM     14  C   UNL     1       7.402  15.413  22.164  0.00  0.00    +0.000 A 
ENDBRANCH   5   9
BRANCH   4  16
ATOM     15  N   UNL     1       1.697  16.988  23.734  0.00  0.00    +0.000 NA
ATOM     16  C   UNL     1       2.618  16.718  24.598  0.00  0.00    +0.000 C 
BRANCH  15  17
ATOM     17  O   UNL     1       0.805  15.908  23.554  0.00  0.00    +0.000 OA
BRANCH  17  19
ATOM     18  O   UNL     1      -1.200  16.855  24.239  0.00  0.00    +0.000 OA
ATOM     19  C   UNL     1      -0.454  16.424  23.368  0.00  0.00    +0.000 C 
BRANCH  19  22
ATOM     20 CL   UNL     1      -2.569  18.823  19.228  0.00  0.00    +0.000 Cl
ATOM     21 CL   UNL     1      -2.067  16.074  17.568  0.00  0.00    +0.000 Cl
ATOM     22  C   UNL     1      -0.865  16.427  21.935  0.00  0.00    +0.000 A 
ATOM     23  C   UNL     1      -1.456  17.526  21.297  0.00  0.00    +0.000 A 
ATOM     24  C   UNL     1      -0.655  15.246  21.201  0.00  0.00    +0.000 A 
ATOM     25  C   UNL     1      -1.834  17.433  19.948  0.00  0.00    +0.000 A 
ATOM     26  C   UNL     1      -1.031  15.156  19.859  0.00  0.00    +0.000 A 
ATOM     27  C   UNL     1      -1.622  16.250  19.227  0.00  0.00    +0.000 A 
ENDBRANCH  19  22
ENDBRANCH  17  19
ENDBRANCH  15  17
ENDBRANCH   4  16
TORSDOF 5
ENDMDL
MODEL 7
REMARK VINA RESULT:      -5.2     20.521     23.323
REMARK  Name = 5523764
REMARK  5 active torsions:
REMARK  status: ('A' for Active; 'I' for Inactive)
REMARK    1  A    between atoms: O_4  and  N_8
REMARK    2  A    between atoms: O_4  and  C_24
REMARK    3  A    between atoms: C_9  and  C_14
REMARK    4  A    between atoms: C_10  and  C_12
REMARK    5  A    between atoms: C_21  and  C_24
REMARK                            x       y       z     vdW  Elec       q    Type
REMARK                         _______ _______ _______ _____ _____    ______ ____
ROOT
ATOM      1  S   UNL     1       0.885  16.622  15.045  0.00  0.00    +0.000 S 
ATOM      2  N   UNL     1       2.435  16.031  17.006  0.00  0.00    +0.000 N 
ATOM      3  N   UNL     1       0.370  16.346  17.792  0.00  0.00    +0.000 NA
ATOM      4  C   UNL     1       2.546  15.827  18.364  0.00  0.00    +0.000 A 
ATOM      5  C   UNL     1       1.237  16.011  18.826  0.00  0.00    +0.000 A 
ATOM      6  C   UNL     1       1.133  16.323  16.738  0.00  0.00    +0.000 A 
ATOM      7  C   UNL     1       3.273  16.050  15.910  0.00  0.00    +0.000 A 
ATOM      8  C   UNL     1       2.611  16.345  14.779  0.00  0.00    +0.000 A 
ENDROOT
BRANCH   5   9
ATOM      9  C   UNL     1       0.749  15.892  20.196  0.00  0.00    +0.000 A 
ATOM     10  C   UNL     1       0.905  14.719  20.946  0.00  0.00    +0.000 A 
ATOM     11  C   UNL     1       0.072  16.973  20.781  0.00  0.00    +0.000 A 
ATOM     12  C   UNL     1       0.478  14.658  22.276  0.00  0.00    +0.000 A 
ATOM     13  C   UNL     1      -0.375  16.904  22.104  0.00  0.00    +0.000 A 
ATOM     14  C   UNL     1      -0.155  15.753  22.857  0.00  0.00    +0.000 A 
ENDBRANCH   5   9
BRANCH   4  16
ATOM     15  N   UNL     1       4.139  16.232  20.053  0.00  0.00    +0.000 NA
ATOM     16  C   UNL     1       3.771  15.509  19.049  0.00  0.00    +0.000 C 
BRANCH  15  17
ATOM     17  O   UNL     1       5.387  15.824  20.573  0.00  0.00    +0.000 OA
BRANCH  17  19
ATOM     18  O   UNL     1       4.280  15.744  22.611  0.00  0.00    +0.000 OA
ATOM     19  C   UNL     1       5.302  15.842  21.943  0.00  0.00    +0.000 C 
BRANCH  19  22
ATOM     20 CL   UNL     1      10.046  13.977  23.123  0.00  0.00    +0.000 Cl
ATOM     21 CL   UNL     1      10.557  16.736  24.764  0.00  0.00    +0.000 Cl
ATOM     22  C   UNL     1       6.634  15.991  22.597  0.00  0.00    +0.000 A 
ATOM     23  C   UNL     1       7.639  15.015  22.549  0.00  0.00    +0.000 A 
ATOM     24  C   UNL     1       6.873  17.178  23.311  0.00  0.00    +0.000 A 
ATOM     25  C   UNL     1       8.856  15.230  23.213  0.00  0.00    +0.000 A 
ATOM     26  C   UNL     1       8.085  17.390  23.972  0.00  0.00    +0.000 A 
ATOM     27  C   UNL     1       9.082  16.415  23.925  0.00  0.00    +0.000 A 
ENDBRANCH  19  22
ENDBRANCH  17  19
ENDBRANCH  15  17
ENDBRANCH   4  16
TORSDOF 5
ENDMDL
MODEL 8
REMARK VINA RESULT:      -5.1     20.254     24.389
REMARK  Name = 5523764
REMARK  5 active torsions:
REMARK  status: ('A' for Active; 'I' for Inactive)
REMARK    1  A    between atoms: O_4  and  N_8
REMARK    2  A    between atoms: O_4  and  C_24
REMARK    3  A    between atoms: C_9  and  C_14
REMARK    4  A    between atoms: C_10  and  C_12
REMARK    5  A    between atoms: C_21  and  C_24
REMARK                            x       y       z     vdW  Elec       q    Type
REMARK                         _______ _______ _______ _____ _____    ______ ____
ROOT
ATOM      1  S   UNL     1       6.340  22.348  22.551  0.00  0.00    +0.000 S 
ATOM      2  N   UNL     1       5.412  20.173  23.553  0.00  0.00    +0.000 N 
ATOM      3  N   UNL     1       7.269  19.702  22.410  0.00  0.00    +0.000 NA
ATOM      4  C   UNL     1       5.564  18.810  23.686  0.00  0.00    +0.000 A 
ATOM      5  C   UNL     1       6.744  18.547  22.978  0.00  0.00    +0.000 A 
ATOM      6  C   UNL     1       6.448  20.633  22.801  0.00  0.00    +0.000 A 
ATOM      7  C   UNL     1       4.500  21.134  23.938  0.00  0.00    +0.000 A 
ATOM      8  C   UNL     1       4.843  22.355  23.492  0.00  0.00    +0.000 A 
ENDROOT
BRANCH   5   9
ATOM      9  C   UNL     1       7.410  17.261  22.801  0.00  0.00    +0.000 A 
ATOM     10  C   UNL     1       8.463  16.843  23.625  0.00  0.00    +0.000 A 
ATOM     11  C   UNL     1       7.011  16.419  21.751  0.00  0.00    +0.000 A 
ATOM     12  C   UNL     1       9.040  15.581  23.464  0.00  0.00    +0.000 A 
ATOM     13  C   UNL     1       7.604  15.165  21.576  0.00  0.00    +0.000 A 
ATOM     14  C   UNL     1       8.606  14.739  22.445  0.00  0.00    +0.000 A 
ENDBRANCH   5   9
BRANCH   4  16
ATOM     15  N   UNL     1       3.832  17.213  23.741  0.00  0.00    +0.000 NA
ATOM     16  C   UNL     1       4.662  17.948  24.402  0.00  0.00    +0.000 C 
BRANCH  15  17
ATOM     17  O   UNL     1       2.981  16.474  24.592  0.00  0.00    +0.000 OA
BRANCH  17  19
ATOM     18  O   UNL     1       3.143  14.203  24.143  0.00  0.00    +0.000 OA
ATOM     19  C   UNL     1       2.648  15.307  23.950  0.00  0.00    +0.000 C 
BRANCH  19  22
ATOM     20 CL   UNL     1       1.026  15.634  18.987  0.00  0.00    +0.000 Cl
ATOM     21 CL   UNL     1      -1.956  16.185  20.156  0.00  0.00    +0.000 Cl
ATOM     22  C   UNL     1       1.564  15.496  22.945  0.00  0.00    +0.000 A 
ATOM     23  C   UNL     1       1.771  15.464  21.559  0.00  0.00    +0.000 A 
ATOM     24  C   UNL     1       0.267  15.736  23.432  0.00  0.00    +0.000 A 
ATOM     25  C   UNL     1       0.695  15.675  20.684  0.00  0.00    +0.000 A 
ATOM     26  C   UNL     1      -0.804  15.945  22.561  0.00  0.00    +0.000 A 
ATOM     27  C   UNL     1      -0.593  15.916  21.181  0.00  0.00    +0.000 A 
ENDBRANCH  19  22
ENDBRANCH  17  19
ENDBRANCH  15  17
ENDBRANCH   4  16
TORSDOF 5
ENDMDL
MODEL 9
REMARK VINA RESULT:      -5.1     31.883     35.283
REMARK  Name = 5523764
REMARK  5 active torsions:
REMARK  status: ('A' for Active; 'I' for Inactive)
REMARK    1  A    between atoms: O_4  and  N_8
REMARK    2  A    between atoms: O_4  and  C_24
REMARK    3  A    between atoms: C_9  and  C_14
REMARK    4  A    between atoms: C_10  and  C_12
REMARK    5  A    between atoms: C_21  and  C_24
REMARK                            x       y       z     vdW  Elec       q    Type
REMARK                         _______ _______ _______ _____ _____    ______ ____
ROOT
ATOM      1  S   UNL     1       8.892  10.341   1.666  0.00  0.00    +0.000 S 
ATOM      2  N   UNL     1       9.633   7.903   1.990  0.00  0.00    +0.000 N 
ATOM      3  N   UNL     1       9.476   8.878   3.991  0.00  0.00    +0.000 NA
ATOM      4  C   UNL     1       9.991   6.918   2.885  0.00  0.00    +0.000 A 
ATOM      5  C   UNL     1       9.864   7.551   4.128  0.00  0.00    +0.000 A 
ATOM      6  C   UNL     1       9.337   9.022   2.705  0.00  0.00    +0.000 A 
ATOM      7  C   UNL     1       9.540   8.046   0.621  0.00  0.00    +0.000 A 
ATOM      8  C   UNL     1       9.153   9.285   0.272  0.00  0.00    +0.000 A 
ENDROOT
BRANCH   5   9
ATOM      9  C   UNL     1      10.092   6.975   5.449  0.00  0.00    +0.000 A 
ATOM     10  C   UNL     1      11.372   6.637   5.907  0.00  0.00    +0.000 A 
ATOM     11  C   UNL     1       8.996   6.717   6.286  0.00  0.00    +0.000 A 
ATOM     12  C   UNL     1      11.562   6.140   7.200  0.00  0.00    +0.000 A 
ATOM     13  C   UNL     1       9.183   6.199   7.571  0.00  0.00    +0.000 A 
ATOM     14  C   UNL     1      10.469   5.928   8.034  0.00  0.00    +0.000 A 
ENDBRANCH   5   9
BRANCH   4  16
ATOM     15  N   UNL     1      11.559   5.392   2.011  0.00  0.00    +0.000 NA
ATOM     16  C   UNL     1      10.390   5.584   2.522  0.00  0.00    +0.000 C 
BRANCH  15  17
ATOM     17  O   UNL     1      11.770   4.041   1.658  0.00  0.00    +0.000 OA
BRANCH  17  19
ATOM     18  O   UNL     1      14.081   3.934   1.837  0.00  0.00    +0.000 OA
ATOM     19  C   UNL     1      13.050   3.923   1.176  0.00  0.00    +0.000 C 
BRANCH  19  22
ATOM     20 CL   UNL     1      15.211   4.950  -3.477  0.00  0.00    +0.000 Cl
ATOM     21 CL   UNL     1      12.879   3.112  -4.798  0.00  0.00    +0.000 Cl
ATOM     22  C   UNL     1      13.090   3.759  -0.305  0.00  0.00    +0.000 A 
ATOM     23  C   UNL     1      14.051   4.359  -1.129  0.00  0.00    +0.000 A 
ATOM     24  C   UNL     1      12.089   2.967  -0.894  0.00  0.00    +0.000 A 
ATOM     25  C   UNL     1      14.000   4.169  -2.519  0.00  0.00    +0.000 A 
ATOM     26  C   UNL     1      12.039   2.779  -2.277  0.00  0.00    +0.000 A 
ATOM     27  C   UNL     1      12.996   3.380  -3.096  0.00  0.00    +0.000 A 
ENDBRANCH  19  22
ENDBRANCH  17  19
ENDBRANCH  15  17
ENDBRANCH   4  16
TORSDOF 5
ENDMDL
MODEL 10
REMARK VINA RESULT:      -5.0     31.002     33.308
REMARK  Name = 5523764
REMARK  5 active torsions:
REMARK  status: ('A' for Active; 'I' for Inactive)
REMARK    1  A    between atoms: O_4  and  N_8
REMARK    2  A    between atoms: O_4  and  C_24
REMARK    3  A    between atoms: C_9  and  C_14
REMARK    4  A    between atoms: C_10  and  C_12
REMARK    5  A    between atoms: C_21  and  C_24
REMARK                            x       y       z     vdW  Elec       q    Type
REMARK                         _______ _______ _______ _____ _____    ______ ____
ROOT
ATOM      1  S   UNL     1       6.408  12.343   2.025  0.00  0.00    +0.000 S 
ATOM      2  N   UNL     1       8.107  10.418   1.968  0.00  0.00    +0.000 N 
ATOM      3  N   UNL     1       7.247  10.556   4.023  0.00  0.00    +0.000 NA
ATOM      4  C   UNL     1       8.736   9.416   2.675  0.00  0.00    +0.000 A 
ATOM      5  C   UNL     1       8.164   9.514   3.950  0.00  0.00    +0.000 A 
ATOM      6  C   UNL     1       7.243  11.040   2.815  0.00  0.00    +0.000 A 
ATOM      7  C   UNL     1       8.156  10.946   0.694  0.00  0.00    +0.000 A 
ATOM      8  C   UNL     1       7.310  11.980   0.549  0.00  0.00    +0.000 A 
ENDROOT
BRANCH   5   9
ATOM      9  C   UNL     1       8.435   8.678   5.116  0.00  0.00    +0.000 A 
ATOM     10  C   UNL     1       9.098   9.167   6.249  0.00  0.00    +0.000 A 
ATOM     11  C   UNL     1       8.050   7.329   5.099  0.00  0.00    +0.000 A 
ATOM     12  C   UNL     1       9.290   8.356   7.371  0.00  0.00    +0.000 A 
ATOM     13  C   UNL     1       8.263   6.511   6.213  0.00  0.00    +0.000 A 
ATOM     14  C   UNL     1       8.866   7.031   7.356  0.00  0.00    +0.000 A 
ENDBRANCH   5   9
BRANCH   4  16
ATOM     15  N   UNL     1       9.466   7.279   2.002  0.00  0.00    +0.000 NA
ATOM     16  C   UNL     1       9.737   8.534   2.137  0.00  0.00    +0.000 C 
BRANCH  15  17
ATOM     17  O   UNL     1      10.571   6.546   1.517  0.00  0.00    +0.000 OA
BRANCH  17  19
ATOM     18  O   UNL     1      10.636   4.554   2.706  0.00  0.00    +0.000 OA
ATOM     19  C   UNL     1      10.997   5.709   2.518  0.00  0.00    +0.000 C 
BRANCH  19  22
ATOM     20 CL   UNL     1      15.728   7.802   3.306  0.00  0.00    +0.000 Cl
ATOM     21 CL   UNL     1      14.862   8.214   6.412  0.00  0.00    +0.000 Cl
ATOM     22  C   UNL     1      12.005   6.352   3.410  0.00  0.00    +0.000 A 
ATOM     23  C   UNL     1      13.276   6.758   2.984  0.00  0.00    +0.000 A 
ATOM     24  C   UNL     1      11.648   6.537   4.757  0.00  0.00    +0.000 A 
ATOM     25  C   UNL     1      14.171   7.335   3.899  0.00  0.00    +0.000 A 
ATOM     26  C   UNL     1      12.538   7.112   5.666  0.00  0.00    +0.000 A 
ATOM     27  C   UNL     1      13.805   7.513   5.240  0.00  0.00    +0.000 A 
ENDBRANCH  19  22
ENDBRANCH  17  19
ENDBRANCH  15  17
ENDBRANCH   4  16
TORSDOF 5
ENDMDL
