REMARK  Name = 5523764
REMARK  5 active torsions:
REMARK  status: ('A' for Active; 'I' for Inactive)
REMARK    1  A    between atoms: O_4  and  N_8
REMARK    2  A    between atoms: O_4  and  C_24
REMARK    3  A    between atoms: C_9  and  C_14
REMARK    4  A    between atoms: C_10  and  C_12
REMARK    5  A    between atoms: C_21  and  C_24
REMARK                            x       y       z     vdW  Elec       q    Type
REMARK                         _______ _______ _______ _____ _____    ______ ____
ROOT
ATOM      1  S   UNL     1      -7.465  -6.115  -1.002  0.00  0.00    +0.000 S 
ATOM      2  N   UNL     1      -6.941  -3.630  -0.617  0.00  0.00    +0.000 N 
ATOM      3  N   UNL     1      -5.721  -4.849   0.799  0.00  0.00    +0.000 NA
ATOM      4  C   UNL     1      -6.222  -2.704   0.107  0.00  0.00    +0.000 A 
ATOM      5  C   UNL     1      -5.454  -3.496   0.970  0.00  0.00    +0.000 A 
ATOM      6  C   UNL     1      -6.594  -4.866  -0.166  0.00  0.00    +0.000 A 
ATOM      7  C   UNL     1      -7.902  -3.620  -1.607  0.00  0.00    +0.000 A 
ATOM      8  C   UNL     1      -8.293  -4.863  -1.937  0.00  0.00    +0.000 A 
ENDROOT
BRANCH   5   9
ATOM      9  C   UNL     1      -4.477  -3.049   1.958  0.00  0.00    +0.000 A 
ATOM     10  C   UNL     1      -3.749  -1.862   1.806  0.00  0.00    +0.000 A 
ATOM     11  C   UNL     1      -4.228  -3.844   3.087  0.00  0.00    +0.000 A 
ATOM     12  C   UNL     1      -2.863  -1.434   2.799  0.00  0.00    +0.000 A 
ATOM     13  C   UNL     1      -3.325  -3.427   4.070  0.00  0.00    +0.000 A 
ATOM     14  C   UNL     1      -2.657  -2.212   3.934  0.00  0.00    +0.000 A 
ENDBRANCH   5   9
BRANCH   4  16
ATOM     15  N   UNL     1      -6.666  -0.798  -1.206  0.00  0.00    +0.000 NA
ATOM     16  C   UNL     1      -6.316  -1.278  -0.060  0.00  0.00    +0.000 C 
BRANCH  15  17
ATOM     17  O   UNL     1      -6.652   0.614  -1.218  0.00  0.00    +0.000 OA
BRANCH  17  19
ATOM     18  O   UNL     1      -7.030   0.313  -3.488  0.00  0.00    +0.000 OA
ATOM     19  C   UNL     1      -6.881   1.030  -2.506  0.00  0.00    +0.000 C 
BRANCH  19  22
ATOM     20 CL   UNL     1      -6.792   5.794  -0.344  0.00  0.00    +0.000 Cl
ATOM     21 CL   UNL     1      -7.273   6.992  -3.327  0.00  0.00    +0.000 Cl
ATOM     22  C   UNL     1      -6.948   2.515  -2.624  0.00  0.00    +0.000 A 
ATOM     23  C   UNL     1      -6.833   3.389  -1.535  0.00  0.00    +0.000 A 
ATOM     24  C   UNL     1      -7.156   3.051  -3.907  0.00  0.00    +0.000 A 
ATOM     25  C   UNL     1      -6.931   4.775  -1.735  0.00  0.00    +0.000 A 
ATOM     26  C   UNL     1      -7.253   4.430  -4.105  0.00  0.00    +0.000 A 
ATOM     27  C   UNL     1      -7.141   5.298  -3.018  0.00  0.00    +0.000 A 
ENDBRANCH  19  22
ENDBRANCH  17  19
ENDBRANCH  15  17
ENDBRANCH   4  16
TORSDOF 5
