MODEL 1
REMARK VINA RESULT:      -5.8      0.000      0.000
REMARK  Name = 5842508
REMARK  7 active torsions:
REMARK  status: ('A' for Active; 'I' for Inactive)
REMARK    1  A    between atoms: S_4  and  C_11
REMARK    2  A    between atoms: S_4  and  C_14
REMARK    3  A    between atoms: O_5  and  N_8
REMARK    4  A    between atoms: O_5  and  C_20
REMARK    5  A    between atoms: C_9  and  C_13
REMARK    6  A    between atoms: C_16  and  C_25
REMARK    7  A    between atoms: C_19  and  C_20
REMARK                            x       y       z     vdW  Elec       q    Type
REMARK                         _______ _______ _______ _____ _____    ______ ____
ROOT
ATOM      1  S   UNL     1     -14.854   9.002 -30.713  0.00  0.00    +0.000 S 
ATOM      2  N   UNL     1     -12.317   9.348 -30.899  0.00  0.00    +0.000 N 
ATOM      3  N   UNL     1     -13.227   9.599 -32.922  0.00  0.00    +0.000 NA
ATOM      4  C   UNL     1     -11.253   9.580 -31.728  0.00  0.00    +0.000 A 
ATOM      5  C   UNL     1     -13.445   9.369 -31.660  0.00  0.00    +0.000 A 
ATOM      6  C   UNL     1     -11.849   9.728 -32.982  0.00  0.00    +0.000 A 
ATOM      7  C   UNL     1     -12.512   9.042 -29.566  0.00  0.00    +0.000 A 
ATOM      8  C   UNL     1     -13.810   8.825 -29.292  0.00  0.00    +0.000 A 
ENDROOT
BRANCH   4  10
ATOM      9  N   UNL     1      -9.078   8.659 -31.752  0.00  0.00    +0.000 NA
ATOM     10  C   UNL     1      -9.879   9.574 -31.321  0.00  0.00    +0.000 C 
BRANCH   9  11
ATOM     11  O   UNL     1      -7.815   8.795 -31.161  0.00  0.00    +0.000 OA
BRANCH  11  12
ATOM     12  C   UNL     1      -8.020   8.907 -29.750  0.00  0.00    +0.000 C 
BRANCH  12  15
ATOM     13 CL   UNL     1      -5.122   8.153 -25.501  0.00  0.00    +0.000 Cl
ATOM     14 CL   UNL     1      -2.667   9.628 -27.045  0.00  0.00    +0.000 Cl
ATOM     15  C   UNL     1      -6.697   9.089 -29.057  0.00  0.00    +0.000 A 
ATOM     16  C   UNL     1      -6.508   8.617 -27.750  0.00  0.00    +0.000 A 
ATOM     17  C   UNL     1      -5.632   9.719 -29.715  0.00  0.00    +0.000 A 
ATOM     18  C   UNL     1      -5.273   8.771 -27.109  0.00  0.00    +0.000 A 
ATOM     19  C   UNL     1      -4.399   9.873 -29.076  0.00  0.00    +0.000 A 
ATOM     20  C   UNL     1      -4.217   9.400 -27.774  0.00  0.00    +0.000 A 
ENDBRANCH  12  15
ENDBRANCH  11  12
ENDBRANCH   9  11
ENDBRANCH   4  10
BRANCH   6  21
ATOM     21  S   UNL     1     -11.017   9.952 -34.511  0.00  0.00    +0.000 S 
BRANCH  21  22
ATOM     22  C   UNL     1     -10.897   8.303 -35.168  0.00  0.00    +0.000 A 
ATOM     23  C   UNL     1     -10.653   5.777 -36.390  0.00  0.00    +0.000 A 
ATOM     24  C   UNL     1     -11.908   7.820 -36.008  0.00  0.00    +0.000 A 
ATOM     25  C   UNL     1      -9.768   7.515 -34.941  0.00  0.00    +0.000 A 
ATOM     26  C   UNL     1     -11.789   6.563 -36.612  0.00  0.00    +0.000 A 
ATOM     27  C   UNL     1      -9.648   6.260 -35.545  0.00  0.00    +0.000 A 
ATOM     28  C   UNL     1     -10.494   4.439 -37.048  0.00  0.00    +0.000 C 
ENDBRANCH  21  22
ENDBRANCH   6  21
TORSDOF 6
ENDMDL
MODEL 2
REMARK VINA RESULT:      -5.6      5.501      7.845
REMARK  Name = 5842508
REMARK  7 active torsions:
REMARK  status: ('A' for Active; 'I' for Inactive)
REMARK    1  A    between atoms: S_4  and  C_11
REMARK    2  A    between atoms: S_4  and  C_14
REMARK    3  A    between atoms: O_5  and  N_8
REMARK    4  A    between atoms: O_5  and  C_20
REMARK    5  A    between atoms: C_9  and  C_13
REMARK    6  A    between atoms: C_16  and  C_25
REMARK    7  A    between atoms: C_19  and  C_20
REMARK                            x       y       z     vdW  Elec       q    Type
REMARK                         _______ _______ _______ _____ _____    ______ ____
ROOT
ATOM      1  S   UNL     1     -10.167  11.181 -31.684  0.00  0.00    +0.000 S 
ATOM      2  N   UNL     1     -10.944   8.780 -32.155  0.00  0.00    +0.000 N 
ATOM      3  N   UNL     1     -10.950   9.927 -34.071  0.00  0.00    +0.000 NA
ATOM      4  C   UNL     1     -11.414   7.893 -33.086  0.00  0.00    +0.000 A 
ATOM      5  C   UNL     1     -10.693   9.954 -32.796  0.00  0.00    +0.000 A 
ATOM      6  C   UNL     1     -11.411   8.635 -34.269  0.00  0.00    +0.000 A 
ATOM      7  C   UNL     1     -10.741   8.799 -30.789  0.00  0.00    +0.000 A 
ATOM      8  C   UNL     1     -10.327  10.006 -30.367  0.00  0.00    +0.000 A 
ENDROOT
BRANCH   4  10
ATOM      9  N   UNL     1     -11.014   5.579 -32.830  0.00  0.00    +0.000 NA
ATOM     10  C   UNL     1     -11.853   6.560 -32.799  0.00  0.00    +0.000 C 
BRANCH   9  11
ATOM     11  O   UNL     1     -11.673   4.363 -32.606  0.00  0.00    +0.000 OA
BRANCH  11  12
ATOM     12  C   UNL     1     -12.391   4.047 -33.802  0.00  0.00    +0.000 C 
BRANCH  12  15
ATOM     13 CL   UNL     1     -15.947   0.293 -33.268  0.00  0.00    +0.000 Cl
ATOM     14 CL   UNL     1     -13.618  -1.866 -33.977  0.00  0.00    +0.000 Cl
ATOM     15  C   UNL     1     -12.711   2.577 -33.829  0.00  0.00    +0.000 A 
ATOM     16  C   UNL     1     -14.012   2.127 -33.561  0.00  0.00    +0.000 A 
ATOM     17  C   UNL     1     -11.716   1.640 -34.137  0.00  0.00    +0.000 A 
ATOM     18  C   UNL     1     -14.316   0.761 -33.602  0.00  0.00    +0.000 A 
ATOM     19  C   UNL     1     -12.018   0.276 -34.179  0.00  0.00    +0.000 A 
ATOM     20  C   UNL     1     -13.317  -0.166 -33.911  0.00  0.00    +0.000 A 
ENDBRANCH  12  15
ENDBRANCH  11  12
ENDBRANCH   9  11
ENDBRANCH   4  10
BRANCH   6  21
ATOM     21  S   UNL     1     -11.998   8.103 -35.834  0.00  0.00    +0.000 S 
BRANCH  21  22
ATOM     22  C   UNL     1     -10.894   6.777 -36.266  0.00  0.00    +0.000 A 
ATOM     23  C   UNL     1      -9.147   4.621 -36.751  0.00  0.00    +0.000 A 
ATOM     24  C   UNL     1      -9.535   6.878 -35.942  0.00  0.00    +0.000 A 
ATOM     25  C   UNL     1     -11.371   5.596 -36.835  0.00  0.00    +0.000 A 
ATOM     26  C   UNL     1      -8.665   5.808 -36.187  0.00  0.00    +0.000 A 
ATOM     27  C   UNL     1     -10.504   4.527 -37.078  0.00  0.00    +0.000 A 
ATOM     28  C   UNL     1      -8.237   3.455 -36.997  0.00  0.00    +0.000 C 
ENDBRANCH  21  22
ENDBRANCH   6  21
TORSDOF 6
ENDMDL
MODEL 3
REMARK VINA RESULT:      -5.5     23.976     26.986
REMARK  Name = 5842508
REMARK  7 active torsions:
REMARK  status: ('A' for Active; 'I' for Inactive)
REMARK    1  A    between atoms: S_4  and  C_11
REMARK    2  A    between atoms: S_4  and  C_14
REMARK    3  A    between atoms: O_5  and  N_8
REMARK    4  A    between atoms: O_5  and  C_20
REMARK    5  A    between atoms: C_9  and  C_13
REMARK    6  A    between atoms: C_16  and  C_25
REMARK    7  A    between atoms: C_19  and  C_20
REMARK                            x       y       z     vdW  Elec       q    Type
REMARK                         _______ _______ _______ _____ _____    ______ ____
ROOT
ATOM      1  S   UNL     1      -2.088   0.460 -50.890  0.00  0.00    +0.000 S 
ATOM      2  N   UNL     1      -3.169   0.533 -53.218  0.00  0.00    +0.000 N 
ATOM      3  N   UNL     1      -3.833   2.322 -52.060  0.00  0.00    +0.000 NA
ATOM      4  C   UNL     1      -4.031   1.186 -54.058  0.00  0.00    +0.000 A 
ATOM      5  C   UNL     1      -3.098   1.249 -52.062  0.00  0.00    +0.000 A 
ATOM      6  C   UNL     1      -4.432   2.294 -53.309  0.00  0.00    +0.000 A 
ATOM      7  C   UNL     1      -2.449  -0.646 -53.225  0.00  0.00    +0.000 A 
ATOM      8  C   UNL     1      -1.811  -0.844 -52.059  0.00  0.00    +0.000 A 
ENDROOT
BRANCH   4  10
ATOM      9  N   UNL     1      -5.318  -0.206 -55.466  0.00  0.00    +0.000 NA
ATOM     10  C   UNL     1      -4.424   0.719 -55.353  0.00  0.00    +0.000 C 
BRANCH   9  11
ATOM     11  O   UNL     1      -5.483  -0.567 -56.810  0.00  0.00    +0.000 OA
BRANCH  11  12
ATOM     12  C   UNL     1      -4.498   0.147 -57.562  0.00  0.00    +0.000 C 
BRANCH  12  15
ATOM     13 CL   UNL     1      -5.067   4.575 -60.225  0.00  0.00    +0.000 Cl
ATOM     14 CL   UNL     1      -7.146   3.009 -62.177  0.00  0.00    +0.000 Cl
ATOM     15  C   UNL     1      -5.158   0.878 -58.700  0.00  0.00    +0.000 A 
ATOM     16  C   UNL     1      -4.876   2.232 -58.933  0.00  0.00    +0.000 A 
ATOM     17  C   UNL     1      -6.051   0.212 -59.548  0.00  0.00    +0.000 A 
ATOM     18  C   UNL     1      -5.476   2.910 -60.001  0.00  0.00    +0.000 A 
ATOM     19  C   UNL     1      -6.651   0.887 -60.614  0.00  0.00    +0.000 A 
ATOM     20  C   UNL     1      -6.365   2.236 -60.842  0.00  0.00    +0.000 A 
ENDBRANCH  12  15
ENDBRANCH  11  12
ENDBRANCH   9  11
ENDBRANCH   4  10
BRANCH   6  21
ATOM     21  S   UNL     1      -5.622   3.494 -53.780  0.00  0.00    +0.000 S 
BRANCH  21  22
ATOM     22  C   UNL     1      -4.683   4.659 -54.742  0.00  0.00    +0.000 A 
ATOM     23  C   UNL     1      -3.373   6.558 -56.358  0.00  0.00    +0.000 A 
ATOM     24  C   UNL     1      -4.391   4.371 -56.081  0.00  0.00    +0.000 A 
ATOM     25  C   UNL     1      -4.315   5.898 -54.218  0.00  0.00    +0.000 A 
ATOM     26  C   UNL     1      -3.735   5.313 -56.883  0.00  0.00    +0.000 A 
ATOM     27  C   UNL     1      -3.662   6.840 -55.018  0.00  0.00    +0.000 A 
ATOM     28  C   UNL     1      -2.695   7.591 -57.208  0.00  0.00    +0.000 C 
ENDBRANCH  21  22
ENDBRANCH   6  21
TORSDOF 6
ENDMDL
MODEL 4
REMARK VINA RESULT:      -5.3     23.648     26.754
REMARK  Name = 5842508
REMARK  7 active torsions:
REMARK  status: ('A' for Active; 'I' for Inactive)
REMARK    1  A    between atoms: S_4  and  C_11
REMARK    2  A    between atoms: S_4  and  C_14
REMARK    3  A    between atoms: O_5  and  N_8
REMARK    4  A    between atoms: O_5  and  C_20
REMARK    5  A    between atoms: C_9  and  C_13
REMARK    6  A    between atoms: C_16  and  C_25
REMARK    7  A    between atoms: C_19  and  C_20
REMARK                            x       y       z     vdW  Elec       q    Type
REMARK                         _______ _______ _______ _____ _____    ______ ____
ROOT
ATOM      1  S   UNL     1     -24.275  -1.315 -53.664  0.00  0.00    +0.000 S 
ATOM      2  N   UNL     1     -25.148   1.096 -53.541  0.00  0.00    +0.000 N 
ATOM      3  N   UNL     1     -24.481   0.678 -55.630  0.00  0.00    +0.000 NA
ATOM      4  C   UNL     1     -25.343   2.276 -54.207  0.00  0.00    +0.000 A 
ATOM      5  C   UNL     1     -24.638   0.201 -54.431  0.00  0.00    +0.000 A 
ATOM      6  C   UNL     1     -24.915   1.988 -55.505  0.00  0.00    +0.000 A 
ATOM      7  C   UNL     1     -25.265   0.636 -52.244  0.00  0.00    +0.000 A 
ATOM      8  C   UNL     1     -24.841  -0.634 -52.128  0.00  0.00    +0.000 A 
ENDROOT
BRANCH   4  10
ATOM      9  N   UNL     1     -24.999   4.228 -52.922  0.00  0.00    +0.000 NA
ATOM     10  C   UNL     1     -25.809   3.490 -53.605  0.00  0.00    +0.000 C 
BRANCH   9  11
ATOM     11  O   UNL     1     -25.684   5.311 -52.356  0.00  0.00    +0.000 OA
BRANCH  11  12
ATOM     12  C   UNL     1     -24.728   6.358 -52.161  0.00  0.00    +0.000 C 
BRANCH  12  15
ATOM     13 CL   UNL     1     -25.409   4.689 -47.286  0.00  0.00    +0.000 Cl
ATOM     14 CL   UNL     1     -23.853   7.359 -46.268  0.00  0.00    +0.000 Cl
ATOM     15  C   UNL     1     -24.529   6.597 -50.689  0.00  0.00    +0.000 A 
ATOM     16  C   UNL     1     -25.002   5.671 -49.748  0.00  0.00    +0.000 A 
ATOM     17  C   UNL     1     -23.857   7.742 -50.241  0.00  0.00    +0.000 A 
ATOM     18  C   UNL     1     -24.804   5.884 -48.378  0.00  0.00    +0.000 A 
ATOM     19  C   UNL     1     -23.658   7.956 -48.874  0.00  0.00    +0.000 A 
ATOM     20  C   UNL     1     -24.131   7.029 -47.941  0.00  0.00    +0.000 A 
ENDBRANCH  12  15
ENDBRANCH  11  12
ENDBRANCH   9  11
ENDBRANCH   4  10
BRANCH   6  21
ATOM     21  S   UNL     1     -24.814   3.118 -56.843  0.00  0.00    +0.000 S 
BRANCH  21  22
ATOM     22  C   UNL     1     -23.376   4.093 -56.460  0.00  0.00    +0.000 A 
ATOM     23  C   UNL     1     -21.079   5.673 -56.057  0.00  0.00    +0.000 A 
ATOM     24  C   UNL     1     -22.102   3.566 -56.701  0.00  0.00    +0.000 A 
ATOM     25  C   UNL     1     -23.494   5.410 -56.015  0.00  0.00    +0.000 A 
ATOM     26  C   UNL     1     -20.959   4.350 -56.496  0.00  0.00    +0.000 A 
ATOM     27  C   UNL     1     -22.355   6.193 -55.812  0.00  0.00    +0.000 A 
ATOM     28  C   UNL     1     -19.870   6.537 -55.857  0.00  0.00    +0.000 C 
ENDBRANCH  21  22
ENDBRANCH   6  21
TORSDOF 6
ENDMDL
MODEL 5
REMARK VINA RESULT:      -5.3     22.299     23.800
REMARK  Name = 5842508
REMARK  7 active torsions:
REMARK  status: ('A' for Active; 'I' for Inactive)
REMARK    1  A    between atoms: S_4  and  C_11
REMARK    2  A    between atoms: S_4  and  C_14
REMARK    3  A    between atoms: O_5  and  N_8
REMARK    4  A    between atoms: O_5  and  C_20
REMARK    5  A    between atoms: C_9  and  C_13
REMARK    6  A    between atoms: C_16  and  C_25
REMARK    7  A    between atoms: C_19  and  C_20
REMARK                            x       y       z     vdW  Elec       q    Type
REMARK                         _______ _______ _______ _____ _____    ______ ____
ROOT
ATOM      1  S   UNL     1      -1.093  -1.746 -51.955  0.00  0.00    +0.000 S 
ATOM      2  N   UNL     1      -3.634  -1.380 -52.023  0.00  0.00    +0.000 N 
ATOM      3  N   UNL     1      -2.622   0.609 -51.950  0.00  0.00    +0.000 NA
ATOM      4  C   UNL     1      -4.659  -0.474 -51.987  0.00  0.00    +0.000 A 
ATOM      5  C   UNL     1      -2.466  -0.682 -51.996  0.00  0.00    +0.000 A 
ATOM      6  C   UNL     1      -4.000   0.756 -51.937  0.00  0.00    +0.000 A 
ATOM      7  C   UNL     1      -3.498  -2.755 -52.007  0.00  0.00    +0.000 A 
ATOM      8  C   UNL     1      -2.206  -3.125 -51.968  0.00  0.00    +0.000 A 
ENDROOT
BRANCH   4  10
ATOM      9  N   UNL     1      -6.676  -0.818 -50.807  0.00  0.00    +0.000 NA
ATOM     10  C   UNL     1      -6.050  -0.812 -51.937  0.00  0.00    +0.000 C 
BRANCH   9  11
ATOM     11  O   UNL     1      -7.994  -1.259 -50.980  0.00  0.00    +0.000 OA
BRANCH  11  12
ATOM     12  C   UNL     1      -7.929  -2.581 -51.523  0.00  0.00    +0.000 C 
BRANCH  12  15
ATOM     13 CL   UNL     1     -10.931  -5.288 -48.255  0.00  0.00    +0.000 Cl
ATOM     14 CL   UNL     1      -8.229  -6.684 -47.099  0.00  0.00    +0.000 Cl
ATOM     15  C   UNL     1      -8.021  -3.593 -50.412  0.00  0.00    +0.000 A 
ATOM     16  C   UNL     1      -9.267  -3.948 -49.876  0.00  0.00    +0.000 A 
ATOM     17  C   UNL     1      -6.863  -4.202 -49.910  0.00  0.00    +0.000 A 
ATOM     18  C   UNL     1      -9.356  -4.901 -48.854  0.00  0.00    +0.000 A 
ATOM     19  C   UNL     1      -6.951  -5.153 -48.891  0.00  0.00    +0.000 A 
ATOM     20  C   UNL     1      -8.195  -5.504 -48.360  0.00  0.00    +0.000 A 
ENDBRANCH  12  15
ENDBRANCH  11  12
ENDBRANCH   9  11
ENDBRANCH   4  10
BRANCH   6  21
ATOM     21  S   UNL     1      -4.750   2.334 -51.776  0.00  0.00    +0.000 S 
BRANCH  21  22
ATOM     22  C   UNL     1      -4.757   2.965 -53.439  0.00  0.00    +0.000 A 
ATOM     23  C   UNL     1      -4.567   4.017 -56.045  0.00  0.00    +0.000 A 
ATOM     24  C   UNL     1      -4.797   4.349 -53.651  0.00  0.00    +0.000 A 
ATOM     25  C   UNL     1      -4.624   2.114 -54.536  0.00  0.00    +0.000 A 
ATOM     26  C   UNL     1      -4.708   4.872 -54.947  0.00  0.00    +0.000 A 
ATOM     27  C   UNL     1      -4.533   2.635 -55.830  0.00  0.00    +0.000 A 
ATOM     28  C   UNL     1      -4.443   4.557 -57.439  0.00  0.00    +0.000 C 
ENDBRANCH  21  22
ENDBRANCH   6  21
TORSDOF 6
ENDMDL
MODEL 6
REMARK VINA RESULT:      -5.3     21.342     24.313
REMARK  Name = 5842508
REMARK  7 active torsions:
REMARK  status: ('A' for Active; 'I' for Inactive)
REMARK    1  A    between atoms: S_4  and  C_11
REMARK    2  A    between atoms: S_4  and  C_14
REMARK    3  A    between atoms: O_5  and  N_8
REMARK    4  A    between atoms: O_5  and  C_20
REMARK    5  A    between atoms: C_9  and  C_13
REMARK    6  A    between atoms: C_16  and  C_25
REMARK    7  A    between atoms: C_19  and  C_20
REMARK                            x       y       z     vdW  Elec       q    Type
REMARK                         _______ _______ _______ _____ _____    ______ ____
ROOT
ATOM      1  S   UNL     1     -24.147  11.940 -52.971  0.00  0.00    +0.000 S 
ATOM      2  N   UNL     1     -23.872   9.762 -51.640  0.00  0.00    +0.000 N 
ATOM      3  N   UNL     1     -23.816   9.285 -53.820  0.00  0.00    +0.000 NA
ATOM      4  C   UNL     1     -23.748   8.400 -51.691  0.00  0.00    +0.000 A 
ATOM      5  C   UNL     1     -23.908  10.220 -52.922  0.00  0.00    +0.000 A 
ATOM      6  C   UNL     1     -23.721   8.130 -53.061  0.00  0.00    +0.000 A 
ATOM      7  C   UNL     1     -24.032  10.727 -50.665  0.00  0.00    +0.000 A 
ATOM      8  C   UNL     1     -24.194  11.950 -51.199  0.00  0.00    +0.000 A 
ENDROOT
BRANCH   4  10
ATOM      9  N   UNL     1     -24.763   6.796 -50.286  0.00  0.00    +0.000 NA
ATOM     10  C   UNL     1     -23.738   7.534 -50.550  0.00  0.00    +0.000 C 
BRANCH   9  11
ATOM     11  O   UNL     1     -24.570   6.101 -49.084  0.00  0.00    +0.000 OA
BRANCH  11  12
ATOM     12  C   UNL     1     -23.867   6.977 -48.199  0.00  0.00    +0.000 C 
BRANCH  12  15
ATOM     13 CL   UNL     1     -23.646   8.369 -43.195  0.00  0.00    +0.000 Cl
ATOM     14 CL   UNL     1     -26.408   6.715 -42.724  0.00  0.00    +0.000 Cl
ATOM     15  C   UNL     1     -24.480   6.912 -46.826  0.00  0.00    +0.000 A 
ATOM     16  C   UNL     1     -23.875   7.570 -45.745  0.00  0.00    +0.000 A 
ATOM     17  C   UNL     1     -25.671   6.206 -46.614  0.00  0.00    +0.000 A 
ATOM     18  C   UNL     1     -24.452   7.524 -44.470  0.00  0.00    +0.000 A 
ATOM     19  C   UNL     1     -26.249   6.160 -45.342  0.00  0.00    +0.000 A 
ATOM     20  C   UNL     1     -25.641   6.817 -44.269  0.00  0.00    +0.000 A 
ENDBRANCH  12  15
ENDBRANCH  11  12
ENDBRANCH   9  11
ENDBRANCH   4  10
BRANCH   6  21
ATOM     21  S   UNL     1     -23.674   6.544 -53.810  0.00  0.00    +0.000 S 
BRANCH  21  22
ATOM     22  C   UNL     1     -22.179   6.579 -54.773  0.00  0.00    +0.000 A 
ATOM     23  C   UNL     1     -19.923   6.717 -56.454  0.00  0.00    +0.000 A 
ATOM     24  C   UNL     1     -21.982   5.623 -55.776  0.00  0.00    +0.000 A 
ATOM     25  C   UNL     1     -21.242   7.601 -54.615  0.00  0.00    +0.000 A 
ATOM     26  C   UNL     1     -20.858   5.688 -56.609  0.00  0.00    +0.000 A 
ATOM     27  C   UNL     1     -20.121   7.668 -55.447  0.00  0.00    +0.000 A 
ATOM     28  C   UNL     1     -18.727   6.820 -57.352  0.00  0.00    +0.000 C 
ENDBRANCH  21  22
ENDBRANCH   6  21
TORSDOF 6
ENDMDL
MODEL 7
REMARK VINA RESULT:      -5.2     24.889     27.925
REMARK  Name = 5842508
REMARK  7 active torsions:
REMARK  status: ('A' for Active; 'I' for Inactive)
REMARK    1  A    between atoms: S_4  and  C_11
REMARK    2  A    between atoms: S_4  and  C_14
REMARK    3  A    between atoms: O_5  and  N_8
REMARK    4  A    between atoms: O_5  and  C_20
REMARK    5  A    between atoms: C_9  and  C_13
REMARK    6  A    between atoms: C_16  and  C_25
REMARK    7  A    between atoms: C_19  and  C_20
REMARK                            x       y       z     vdW  Elec       q    Type
REMARK                         _______ _______ _______ _____ _____    ______ ____
ROOT
ATOM      1  S   UNL     1       1.805   8.040 -54.140  0.00  0.00    +0.000 S 
ATOM      2  N   UNL     1       0.751   6.198 -55.585  0.00  0.00    +0.000 N 
ATOM      3  N   UNL     1      -0.617   7.963 -55.558  0.00  0.00    +0.000 NA
ATOM      4  C   UNL     1      -0.332   5.806 -56.325  0.00  0.00    +0.000 A 
ATOM      5  C   UNL     1       0.520   7.472 -55.162  0.00  0.00    +0.000 A 
ATOM      6  C   UNL     1      -1.170   6.923 -56.287  0.00  0.00    +0.000 A 
ATOM      7  C   UNL     1       1.922   5.628 -55.126  0.00  0.00    +0.000 A 
ATOM      8  C   UNL     1       2.608   6.473 -54.337  0.00  0.00    +0.000 A 
ENDROOT
BRANCH   4  10
ATOM      9  N   UNL     1      -0.511   4.355 -58.179  0.00  0.00    +0.000 NA
ATOM     10  C   UNL     1      -0.505   4.504 -56.897  0.00  0.00    +0.000 C 
BRANCH   9  11
ATOM     11  O   UNL     1      -0.781   3.022 -58.516  0.00  0.00    +0.000 OA
BRANCH  11  12
ATOM     12  C   UNL     1      -1.157   3.003 -59.896  0.00  0.00    +0.000 C 
BRANCH  12  15
ATOM     13 CL   UNL     1      -4.984   5.956 -61.809  0.00  0.00    +0.000 Cl
ATOM     14 CL   UNL     1      -7.106   3.928 -60.406  0.00  0.00    +0.000 Cl
ATOM     15  C   UNL     1      -2.636   3.255 -60.023  0.00  0.00    +0.000 A 
ATOM     16  C   UNL     1      -3.109   4.356 -60.752  0.00  0.00    +0.000 A 
ATOM     17  C   UNL     1      -3.558   2.385 -59.426  0.00  0.00    +0.000 A 
ATOM     18  C   UNL     1      -4.485   4.583 -60.885  0.00  0.00    +0.000 A 
ATOM     19  C   UNL     1      -4.930   2.610 -59.559  0.00  0.00    +0.000 A 
ATOM     20  C   UNL     1      -5.396   3.708 -60.287  0.00  0.00    +0.000 A 
ENDBRANCH  12  15
ENDBRANCH  11  12
ENDBRANCH   9  11
ENDBRANCH   4  10
BRANCH   6  21
ATOM     21  S   UNL     1      -2.782   7.038 -56.970  0.00  0.00    +0.000 S 
BRANCH  21  22
ATOM     22  C   UNL     1      -3.726   5.872 -56.014  0.00  0.00    +0.000 A 
ATOM     23  C   UNL     1      -5.043   3.918 -54.471  0.00  0.00    +0.000 A 
ATOM     24  C   UNL     1      -4.062   4.633 -56.573  0.00  0.00    +0.000 A 
ATOM     25  C   UNL     1      -4.054   6.127 -54.682  0.00  0.00    +0.000 A 
ATOM     26  C   UNL     1      -4.721   3.663 -55.808  0.00  0.00    +0.000 A 
ATOM     27  C   UNL     1      -4.711   5.159 -53.917  0.00  0.00    +0.000 A 
ATOM     28  C   UNL     1      -5.725   2.884 -53.626  0.00  0.00    +0.000 C 
ENDBRANCH  21  22
ENDBRANCH   6  21
TORSDOF 6
ENDMDL
MODEL 8
REMARK VINA RESULT:      -5.1     13.702     15.474
REMARK  Name = 5842508
REMARK  7 active torsions:
REMARK  status: ('A' for Active; 'I' for Inactive)
REMARK    1  A    between atoms: S_4  and  C_11
REMARK    2  A    between atoms: S_4  and  C_14
REMARK    3  A    between atoms: O_5  and  N_8
REMARK    4  A    between atoms: O_5  and  C_20
REMARK    5  A    between atoms: C_9  and  C_13
REMARK    6  A    between atoms: C_16  and  C_25
REMARK    7  A    between atoms: C_19  and  C_20
REMARK                            x       y       z     vdW  Elec       q    Type
REMARK                         _______ _______ _______ _____ _____    ______ ____
ROOT
ATOM      1  S   UNL     1       0.448  15.486 -42.643  0.00  0.00    +0.000 S 
ATOM      2  N   UNL     1      -0.613  13.224 -42.050  0.00  0.00    +0.000 N 
ATOM      3  N   UNL     1      -2.238  14.674 -42.543  0.00  0.00    +0.000 NA
ATOM      4  C   UNL     1      -1.772  12.521 -41.858  0.00  0.00    +0.000 A 
ATOM      5  C   UNL     1      -0.955  14.480 -42.449  0.00  0.00    +0.000 A 
ATOM      6  C   UNL     1      -2.767  13.450 -42.167  0.00  0.00    +0.000 A 
ATOM      7  C   UNL     1       0.741  13.009 -41.880  0.00  0.00    +0.000 A 
ATOM      8  C   UNL     1       1.456  14.114 -42.151  0.00  0.00    +0.000 A 
ENDROOT
BRANCH   4  10
ATOM      9  N   UNL     1      -1.802  10.185 -42.202  0.00  0.00    +0.000 NA
ATOM     10  C   UNL     1      -1.842  11.175 -41.374  0.00  0.00    +0.000 C 
BRANCH   9  11
ATOM     11  O   UNL     1      -1.973   8.971 -41.523  0.00  0.00    +0.000 OA
BRANCH  11  12
ATOM     12  C   UNL     1      -0.670   8.425 -41.300  0.00  0.00    +0.000 C 
BRANCH  12  15
ATOM     13 CL   UNL     1      -2.213   4.099 -43.734  0.00  0.00    +0.000 Cl
ATOM     14 CL   UNL     1       0.533   4.227 -45.474  0.00  0.00    +0.000 Cl
ATOM     15  C   UNL     1      -0.380   7.364 -42.328  0.00  0.00    +0.000 A 
ATOM     16  C   UNL     1      -1.292   6.322 -42.550  0.00  0.00    +0.000 A 
ATOM     17  C   UNL     1       0.797   7.413 -43.085  0.00  0.00    +0.000 A 
ATOM     18  C   UNL     1      -1.032   5.343 -43.517  0.00  0.00    +0.000 A 
ATOM     19  C   UNL     1       1.058   6.437 -44.050  0.00  0.00    +0.000 A 
ATOM     20  C   UNL     1       0.145   5.401 -44.267  0.00  0.00    +0.000 A 
ENDBRANCH  12  15
ENDBRANCH  11  12
ENDBRANCH   9  11
ENDBRANCH   4  10
BRANCH   6  21
ATOM     21  S   UNL     1      -4.499  13.206 -42.027  0.00  0.00    +0.000 S 
BRANCH  21  22
ATOM     22  C   UNL     1      -5.184  14.428 -43.123  0.00  0.00    +0.000 A 
ATOM     23  C   UNL     1      -6.433  16.237 -44.885  0.00  0.00    +0.000 A 
ATOM     24  C   UNL     1      -5.149  14.211 -44.506  0.00  0.00    +0.000 A 
ATOM     25  C   UNL     1      -5.844  15.553 -42.629  0.00  0.00    +0.000 A 
ATOM     26  C   UNL     1      -5.765  15.113 -45.383  0.00  0.00    +0.000 A 
ATOM     27  C   UNL     1      -6.461  16.453 -43.503  0.00  0.00    +0.000 A 
ATOM     28  C   UNL     1      -7.122  17.201 -45.804  0.00  0.00    +0.000 C 
ENDBRANCH  21  22
ENDBRANCH   6  21
TORSDOF 6
ENDMDL
MODEL 9
REMARK VINA RESULT:      -5.1     26.973     28.767
REMARK  Name = 5842508
REMARK  7 active torsions:
REMARK  status: ('A' for Active; 'I' for Inactive)
REMARK    1  A    between atoms: S_4  and  C_11
REMARK    2  A    between atoms: S_4  and  C_14
REMARK    3  A    between atoms: O_5  and  N_8
REMARK    4  A    between atoms: O_5  and  C_20
REMARK    5  A    between atoms: C_9  and  C_13
REMARK    6  A    between atoms: C_16  and  C_25
REMARK    7  A    between atoms: C_19  and  C_20
REMARK                            x       y       z     vdW  Elec       q    Type
REMARK                         _______ _______ _______ _____ _____    ______ ____
ROOT
ATOM      1  S   UNL     1     -21.938  11.458 -62.204  0.00  0.00    +0.000 S 
ATOM      2  N   UNL     1     -20.016  11.480 -60.502  0.00  0.00    +0.000 N 
ATOM      3  N   UNL     1     -21.922  11.031 -59.429  0.00  0.00    +0.000 NA
ATOM      4  C   UNL     1     -19.654  11.378 -59.186  0.00  0.00    +0.000 A 
ATOM      5  C   UNL     1     -21.359  11.269 -60.577  0.00  0.00    +0.000 A 
ATOM      6  C   UNL     1     -20.862  11.102 -58.541  0.00  0.00    +0.000 A 
ATOM      7  C   UNL     1     -19.402  11.798 -61.698  0.00  0.00    +0.000 A 
ATOM      8  C   UNL     1     -20.283  11.833 -62.713  0.00  0.00    +0.000 A 
ENDROOT
BRANCH   4  10
ATOM      9  N   UNL     1     -17.814  12.779 -58.711  0.00  0.00    +0.000 NA
ATOM     10  C   UNL     1     -18.332  11.597 -58.680  0.00  0.00    +0.000 C 
BRANCH   9  11
ATOM     11  O   UNL     1     -16.491  12.745 -58.249  0.00  0.00    +0.000 OA
BRANCH  11  12
ATOM     12  C   UNL     1     -15.913  11.522 -58.714  0.00  0.00    +0.000 C 
BRANCH  12  15
ATOM     13 CL   UNL     1     -11.187  10.759 -56.689  0.00  0.00    +0.000 Cl
ATOM     14 CL   UNL     1      -9.939  12.154 -59.350  0.00  0.00    +0.000 Cl
ATOM     15  C   UNL     1     -14.423  11.682 -58.851  0.00  0.00    +0.000 A 
ATOM     16  C   UNL     1     -13.563  11.225 -57.842  0.00  0.00    +0.000 A 
ATOM     17  C   UNL     1     -13.876  12.278 -59.995  0.00  0.00    +0.000 A 
ATOM     18  C   UNL     1     -12.176  11.358 -57.974  0.00  0.00    +0.000 A 
ATOM     19  C   UNL     1     -12.492  12.411 -60.129  0.00  0.00    +0.000 A 
ATOM     20  C   UNL     1     -11.640  11.953 -59.120  0.00  0.00    +0.000 A 
ENDBRANCH  12  15
ENDBRANCH  11  12
ENDBRANCH   9  11
ENDBRANCH   4  10
BRANCH   6  21
ATOM     21  S   UNL     1     -21.106  10.951 -56.810  0.00  0.00    +0.000 S 
BRANCH  21  22
ATOM     22  C   UNL     1     -20.844   9.219 -56.500  0.00  0.00    +0.000 A 
ATOM     23  C   UNL     1     -20.452   6.444 -56.215  0.00  0.00    +0.000 A 
ATOM     24  C   UNL     1     -21.936   8.342 -56.518  0.00  0.00    +0.000 A 
ATOM     25  C   UNL     1     -19.559   8.701 -56.337  0.00  0.00    +0.000 A 
ATOM     26  C   UNL     1     -21.742   6.963 -56.371  0.00  0.00    +0.000 A 
ATOM     27  C   UNL     1     -19.364   7.324 -56.192  0.00  0.00    +0.000 A 
ATOM     28  C   UNL     1     -20.220   4.969 -56.083  0.00  0.00    +0.000 C 
ENDBRANCH  21  22
ENDBRANCH   6  21
TORSDOF 6
ENDMDL
MODEL 10
REMARK VINA RESULT:      -5.1     12.957     14.641
REMARK  Name = 5842508
REMARK  7 active torsions:
REMARK  status: ('A' for Active; 'I' for Inactive)
REMARK    1  A    between atoms: S_4  and  C_11
REMARK    2  A    between atoms: S_4  and  C_14
REMARK    3  A    between atoms: O_5  and  N_8
REMARK    4  A    between atoms: O_5  and  C_20
REMARK    5  A    between atoms: C_9  and  C_13
REMARK    6  A    between atoms: C_16  and  C_25
REMARK    7  A    between atoms: C_19  and  C_20
REMARK                            x       y       z     vdW  Elec       q    Type
REMARK                         _______ _______ _______ _____ _____    ______ ____
ROOT
ATOM      1  S   UNL     1       0.358  15.680 -42.730  0.00  0.00    +0.000 S 
ATOM      2  N   UNL     1      -0.710  13.394 -42.256  0.00  0.00    +0.000 N 
ATOM      3  N   UNL     1      -2.332  14.884 -42.618  0.00  0.00    +0.000 NA
ATOM      4  C   UNL     1      -1.870  12.689 -42.081  0.00  0.00    +0.000 A 
ATOM      5  C   UNL     1      -1.050  14.675 -42.566  0.00  0.00    +0.000 A 
ATOM      6  C   UNL     1      -2.864  13.643 -42.309  0.00  0.00    +0.000 A 
ATOM      7  C   UNL     1       0.646  13.158 -42.130  0.00  0.00    +0.000 A 
ATOM      8  C   UNL     1       1.365  14.273 -42.348  0.00  0.00    +0.000 A 
ENDROOT
BRANCH   4  10
ATOM      9  N   UNL     1      -1.396  10.399 -42.409  0.00  0.00    +0.000 NA
ATOM     10  C   UNL     1      -1.942  11.315 -41.681  0.00  0.00    +0.000 C 
BRANCH   9  11
ATOM     11  O   UNL     1      -1.662   9.129 -41.878  0.00  0.00    +0.000 OA
BRANCH  11  12
ATOM     12  C   UNL     1      -0.833   8.973 -40.723  0.00  0.00    +0.000 C 
BRANCH  12  15
ATOM     13 CL   UNL     1       2.448   5.054 -39.776  0.00  0.00    +0.000 Cl
ATOM     14 CL   UNL     1      -0.138   3.098 -39.497  0.00  0.00    +0.000 Cl
ATOM     15  C   UNL     1      -0.641   7.509 -40.429  0.00  0.00    +0.000 A 
ATOM     16  C   UNL     1       0.647   6.980 -40.264  0.00  0.00    +0.000 A 
ATOM     17  C   UNL     1      -1.748   6.659 -40.303  0.00  0.00    +0.000 A 
ATOM     18  C   UNL     1       0.827   5.622 -39.974  0.00  0.00    +0.000 A 
ATOM     19  C   UNL     1      -1.570   5.305 -40.014  0.00  0.00    +0.000 A 
ATOM     20  C   UNL     1      -0.284   4.783 -39.849  0.00  0.00    +0.000 A 
ENDBRANCH  12  15
ENDBRANCH  11  12
ENDBRANCH   9  11
ENDBRANCH   4  10
BRANCH   6  21
ATOM     21  S   UNL     1      -4.594  13.403 -42.144  0.00  0.00    +0.000 S 
BRANCH  21  22
ATOM     22  C   UNL     1      -5.290  14.603 -43.257  0.00  0.00    +0.000 A 
ATOM     23  C   UNL     1      -6.554  16.374 -45.047  0.00  0.00    +0.000 A 
ATOM     24  C   UNL     1      -5.236  14.376 -44.638  0.00  0.00    +0.000 A 
ATOM     25  C   UNL     1      -5.977  15.719 -42.780  0.00  0.00    +0.000 A 
ATOM     26  C   UNL     1      -5.860  15.258 -45.528  0.00  0.00    +0.000 A 
ATOM     27  C   UNL     1      -6.602  16.600 -43.667  0.00  0.00    +0.000 A 
ATOM     28  C   UNL     1      -7.252  17.316 -45.982  0.00  0.00    +0.000 C 
ENDBRANCH  21  22
ENDBRANCH   6  21
TORSDOF 6
ENDMDL
