REMARK  Name = 5842508
REMARK  7 active torsions:
REMARK  status: ('A' for Active; 'I' for Inactive)
REMARK    1  A    between atoms: S_4  and  C_11
REMARK    2  A    between atoms: S_4  and  C_14
REMARK    3  A    between atoms: O_5  and  N_8
REMARK    4  A    between atoms: O_5  and  C_20
REMARK    5  A    between atoms: C_9  and  C_13
REMARK    6  A    between atoms: C_16  and  C_25
REMARK    7  A    between atoms: C_19  and  C_20
REMARK                            x       y       z     vdW  Elec       q    Type
REMARK                         _______ _______ _______ _____ _____    ______ ____
ROOT
ATOM      1  S   UNL     1      -4.492   2.079  -8.404  0.00  0.00    +0.000 S 
ATOM      2  N   UNL     1      -4.718   1.573  -5.897  0.00  0.00    +0.000 N 
ATOM      3  N   UNL     1      -2.638   1.085  -6.545  0.00  0.00    +0.000 NA
ATOM      4  C   UNL     1      -4.114   1.080  -4.772  0.00  0.00    +0.000 A 
ATOM      5  C   UNL     1      -3.800   1.547  -6.902  0.00  0.00    +0.000 A 
ATOM      6  C   UNL     1      -2.821   0.780  -5.206  0.00  0.00    +0.000 A 
ATOM      7  C   UNL     1      -5.980   1.999  -6.263  0.00  0.00    +0.000 A 
ATOM      8  C   UNL     1      -6.039   2.308  -7.570  0.00  0.00    +0.000 A 
ENDROOT
BRANCH   4  10
ATOM      9  N   UNL     1      -4.342  -0.024  -2.697  0.00  0.00    +0.000 NA
ATOM     10  C   UNL     1      -4.765   0.884  -3.511  0.00  0.00    +0.000 C 
BRANCH   9  11
ATOM     11  O   UNL     1      -5.174  -0.099  -1.572  0.00  0.00    +0.000 OA
BRANCH  11  12
ATOM     12  C   UNL     1      -4.992  -1.397  -0.999  0.00  0.00    +0.000 C 
BRANCH  12  15
ATOM     13 CL   UNL     1      -8.998  -3.635   1.443  0.00  0.00    +0.000 Cl
ATOM     14 CL   UNL     1      -8.235  -1.881   4.075  0.00  0.00    +0.000 Cl
ATOM     15  C   UNL     1      -5.818  -1.521   0.253  0.00  0.00    +0.000 A 
ATOM     16  C   UNL     1      -6.912  -2.397   0.299  0.00  0.00    +0.000 A 
ATOM     17  C   UNL     1      -5.495  -0.773   1.393  0.00  0.00    +0.000 A 
ATOM     18  C   UNL     1      -7.672  -2.526   1.468  0.00  0.00    +0.000 A 
ATOM     19  C   UNL     1      -6.252  -0.901   2.560  0.00  0.00    +0.000 A 
ATOM     20  C   UNL     1      -7.341  -1.776   2.600  0.00  0.00    +0.000 A 
ENDBRANCH  12  15
ENDBRANCH  11  12
ENDBRANCH   9  11
ENDBRANCH   4  10
BRANCH   6  21
ATOM     21  S   UNL     1      -1.556   0.016  -4.260  0.00  0.00    +0.000 S 
BRANCH  21  22
ATOM     22  C   UNL     1      -0.211   1.177  -4.345  0.00  0.00    +0.000 A 
ATOM     23  C   UNL     1       2.042   2.867  -4.401  0.00  0.00    +0.000 A 
ATOM     24  C   UNL     1       0.243   1.794  -3.173  0.00  0.00    +0.000 A 
ATOM     25  C   UNL     1       0.466   1.412  -5.542  0.00  0.00    +0.000 A 
ATOM     26  C   UNL     1       1.360   2.638  -3.201  0.00  0.00    +0.000 A 
ATOM     27  C   UNL     1       1.582   2.253  -5.571  0.00  0.00    +0.000 A 
ATOM     28  C   UNL     1       3.256   3.746  -4.448  0.00  0.00    +0.000 C 
ENDBRANCH  21  22
ENDBRANCH   6  21
TORSDOF 6
