MODEL 1
REMARK VINA RESULT:      -5.7      0.000      0.000
REMARK  Name = 5842508
REMARK  7 active torsions:
REMARK  status: ('A' for Active; 'I' for Inactive)
REMARK    1  A    between atoms: S_4  and  C_11
REMARK    2  A    between atoms: S_4  and  C_14
REMARK    3  A    between atoms: O_5  and  N_8
REMARK    4  A    between atoms: O_5  and  C_20
REMARK    5  A    between atoms: C_9  and  C_13
REMARK    6  A    between atoms: C_16  and  C_25
REMARK    7  A    between atoms: C_19  and  C_20
REMARK                            x       y       z     vdW  Elec       q    Type
REMARK                         _______ _______ _______ _____ _____    ______ ____
ROOT
ATOM      1  S   UNL     1     -13.804  14.274  16.864  0.00  0.00    +0.000 S 
ATOM      2  N   UNL     1     -11.357  13.775  16.269  0.00  0.00    +0.000 N 
ATOM      3  N   UNL     1     -12.498  11.857  16.290  0.00  0.00    +0.000 NA
ATOM      4  C   UNL     1     -10.420  12.815  15.998  0.00  0.00    +0.000 A 
ATOM      5  C   UNL     1     -12.554  13.148  16.433  0.00  0.00    +0.000 A 
ATOM      6  C   UNL     1     -11.158  11.630  16.021  0.00  0.00    +0.000 A 
ATOM      7  C   UNL     1     -11.374  15.141  16.479  0.00  0.00    +0.000 A 
ATOM      8  C   UNL     1     -12.603  15.576  16.808  0.00  0.00    +0.000 A 
ENDROOT
BRANCH   4  10
ATOM      9  N   UNL     1      -8.229  13.062  16.843  0.00  0.00    +0.000 NA
ATOM     10  C   UNL     1      -9.020  13.062  15.823  0.00  0.00    +0.000 C 
BRANCH   9  11
ATOM     11  O   UNL     1      -6.929  13.410  16.454  0.00  0.00    +0.000 OA
BRANCH  11  12
ATOM     12  C   UNL     1      -6.889  14.836  16.344  0.00  0.00    +0.000 C 
BRANCH  12  15
ATOM     13 CL   UNL     1      -1.909  16.134  17.077  0.00  0.00    +0.000 Cl
ATOM     14 CL   UNL     1      -2.717  17.108  20.075  0.00  0.00    +0.000 Cl
ATOM     15  C   UNL     1      -5.835  15.388  17.265  0.00  0.00    +0.000 A 
ATOM     16  C   UNL     1      -4.504  15.497  16.837  0.00  0.00    +0.000 A 
ATOM     17  C   UNL     1      -6.173  15.814  18.556  0.00  0.00    +0.000 A 
ATOM     18  C   UNL     1      -3.524  16.026  17.686  0.00  0.00    +0.000 A 
ATOM     19  C   UNL     1      -5.197  16.343  19.404  0.00  0.00    +0.000 A 
ATOM     20  C   UNL     1      -3.872  16.449  18.972  0.00  0.00    +0.000 A 
ENDBRANCH  12  15
ENDBRANCH  11  12
ENDBRANCH   9  11
ENDBRANCH   4  10
BRANCH   6  21
ATOM     21  S   UNL     1     -10.523  10.004  15.842  0.00  0.00    +0.000 S 
BRANCH  21  22
ATOM     22  C   UNL     1     -10.953   9.215  17.377  0.00  0.00    +0.000 A 
ATOM     23  C   UNL     1     -11.536   7.796  19.740  0.00  0.00    +0.000 A 
ATOM     24  C   UNL     1     -11.988   8.272  17.402  0.00  0.00    +0.000 A 
ATOM     25  C   UNL     1     -10.216   9.444  18.539  0.00  0.00    +0.000 A 
ATOM     26  C   UNL     1     -12.281   7.570  18.578  0.00  0.00    +0.000 A 
ATOM     27  C   UNL     1     -10.506   8.743  19.712  0.00  0.00    +0.000 A 
ATOM     28  C   UNL     1     -11.816   7.035  21.002  0.00  0.00    +0.000 C 
ENDBRANCH  21  22
ENDBRANCH   6  21
TORSDOF 6
ENDMDL
MODEL 2
REMARK VINA RESULT:      -5.5     25.969     29.843
REMARK  Name = 5842508
REMARK  7 active torsions:
REMARK  status: ('A' for Active; 'I' for Inactive)
REMARK    1  A    between atoms: S_4  and  C_11
REMARK    2  A    between atoms: S_4  and  C_14
REMARK    3  A    between atoms: O_5  and  N_8
REMARK    4  A    between atoms: O_5  and  C_20
REMARK    5  A    between atoms: C_9  and  C_13
REMARK    6  A    between atoms: C_16  and  C_25
REMARK    7  A    between atoms: C_19  and  C_20
REMARK                            x       y       z     vdW  Elec       q    Type
REMARK                         _______ _______ _______ _____ _____    ______ ____
ROOT
ATOM      1  S   UNL     1      21.649   7.150  25.875  0.00  0.00    +0.000 S 
ATOM      2  N   UNL     1      20.423   8.104  23.831  0.00  0.00    +0.000 N 
ATOM      3  N   UNL     1      20.961   5.976  23.419  0.00  0.00    +0.000 NA
ATOM      4  C   UNL     1      19.988   7.880  22.552  0.00  0.00    +0.000 A 
ATOM      5  C   UNL     1      20.987   6.949  24.281  0.00  0.00    +0.000 A 
ATOM      6  C   UNL     1      20.340   6.548  22.321  0.00  0.00    +0.000 A 
ATOM      7  C   UNL     1      20.494   9.173  24.702  0.00  0.00    +0.000 A 
ATOM      8  C   UNL     1      21.120   8.841  25.844  0.00  0.00    +0.000 A 
ENDROOT
BRANCH   4  10
ATOM      9  N   UNL     1      18.112   9.038  21.706  0.00  0.00    +0.000 NA
ATOM     10  C   UNL     1      19.392   8.869  21.704  0.00  0.00    +0.000 C 
BRANCH   9  11
ATOM     11  O   UNL     1      17.743   9.989  20.744  0.00  0.00    +0.000 OA
BRANCH  11  12
ATOM     12  C   UNL     1      16.513  10.574  21.181  0.00  0.00    +0.000 C 
BRANCH  12  15
ATOM     13 CL   UNL     1      13.795   7.576  17.919  0.00  0.00    +0.000 Cl
ATOM     14 CL   UNL     1      12.002   6.621  20.461  0.00  0.00    +0.000 Cl
ATOM     15  C   UNL     1      15.385   9.598  20.982  0.00  0.00    +0.000 A 
ATOM     16  C   UNL     1      15.105   9.086  19.706  0.00  0.00    +0.000 A 
ATOM     17  C   UNL     1      14.610   9.177  22.070  0.00  0.00    +0.000 A 
ATOM     18  C   UNL     1      14.067   8.165  19.521  0.00  0.00    +0.000 A 
ATOM     19  C   UNL     1      13.574   8.258  21.887  0.00  0.00    +0.000 A 
ATOM     20  C   UNL     1      13.300   7.751  20.614  0.00  0.00    +0.000 A 
ENDBRANCH  12  15
ENDBRANCH  11  12
ENDBRANCH   9  11
ENDBRANCH   4  10
BRANCH   6  21
ATOM     21  S   UNL     1      20.144   5.666  20.817  0.00  0.00    +0.000 S 
BRANCH  21  22
ATOM     22  C   UNL     1      21.619   4.676  20.718  0.00  0.00    +0.000 A 
ATOM     23  C   UNL     1      24.011   3.189  20.745  0.00  0.00    +0.000 A 
ATOM     24  C   UNL     1      22.833   5.279  20.369  0.00  0.00    +0.000 A 
ATOM     25  C   UNL     1      21.609   3.327  21.077  0.00  0.00    +0.000 A 
ATOM     26  C   UNL     1      24.022   4.539  20.378  0.00  0.00    +0.000 A 
ATOM     27  C   UNL     1      22.795   2.589  21.088  0.00  0.00    +0.000 A 
ATOM     28  C   UNL     1      25.277   2.386  20.787  0.00  0.00    +0.000 C 
ENDBRANCH  21  22
ENDBRANCH   6  21
TORSDOF 6
ENDMDL
MODEL 3
REMARK VINA RESULT:      -5.5     22.080     24.999
REMARK  Name = 5842508
REMARK  7 active torsions:
REMARK  status: ('A' for Active; 'I' for Inactive)
REMARK    1  A    between atoms: S_4  and  C_11
REMARK    2  A    between atoms: S_4  and  C_14
REMARK    3  A    between atoms: O_5  and  N_8
REMARK    4  A    between atoms: O_5  and  C_20
REMARK    5  A    between atoms: C_9  and  C_13
REMARK    6  A    between atoms: C_16  and  C_25
REMARK    7  A    between atoms: C_19  and  C_20
REMARK                            x       y       z     vdW  Elec       q    Type
REMARK                         _______ _______ _______ _____ _____    ______ ____
ROOT
ATOM      1  S   UNL     1      -9.372 -13.520   5.758  0.00  0.00    +0.000 S 
ATOM      2  N   UNL     1      -7.610 -11.798   6.481  0.00  0.00    +0.000 N 
ATOM      3  N   UNL     1      -9.073 -10.803   5.119  0.00  0.00    +0.000 NA
ATOM      4  C   UNL     1      -7.145 -10.517   6.353  0.00  0.00    +0.000 A 
ATOM      5  C   UNL     1      -8.742 -11.901   5.731  0.00  0.00    +0.000 A 
ATOM      6  C   UNL     1      -8.073  -9.921   5.496  0.00  0.00    +0.000 A 
ATOM      7  C   UNL     1      -7.199 -12.967   7.090  0.00  0.00    +0.000 A 
ATOM      8  C   UNL     1      -8.025 -13.990   6.809  0.00  0.00    +0.000 A 
ENDROOT
BRANCH   4  10
ATOM      9  N   UNL     1      -5.930  -9.603   8.160  0.00  0.00    +0.000 NA
ATOM     10  C   UNL     1      -5.935 -10.022   6.939  0.00  0.00    +0.000 C 
BRANCH   9  11
ATOM     11  O   UNL     1      -4.671  -9.086   8.495  0.00  0.00    +0.000 OA
BRANCH  11  12
ATOM     12  C   UNL     1      -4.798  -8.467   9.778  0.00  0.00    +0.000 C 
BRANCH  12  15
ATOM     13 CL   UNL     1      -5.046 -11.160  14.217  0.00  0.00    +0.000 Cl
ATOM     14 CL   UNL     1      -1.878 -11.815  13.873  0.00  0.00    +0.000 Cl
ATOM     15  C   UNL     1      -4.083  -9.293  10.814  0.00  0.00    +0.000 A 
ATOM     16  C   UNL     1      -4.776  -9.793  11.926  0.00  0.00    +0.000 A 
ATOM     17  C   UNL     1      -2.720  -9.584  10.672  0.00  0.00    +0.000 A 
ATOM     18  C   UNL     1      -4.117 -10.575  12.882  0.00  0.00    +0.000 A 
ATOM     19  C   UNL     1      -2.061 -10.364  11.626  0.00  0.00    +0.000 A 
ATOM     20  C   UNL     1      -2.757 -10.861  12.731  0.00  0.00    +0.000 A 
ENDBRANCH  12  15
ENDBRANCH  11  12
ENDBRANCH   9  11
ENDBRANCH   4  10
BRANCH   6  21
ATOM     21  S   UNL     1      -7.997  -8.292   4.849  0.00  0.00    +0.000 S 
BRANCH  21  22
ATOM     22  C   UNL     1      -8.789  -7.308   6.101  0.00  0.00    +0.000 A 
ATOM     23  C   UNL     1     -10.114  -5.926   8.167  0.00  0.00    +0.000 A 
ATOM     24  C   UNL     1     -10.173  -7.105   6.045  0.00  0.00    +0.000 A 
ATOM     25  C   UNL     1      -8.074  -6.814   7.192  0.00  0.00    +0.000 A 
ATOM     26  C   UNL     1     -10.832  -6.414   7.070  0.00  0.00    +0.000 A 
ATOM     27  C   UNL     1      -8.730  -6.126   8.216  0.00  0.00    +0.000 A 
ATOM     28  C   UNL     1     -10.804  -5.207   9.288  0.00  0.00    +0.000 C 
ENDBRANCH  21  22
ENDBRANCH   6  21
TORSDOF 6
ENDMDL
MODEL 4
REMARK VINA RESULT:      -5.4     25.798     29.605
REMARK  Name = 5842508
REMARK  7 active torsions:
REMARK  status: ('A' for Active; 'I' for Inactive)
REMARK    1  A    between atoms: S_4  and  C_11
REMARK    2  A    between atoms: S_4  and  C_14
REMARK    3  A    between atoms: O_5  and  N_8
REMARK    4  A    between atoms: O_5  and  C_20
REMARK    5  A    between atoms: C_9  and  C_13
REMARK    6  A    between atoms: C_16  and  C_25
REMARK    7  A    between atoms: C_19  and  C_20
REMARK                            x       y       z     vdW  Elec       q    Type
REMARK                         _______ _______ _______ _____ _____    ______ ____
ROOT
ATOM      1  S   UNL     1      22.254  10.478  20.861  0.00  0.00    +0.000 S 
ATOM      2  N   UNL     1      20.448   8.674  21.138  0.00  0.00    +0.000 N 
ATOM      3  N   UNL     1      22.392   7.681  20.673  0.00  0.00    +0.000 NA
ATOM      4  C   UNL     1      20.147   7.340  21.077  0.00  0.00    +0.000 A 
ATOM      5  C   UNL     1      21.780   8.807  20.889  0.00  0.00    +0.000 A 
ATOM      6  C   UNL     1      21.375   6.746  20.782  0.00  0.00    +0.000 A 
ATOM      7  C   UNL     1      19.759   9.860  21.308  0.00  0.00    +0.000 A 
ATOM      8  C   UNL     1      20.570  10.925  21.189  0.00  0.00    +0.000 A 
ENDROOT
BRANCH   4  10
ATOM      9  N   UNL     1      18.130   6.506  20.175  0.00  0.00    +0.000 NA
ATOM     10  C   UNL     1      18.832   6.789  21.221  0.00  0.00    +0.000 C 
BRANCH   9  11
ATOM     11  O   UNL     1      16.853   6.065  20.548  0.00  0.00    +0.000 OA
BRANCH  11  12
ATOM     12  C   UNL     1      16.294   7.066  21.403  0.00  0.00    +0.000 C 
BRANCH  12  15
ATOM     13 CL   UNL     1      11.611   9.013  22.541  0.00  0.00    +0.000 Cl
ATOM     14 CL   UNL     1      10.767   8.512  19.438  0.00  0.00    +0.000 Cl
ATOM     15  C   UNL     1      14.909   7.421  20.934  0.00  0.00    +0.000 A 
ATOM     16  C   UNL     1      13.978   7.978  21.822  0.00  0.00    +0.000 A 
ATOM     17  C   UNL     1      14.537   7.212  19.599  0.00  0.00    +0.000 A 
ATOM     18  C   UNL     1      12.694   8.324  21.383  0.00  0.00    +0.000 A 
ATOM     19  C   UNL     1      13.257   7.558  19.159  0.00  0.00    +0.000 A 
ATOM     20  C   UNL     1      12.333   8.113  20.049  0.00  0.00    +0.000 A 
ENDBRANCH  12  15
ENDBRANCH  11  12
ENDBRANCH   9  11
ENDBRANCH   4  10
BRANCH   6  21
ATOM     21  S   UNL     1      21.661   5.043  20.473  0.00  0.00    +0.000 S 
BRANCH  21  22
ATOM     22  C   UNL     1      22.257   4.428  22.032  0.00  0.00    +0.000 A 
ATOM     23  C   UNL     1      23.003   3.439  24.561  0.00  0.00    +0.000 A 
ATOM     24  C   UNL     1      22.244   5.266  23.154  0.00  0.00    +0.000 A 
ATOM     25  C   UNL     1      22.647   3.097  22.182  0.00  0.00    +0.000 A 
ATOM     26  C   UNL     1      22.619   4.776  24.411  0.00  0.00    +0.000 A 
ATOM     27  C   UNL     1      23.020   2.606  23.437  0.00  0.00    +0.000 A 
ATOM     28  C   UNL     1      23.383   2.887  25.903  0.00  0.00    +0.000 C 
ENDBRANCH  21  22
ENDBRANCH   6  21
TORSDOF 6
ENDMDL
MODEL 5
REMARK VINA RESULT:      -5.3     25.524     28.694
REMARK  Name = 5842508
REMARK  7 active torsions:
REMARK  status: ('A' for Active; 'I' for Inactive)
REMARK    1  A    between atoms: S_4  and  C_11
REMARK    2  A    between atoms: S_4  and  C_14
REMARK    3  A    between atoms: O_5  and  N_8
REMARK    4  A    between atoms: O_5  and  C_20
REMARK    5  A    between atoms: C_9  and  C_13
REMARK    6  A    between atoms: C_16  and  C_25
REMARK    7  A    between atoms: C_19  and  C_20
REMARK                            x       y       z     vdW  Elec       q    Type
REMARK                         _______ _______ _______ _____ _____    ______ ____
ROOT
ATOM      1  S   UNL     1      -6.182 -10.640  15.670  0.00  0.00    +0.000 S 
ATOM      2  N   UNL     1      -4.140 -12.075  15.066  0.00  0.00    +0.000 N 
ATOM      3  N   UNL     1      -4.077 -10.193  13.867  0.00  0.00    +0.000 NA
ATOM      4  C   UNL     1      -3.030 -12.207  14.276  0.00  0.00    +0.000 A 
ATOM      5  C   UNL     1      -4.711 -10.873  14.776  0.00  0.00    +0.000 A 
ATOM      6  C   UNL     1      -3.018 -11.023  13.537  0.00  0.00    +0.000 A 
ATOM      7  C   UNL     1      -4.828 -12.848  15.982  0.00  0.00    +0.000 A 
ATOM      8  C   UNL     1      -5.946 -12.235  16.407  0.00  0.00    +0.000 A 
ENDROOT
BRANCH   4  10
ATOM      9  N   UNL     1      -2.603 -14.452  13.679  0.00  0.00    +0.000 NA
ATOM     10  C   UNL     1      -2.186 -13.364  14.235  0.00  0.00    +0.000 C 
BRANCH   9  11
ATOM     11  O   UNL     1      -1.656 -15.473  13.830  0.00  0.00    +0.000 OA
BRANCH  11  12
ATOM     12  C   UNL     1      -2.043 -16.241  14.973  0.00  0.00    +0.000 C 
BRANCH  12  15
ATOM     13 CL   UNL     1       1.339 -19.302  17.466  0.00  0.00    +0.000 Cl
ATOM     14 CL   UNL     1       0.991 -21.464  15.060  0.00  0.00    +0.000 Cl
ATOM     15  C   UNL     1      -1.271 -17.532  15.005  0.00  0.00    +0.000 A 
ATOM     16  C   UNL     1      -0.406 -17.817  16.071  0.00  0.00    +0.000 A 
ATOM     17  C   UNL     1      -1.417 -18.472  13.975  0.00  0.00    +0.000 A 
ATOM     18  C   UNL     1       0.301 -19.025  16.111  0.00  0.00    +0.000 A 
ATOM     19  C   UNL     1      -0.712 -19.677  14.014  0.00  0.00    +0.000 A 
ATOM     20  C   UNL     1       0.148 -19.956  15.080  0.00  0.00    +0.000 A 
ENDBRANCH  12  15
ENDBRANCH  11  12
ENDBRANCH   9  11
ENDBRANCH   4  10
BRANCH   6  21
ATOM     21  S   UNL     1      -1.892 -10.605  12.258  0.00  0.00    +0.000 S 
BRANCH  21  22
ATOM     22  C   UNL     1      -2.938 -10.384  10.836  0.00  0.00    +0.000 A 
ATOM     23  C   UNL     1      -4.757 -10.036   8.714  0.00  0.00    +0.000 A 
ATOM     24  C   UNL     1      -3.662 -11.473  10.336  0.00  0.00    +0.000 A 
ATOM     25  C   UNL     1      -3.127  -9.124  10.267  0.00  0.00    +0.000 A 
ATOM     26  C   UNL     1      -4.563 -11.301   9.278  0.00  0.00    +0.000 A 
ATOM     27  C   UNL     1      -4.027  -8.951   9.212  0.00  0.00    +0.000 A 
ATOM     28  C   UNL     1      -5.736  -9.826   7.598  0.00  0.00    +0.000 C 
ENDBRANCH  21  22
ENDBRANCH   6  21
TORSDOF 6
ENDMDL
MODEL 6
REMARK VINA RESULT:      -5.3     25.718     28.520
REMARK  Name = 5842508
REMARK  7 active torsions:
REMARK  status: ('A' for Active; 'I' for Inactive)
REMARK    1  A    between atoms: S_4  and  C_11
REMARK    2  A    between atoms: S_4  and  C_14
REMARK    3  A    between atoms: O_5  and  N_8
REMARK    4  A    between atoms: O_5  and  C_20
REMARK    5  A    between atoms: C_9  and  C_13
REMARK    6  A    between atoms: C_16  and  C_25
REMARK    7  A    between atoms: C_19  and  C_20
REMARK                            x       y       z     vdW  Elec       q    Type
REMARK                         _______ _______ _______ _____ _____    ______ ____
ROOT
ATOM      1  S   UNL     1      15.359   9.513  -0.599  0.00  0.00    +0.000 S 
ATOM      2  N   UNL     1      14.433   7.578   0.811  0.00  0.00    +0.000 N 
ATOM      3  N   UNL     1      15.562   6.731  -0.918  0.00  0.00    +0.000 NA
ATOM      4  C   UNL     1      14.291   6.223   0.939  0.00  0.00    +0.000 A 
ATOM      5  C   UNL     1      15.186   7.811  -0.298  0.00  0.00    +0.000 A 
ATOM      6  C   UNL     1      15.000   5.721  -0.155  0.00  0.00    +0.000 A 
ATOM      7  C   UNL     1      13.966   8.709   1.454  0.00  0.00    +0.000 A 
ATOM      8  C   UNL     1      14.365   9.832   0.832  0.00  0.00    +0.000 A 
ENDROOT
BRANCH   4  10
ATOM      9  N   UNL     1      12.363   5.061   1.653  0.00  0.00    +0.000 NA
ATOM     10  C   UNL     1      13.511   5.572   1.949  0.00  0.00    +0.000 C 
BRANCH   9  11
ATOM     11  O   UNL     1      11.741   4.556   2.802  0.00  0.00    +0.000 OA
BRANCH  11  12
ATOM     12  C   UNL     1      10.362   4.931   2.734  0.00  0.00    +0.000 C 
BRANCH  12  15
ATOM     13 CL   UNL     1       9.944   4.455   7.894  0.00  0.00    +0.000 Cl
ATOM     14 CL   UNL     1       8.668   7.448   7.958  0.00  0.00    +0.000 Cl
ATOM     15  C   UNL     1       9.934   5.538   4.043  0.00  0.00    +0.000 A 
ATOM     16  C   UNL     1      10.091   4.827   5.241  0.00  0.00    +0.000 A 
ATOM     17  C   UNL     1       9.387   6.827   4.082  0.00  0.00    +0.000 A 
ATOM     18  C   UNL     1       9.708   5.396   6.462  0.00  0.00    +0.000 A 
ATOM     19  C   UNL     1       9.006   7.397   5.299  0.00  0.00    +0.000 A 
ATOM     20  C   UNL     1       9.164   6.683   6.490  0.00  0.00    +0.000 A 
ENDBRANCH  12  15
ENDBRANCH  11  12
ENDBRANCH   9  11
ENDBRANCH   4  10
BRANCH   6  21
ATOM     21  S   UNL     1      15.128   4.036  -0.628  0.00  0.00    +0.000 S 
BRANCH  21  22
ATOM     22  C   UNL     1      13.746   3.804  -1.724  0.00  0.00    +0.000 A 
ATOM     23  C   UNL     1      11.669   3.289  -3.556  0.00  0.00    +0.000 A 
ATOM     24  C   UNL     1      13.801   4.321  -3.024  0.00  0.00    +0.000 A 
ATOM     25  C   UNL     1      12.647   3.032  -1.347  0.00  0.00    +0.000 A 
ATOM     26  C   UNL     1      12.767   4.069  -3.934  0.00  0.00    +0.000 A 
ATOM     27  C   UNL     1      11.614   2.779  -2.254  0.00  0.00    +0.000 A 
ATOM     28  C   UNL     1      10.563   2.986  -4.523  0.00  0.00    +0.000 C 
ENDBRANCH  21  22
ENDBRANCH   6  21
TORSDOF 6
ENDMDL
MODEL 7
REMARK VINA RESULT:      -5.2     19.984     22.500
REMARK  Name = 5842508
REMARK  7 active torsions:
REMARK  status: ('A' for Active; 'I' for Inactive)
REMARK    1  A    between atoms: S_4  and  C_11
REMARK    2  A    between atoms: S_4  and  C_14
REMARK    3  A    between atoms: O_5  and  N_8
REMARK    4  A    between atoms: O_5  and  C_20
REMARK    5  A    between atoms: C_9  and  C_13
REMARK    6  A    between atoms: C_16  and  C_25
REMARK    7  A    between atoms: C_19  and  C_20
REMARK                            x       y       z     vdW  Elec       q    Type
REMARK                         _______ _______ _______ _____ _____    ______ ____
ROOT
ATOM      1  S   UNL     1       0.021  13.081  36.115  0.00  0.00    +0.000 S 
ATOM      2  N   UNL     1      -2.100  11.860  36.890  0.00  0.00    +0.000 N 
ATOM      3  N   UNL     1      -0.609  11.836  38.551  0.00  0.00    +0.000 NA
ATOM      4  C   UNL     1      -2.708  11.146  37.887  0.00  0.00    +0.000 A 
ATOM      5  C   UNL     1      -0.871  12.233  37.341  0.00  0.00    +0.000 A 
ATOM      6  C   UNL     1      -1.755  11.143  38.907  0.00  0.00    +0.000 A 
ATOM      7  C   UNL     1      -2.381  12.214  35.584  0.00  0.00    +0.000 A 
ATOM      8  C   UNL     1      -1.355  12.872  35.018  0.00  0.00    +0.000 A 
ENDROOT
BRANCH   4  10
ATOM      9  N   UNL     1      -4.119   9.396  37.164  0.00  0.00    +0.000 NA
ATOM     10  C   UNL     1      -3.993  10.522  37.782  0.00  0.00    +0.000 C 
BRANCH   9  11
ATOM     11  O   UNL     1      -5.466   9.016  37.108  0.00  0.00    +0.000 OA
BRANCH  11  12
ATOM     12  C   UNL     1      -6.117   9.905  36.196  0.00  0.00    +0.000 C 
BRANCH  12  15
ATOM     13 CL   UNL     1     -10.139   7.196  38.068  0.00  0.00    +0.000 Cl
ATOM     14 CL   UNL     1     -12.003   8.601  35.801  0.00  0.00    +0.000 Cl
ATOM     15  C   UNL     1      -7.579   9.560  36.104  0.00  0.00    +0.000 A 
ATOM     16  C   UNL     1      -8.150   8.641  36.997  0.00  0.00    +0.000 A 
ATOM     17  C   UNL     1      -8.391  10.162  35.134  0.00  0.00    +0.000 A 
ATOM     18  C   UNL     1      -9.513   8.331  36.924  0.00  0.00    +0.000 A 
ATOM     19  C   UNL     1      -9.751   9.853  35.060  0.00  0.00    +0.000 A 
ATOM     20  C   UNL     1     -10.315   8.938  35.953  0.00  0.00    +0.000 A 
ENDBRANCH  12  15
ENDBRANCH  11  12
ENDBRANCH   9  11
ENDBRANCH   4  10
BRANCH   6  21
ATOM     21  S   UNL     1      -1.876  10.303  40.443  0.00  0.00    +0.000 S 
BRANCH  21  22
ATOM     22  C   UNL     1      -1.078   8.744  40.132  0.00  0.00    +0.000 A 
ATOM     23  C   UNL     1       0.066   6.193  39.789  0.00  0.00    +0.000 A 
ATOM     24  C   UNL     1      -0.103   8.278  41.021  0.00  0.00    +0.000 A 
ATOM     25  C   UNL     1      -1.475   7.929  39.072  0.00  0.00    +0.000 A 
ATOM     26  C   UNL     1       0.470   7.012  40.849  0.00  0.00    +0.000 A 
ATOM     27  C   UNL     1      -0.905   6.664  38.899  0.00  0.00    +0.000 A 
ATOM     28  C   UNL     1       0.647   4.823  39.602  0.00  0.00    +0.000 C 
ENDBRANCH  21  22
ENDBRANCH   6  21
TORSDOF 6
ENDMDL
MODEL 8
REMARK VINA RESULT:      -5.2      8.590     12.336
REMARK  Name = 5842508
REMARK  7 active torsions:
REMARK  status: ('A' for Active; 'I' for Inactive)
REMARK    1  A    between atoms: S_4  and  C_11
REMARK    2  A    between atoms: S_4  and  C_14
REMARK    3  A    between atoms: O_5  and  N_8
REMARK    4  A    between atoms: O_5  and  C_20
REMARK    5  A    between atoms: C_9  and  C_13
REMARK    6  A    between atoms: C_16  and  C_25
REMARK    7  A    between atoms: C_19  and  C_20
REMARK                            x       y       z     vdW  Elec       q    Type
REMARK                         _______ _______ _______ _____ _____    ______ ____
ROOT
ATOM      1  S   UNL     1     -14.799  11.073  22.517  0.00  0.00    +0.000 S 
ATOM      2  N   UNL     1     -14.807   8.522  22.219  0.00  0.00    +0.000 N 
ATOM      3  N   UNL     1     -12.884   9.334  21.426  0.00  0.00    +0.000 NA
ATOM      4  C   UNL     1     -14.146   7.427  21.732  0.00  0.00    +0.000 A 
ATOM      5  C   UNL     1     -14.015   9.609  22.007  0.00  0.00    +0.000 A 
ATOM      6  C   UNL     1     -12.954   7.963  21.240  0.00  0.00    +0.000 A 
ATOM      7  C   UNL     1     -16.041   8.793  22.776  0.00  0.00    +0.000 A 
ATOM      8  C   UNL     1     -16.206  10.109  22.999  0.00  0.00    +0.000 A 
ENDROOT
BRANCH   4  10
ATOM      9  N   UNL     1     -14.799   5.428  22.806  0.00  0.00    +0.000 NA
ATOM     10  C   UNL     1     -14.673   6.095  21.708  0.00  0.00    +0.000 C 
BRANCH   9  11
ATOM     11  O   UNL     1     -15.248   4.128  22.540  0.00  0.00    +0.000 OA
BRANCH  11  12
ATOM     12  C   UNL     1     -16.601   4.047  22.998  0.00  0.00    +0.000 C 
BRANCH  12  15
ATOM     13 CL   UNL     1     -18.129   6.625  27.245  0.00  0.00    +0.000 Cl
ATOM     14 CL   UNL     1     -16.744   4.286  29.033  0.00  0.00    +0.000 Cl
ATOM     15  C   UNL     1     -16.635   4.128  24.500  0.00  0.00    +0.000 A 
ATOM     16  C   UNL     1     -17.271   5.203  25.140  0.00  0.00    +0.000 A 
ATOM     17  C   UNL     1     -16.046   3.124  25.279  0.00  0.00    +0.000 A 
ATOM     18  C   UNL     1     -17.318   5.272  26.537  0.00  0.00    +0.000 A 
ATOM     19  C   UNL     1     -16.093   3.192  26.673  0.00  0.00    +0.000 A 
ATOM     20  C   UNL     1     -16.728   4.264  27.305  0.00  0.00    +0.000 A 
ENDBRANCH  12  15
ENDBRANCH  11  12
ENDBRANCH   9  11
ENDBRANCH   4  10
BRANCH   6  21
ATOM     21  S   UNL     1     -11.693   7.089  20.388  0.00  0.00    +0.000 S 
BRANCH  21  22
ATOM     22  C   UNL     1     -11.865   7.642  18.706  0.00  0.00    +0.000 A 
ATOM     23  C   UNL     1     -12.166   8.708  16.116  0.00  0.00    +0.000 A 
ATOM     24  C   UNL     1     -13.138   7.938  18.204  0.00  0.00    +0.000 A 
ATOM     25  C   UNL     1     -10.747   7.879  17.905  0.00  0.00    +0.000 A 
ATOM     26  C   UNL     1     -13.289   8.464  16.915  0.00  0.00    +0.000 A 
ATOM     27  C   UNL     1     -10.896   8.405  16.619  0.00  0.00    +0.000 A 
ATOM     28  C   UNL     1     -12.303   9.296  14.743  0.00  0.00    +0.000 C 
ENDBRANCH  21  22
ENDBRANCH   6  21
TORSDOF 6
ENDMDL
MODEL 9
REMARK VINA RESULT:      -5.1     32.319     34.547
REMARK  Name = 5842508
REMARK  7 active torsions:
REMARK  status: ('A' for Active; 'I' for Inactive)
REMARK    1  A    between atoms: S_4  and  C_11
REMARK    2  A    between atoms: S_4  and  C_14
REMARK    3  A    between atoms: O_5  and  N_8
REMARK    4  A    between atoms: O_5  and  C_20
REMARK    5  A    between atoms: C_9  and  C_13
REMARK    6  A    between atoms: C_16  and  C_25
REMARK    7  A    between atoms: C_19  and  C_20
REMARK                            x       y       z     vdW  Elec       q    Type
REMARK                         _______ _______ _______ _____ _____    ______ ____
ROOT
ATOM      1  S   UNL     1      -5.973 -13.431  -1.315  0.00  0.00    +0.000 S 
ATOM      2  N   UNL     1      -3.564 -13.869  -0.543  0.00  0.00    +0.000 N 
ATOM      3  N   UNL     1      -3.713 -14.320  -2.724  0.00  0.00    +0.000 NA
ATOM      4  C   UNL     1      -2.316 -14.312  -0.889  0.00  0.00    +0.000 A 
ATOM      5  C   UNL     1      -4.337 -13.900  -1.663  0.00  0.00    +0.000 A 
ATOM      6  C   UNL     1      -2.439 -14.590  -2.252  0.00  0.00    +0.000 A 
ATOM      7  C   UNL     1      -4.217 -13.488   0.613  0.00  0.00    +0.000 A 
ATOM      8  C   UNL     1      -5.514 -13.219   0.384  0.00  0.00    +0.000 A 
ENDROOT
BRANCH   4  10
ATOM      9  N   UNL     1      -0.732 -13.472   0.648  0.00  0.00    +0.000 NA
ATOM     10  C   UNL     1      -1.226 -14.488   0.025  0.00  0.00    +0.000 C 
BRANCH   9  11
ATOM     11  O   UNL     1       0.374 -13.860   1.417  0.00  0.00    +0.000 OA
BRANCH  11  12
ATOM     12  C   UNL     1       0.425 -15.289   1.391  0.00  0.00    +0.000 C 
BRANCH  12  15
ATOM     13 CL   UNL     1       4.986 -14.898  -1.070  0.00  0.00    +0.000 Cl
ATOM     14 CL   UNL     1       6.164 -17.131   0.983  0.00  0.00    +0.000 Cl
ATOM     15  C   UNL     1       1.854 -15.745   1.268  0.00  0.00    +0.000 A 
ATOM     16  C   UNL     1       2.689 -15.207   0.278  0.00  0.00    +0.000 A 
ATOM     17  C   UNL     1       2.371 -16.703   2.150  0.00  0.00    +0.000 A 
ATOM     18  C   UNL     1       4.023 -15.618   0.172  0.00  0.00    +0.000 A 
ATOM     19  C   UNL     1       3.702 -17.114   2.045  0.00  0.00    +0.000 A 
ATOM     20  C   UNL     1       4.530 -16.574   1.057  0.00  0.00    +0.000 A 
ENDBRANCH  12  15
ENDBRANCH  11  12
ENDBRANCH   9  11
ENDBRANCH   4  10
BRANCH   6  21
ATOM     21  S   UNL     1      -1.208 -15.292  -3.287  0.00  0.00    +0.000 S 
BRANCH  21  22
ATOM     22  C   UNL     1      -0.229 -13.892  -3.781  0.00  0.00    +0.000 A 
ATOM     23  C   UNL     1       1.178 -11.552  -4.476  0.00  0.00    +0.000 A 
ATOM     24  C   UNL     1      -0.629 -13.123  -4.880  0.00  0.00    +0.000 A 
ATOM     25  C   UNL     1       0.878 -13.485  -3.035  0.00  0.00    +0.000 A 
ATOM     26  C   UNL     1       0.072 -11.962  -5.229  0.00  0.00    +0.000 A 
ATOM     27  C   UNL     1       1.578 -12.326  -3.381  0.00  0.00    +0.000 A 
ATOM     28  C   UNL     1       1.927 -10.299  -4.816  0.00  0.00    +0.000 C 
ENDBRANCH  21  22
ENDBRANCH   6  21
TORSDOF 6
ENDMDL
MODEL 10
REMARK VINA RESULT:      -5.1     21.101     24.656
REMARK  Name = 5842508
REMARK  7 active torsions:
REMARK  status: ('A' for Active; 'I' for Inactive)
REMARK    1  A    between atoms: S_4  and  C_11
REMARK    2  A    between atoms: S_4  and  C_14
REMARK    3  A    between atoms: O_5  and  N_8
REMARK    4  A    between atoms: O_5  and  C_20
REMARK    5  A    between atoms: C_9  and  C_13
REMARK    6  A    between atoms: C_16  and  C_25
REMARK    7  A    between atoms: C_19  and  C_20
REMARK                            x       y       z     vdW  Elec       q    Type
REMARK                         _______ _______ _______ _____ _____    ______ ____
ROOT
ATOM      1  S   UNL     1      19.345  12.988  24.493  0.00  0.00    +0.000 S 
ATOM      2  N   UNL     1      16.802  12.872  24.823  0.00  0.00    +0.000 N 
ATOM      3  N   UNL     1      17.268  12.472  22.677  0.00  0.00    +0.000 NA
ATOM      4  C   UNL     1      15.579  12.711  24.230  0.00  0.00    +0.000 A 
ATOM      5  C   UNL     1      17.750  12.722  23.858  0.00  0.00    +0.000 A 
ATOM      6  C   UNL     1      15.899  12.468  22.893  0.00  0.00    +0.000 A 
ATOM      7  C   UNL     1      17.282  13.201  26.076  0.00  0.00    +0.000 A 
ATOM      8  C   UNL     1      18.623  13.307  26.080  0.00  0.00    +0.000 A 
ENDROOT
BRANCH   4  10
ATOM      9  N   UNL     1      13.626  11.813  25.208  0.00  0.00    +0.000 NA
ATOM     10  C   UNL     1      14.319  12.856  24.896  0.00  0.00    +0.000 C 
BRANCH   9  11
ATOM     11  O   UNL     1      12.398  12.190  25.768  0.00  0.00    +0.000 OA
BRANCH  11  12
ATOM     12  C   UNL     1      11.372  11.548  25.006  0.00  0.00    +0.000 C 
BRANCH  12  15
ATOM     13 CL   UNL     1       8.704  15.792  23.630  0.00  0.00    +0.000 Cl
ATOM     14 CL   UNL     1       9.579  15.213  20.550  0.00  0.00    +0.000 Cl
ATOM     15  C   UNL     1      10.906  12.465  23.907  0.00  0.00    +0.000 A 
ATOM     16  C   UNL     1      10.104  13.577  24.200  0.00  0.00    +0.000 A 
ATOM     17  C   UNL     1      11.281  12.226  22.578  0.00  0.00    +0.000 A 
ATOM     18  C   UNL     1       9.683  14.440  23.181  0.00  0.00    +0.000 A 
ATOM     19  C   UNL     1      10.863  13.087  21.560  0.00  0.00    +0.000 A 
ATOM     20  C   UNL     1      10.063  14.193  21.859  0.00  0.00    +0.000 A 
ENDBRANCH  12  15
ENDBRANCH  11  12
ENDBRANCH   9  11
ENDBRANCH   4  10
BRANCH   6  21
ATOM     21  S   UNL     1      14.764  12.272  21.569  0.00  0.00    +0.000 S 
BRANCH  21  22
ATOM     22  C   UNL     1      14.824  10.528  21.221  0.00  0.00    +0.000 A 
ATOM     23  C   UNL     1      15.127   7.779  20.691  0.00  0.00    +0.000 A 
ATOM     24  C   UNL     1      15.239  10.091  19.958  0.00  0.00    +0.000 A 
ATOM     25  C   UNL     1      14.560   9.584  22.214  0.00  0.00    +0.000 A 
ATOM     26  C   UNL     1      15.385   8.724  19.692  0.00  0.00    +0.000 A 
ATOM     27  C   UNL     1      14.707   8.220  21.950  0.00  0.00    +0.000 A 
ATOM     28  C   UNL     1      15.302   6.311  20.435  0.00  0.00    +0.000 C 
ENDBRANCH  21  22
ENDBRANCH   6  21
TORSDOF 6
ENDMDL
