MODEL 1
REMARK VINA RESULT:      -5.8      0.000      0.000
REMARK  Name = 5878688
REMARK  5 active torsions:
REMARK  status: ('A' for Active; 'I' for Inactive)
REMARK    1  A    between atoms: O_5  and  N_8
REMARK    2  A    between atoms: O_5  and  C_21
REMARK    3  A    between atoms: C_9  and  C_14
REMARK    4  A    between atoms: C_10  and  C_12
REMARK    5  A    between atoms: C_20  and  C_21
REMARK                            x       y       z     vdW  Elec       q    Type
REMARK                         _______ _______ _______ _____ _____    ______ ____
ROOT
ATOM      1  S   UNL     1     -13.399 -14.349  21.376  0.00  0.00    +0.000 S 
ATOM      2  N   UNL     1     -11.093 -13.477  20.665  0.00  0.00    +0.000 N 
ATOM      3  N   UNL     1     -12.653 -12.438  19.459  0.00  0.00    +0.000 NA
ATOM      4  C   UNL     1     -10.384 -12.656  19.825  0.00  0.00    +0.000 A 
ATOM      5  C   UNL     1     -11.384 -11.993  19.099  0.00  0.00    +0.000 A 
ATOM      6  C   UNL     1     -12.414 -13.313  20.391  0.00  0.00    +0.000 A 
ATOM      7  C   UNL     1     -10.805 -14.415  21.635  0.00  0.00    +0.000 A 
ATOM      8  C   UNL     1     -11.923 -14.979  22.125  0.00  0.00    +0.000 A 
ENDROOT
BRANCH   5  10
ATOM      9 CL   UNL     1     -10.815  -7.675  14.988  0.00  0.00    +0.000 Cl
ATOM     10  C   UNL     1     -11.216 -10.956  18.084  0.00  0.00    +0.000 A 
ATOM     11  C   UNL     1     -10.915 -11.259  16.749  0.00  0.00    +0.000 A 
ATOM     12  C   UNL     1     -11.330  -9.608  18.452  0.00  0.00    +0.000 A 
ATOM     13  C   UNL     1     -10.805 -10.249  15.789  0.00  0.00    +0.000 A 
ATOM     14  C   UNL     1     -11.195  -8.591  17.500  0.00  0.00    +0.000 A 
ATOM     15  C   UNL     1     -10.949  -8.918  16.170  0.00  0.00    +0.000 A 
ENDBRANCH   5  10
BRANCH   4  17
ATOM     16  N   UNL     1      -8.319 -11.495  19.915  0.00  0.00    +0.000 NA
ATOM     17  C   UNL     1      -8.954 -12.611  19.776  0.00  0.00    +0.000 C 
BRANCH  16  18
ATOM     18  O   UNL     1      -6.939 -11.732  19.850  0.00  0.00    +0.000 OA
BRANCH  18  19
ATOM     19  C   UNL     1      -6.279 -10.488  19.595  0.00  0.00    +0.000 C 
BRANCH  19  22
ATOM     20 CL   UNL     1      -7.628  -9.122  17.125  0.00  0.00    +0.000 Cl
ATOM     21 CL   UNL     1      -3.585 -12.018  19.479  0.00  0.00    +0.000 Cl
ATOM     22  C   UNL     1      -5.590 -10.583  18.259  0.00  0.00    +0.000 A 
ATOM     23  C   UNL     1      -6.123  -9.976  17.107  0.00  0.00    +0.000 A 
ATOM     24  C   UNL     1      -4.351 -11.240  18.135  0.00  0.00    +0.000 A 
ATOM     25  C   UNL     1      -5.447 -10.032  15.882  0.00  0.00    +0.000 A 
ATOM     26  C   UNL     1      -3.675 -11.289  16.909  0.00  0.00    +0.000 A 
ATOM     27  C   UNL     1      -4.221 -10.683  15.783  0.00  0.00    +0.000 A 
ENDBRANCH  19  22
ENDBRANCH  18  19
ENDBRANCH  16  18
ENDBRANCH   4  17
TORSDOF 5
ENDMDL
MODEL 2
REMARK VINA RESULT:      -5.7      5.448      9.052
REMARK  Name = 5878688
REMARK  5 active torsions:
REMARK  status: ('A' for Active; 'I' for Inactive)
REMARK    1  A    between atoms: O_5  and  N_8
REMARK    2  A    between atoms: O_5  and  C_21
REMARK    3  A    between atoms: C_9  and  C_14
REMARK    4  A    between atoms: C_10  and  C_12
REMARK    5  A    between atoms: C_20  and  C_21
REMARK                            x       y       z     vdW  Elec       q    Type
REMARK                         _______ _______ _______ _____ _____    ______ ____
ROOT
ATOM      1  S   UNL     1      -1.340 -10.734  15.408  0.00  0.00    +0.000 S 
ATOM      2  N   UNL     1      -3.787 -10.632  14.643  0.00  0.00    +0.000 N 
ATOM      3  N   UNL     1      -2.470 -10.516  12.847  0.00  0.00    +0.000 NA
ATOM      4  C   UNL     1      -4.656 -10.502  13.590  0.00  0.00    +0.000 A 
ATOM      5  C   UNL     1      -3.810 -10.461  12.472  0.00  0.00    +0.000 A 
ATOM      6  C   UNL     1      -2.523 -10.619  14.143  0.00  0.00    +0.000 A 
ATOM      7  C   UNL     1      -3.875 -10.721  16.016  0.00  0.00    +0.000 A 
ATOM      8  C   UNL     1      -2.659 -10.786  16.588  0.00  0.00    +0.000 A 
ENDROOT
BRANCH   5  10
ATOM      9 CL   UNL     1      -5.254 -10.202   6.666  0.00  0.00    +0.000 Cl
ATOM     10  C   UNL     1      -4.189 -10.375  11.064  0.00  0.00    +0.000 A 
ATOM     11  C   UNL     1      -4.496  -9.156  10.446  0.00  0.00    +0.000 A 
ATOM     12  C   UNL     1      -4.278 -11.550  10.304  0.00  0.00    +0.000 A 
ATOM     13  C   UNL     1      -4.812  -9.098   9.085  0.00  0.00    +0.000 A 
ATOM     14  C   UNL     1      -4.619 -11.500   8.947  0.00  0.00    +0.000 A 
ATOM     15  C   UNL     1      -4.868 -10.273   8.341  0.00  0.00    +0.000 A 
ENDBRANCH   5  10
BRANCH   4  17
ATOM     16  N   UNL     1      -6.793 -11.450  13.985  0.00  0.00    +0.000 NA
ATOM     17  C   UNL     1      -6.077 -10.404  13.739  0.00  0.00    +0.000 C 
BRANCH  16  18
ATOM     18  O   UNL     1      -8.139 -11.078  14.106  0.00  0.00    +0.000 OA
BRANCH  18  19
ATOM     19  C   UNL     1      -8.222  -9.652  14.026  0.00  0.00    +0.000 C 
BRANCH  19  22
ATOM     20 CL   UNL     1      -7.205  -9.309  16.965  0.00  0.00    +0.000 Cl
ATOM     21 CL   UNL     1     -11.121  -9.049  13.108  0.00  0.00    +0.000 Cl
ATOM     22  C   UNL     1      -9.197  -9.175  15.070  0.00  0.00    +0.000 A 
ATOM     23  C   UNL     1      -8.809  -8.975  16.407  0.00  0.00    +0.000 A 
ATOM     24  C   UNL     1     -10.524  -8.857  14.721  0.00  0.00    +0.000 A 
ATOM     25  C   UNL     1      -9.715  -8.485  17.357  0.00  0.00    +0.000 A 
ATOM     26  C   UNL     1     -11.425  -8.362  15.673  0.00  0.00    +0.000 A 
ATOM     27  C   UNL     1     -11.021  -8.174  16.989  0.00  0.00    +0.000 A 
ENDBRANCH  19  22
ENDBRANCH  18  19
ENDBRANCH  16  18
ENDBRANCH   4  17
TORSDOF 5
ENDMDL
MODEL 3
REMARK VINA RESULT:      -5.5      5.036      6.801
REMARK  Name = 5878688
REMARK  5 active torsions:
REMARK  status: ('A' for Active; 'I' for Inactive)
REMARK    1  A    between atoms: O_5  and  N_8
REMARK    2  A    between atoms: O_5  and  C_21
REMARK    3  A    between atoms: C_9  and  C_14
REMARK    4  A    between atoms: C_10  and  C_12
REMARK    5  A    between atoms: C_20  and  C_21
REMARK                            x       y       z     vdW  Elec       q    Type
REMARK                         _______ _______ _______ _____ _____    ______ ____
ROOT
ATOM      1  S   UNL     1      -7.503 -11.360  18.966  0.00  0.00    +0.000 S 
ATOM      2  N   UNL     1      -5.564 -11.097  17.306  0.00  0.00    +0.000 N 
ATOM      3  N   UNL     1      -7.486 -11.012  16.180  0.00  0.00    +0.000 NA
ATOM      4  C   UNL     1      -5.186 -10.957  15.995  0.00  0.00    +0.000 A 
ATOM      5  C   UNL     1      -6.407 -10.875  15.311  0.00  0.00    +0.000 A 
ATOM      6  C   UNL     1      -6.922 -11.137  17.346  0.00  0.00    +0.000 A 
ATOM      7  C   UNL     1      -4.935 -11.248  18.525  0.00  0.00    +0.000 A 
ATOM      8  C   UNL     1      -5.823 -11.399  19.524  0.00  0.00    +0.000 A 
ENDROOT
BRANCH   5  10
ATOM      9 CL   UNL     1      -7.342  -9.911   9.475  0.00  0.00    +0.000 Cl
ATOM     10  C   UNL     1      -6.621 -10.672  13.881  0.00  0.00    +0.000 A 
ATOM     11  C   UNL     1      -7.146 -11.674  13.054  0.00  0.00    +0.000 A 
ATOM     12  C   UNL     1      -6.266  -9.446  13.299  0.00  0.00    +0.000 A 
ATOM     13  C   UNL     1      -7.383 -11.437  11.696  0.00  0.00    +0.000 A 
ATOM     14  C   UNL     1      -6.477  -9.213  11.936  0.00  0.00    +0.000 A 
ATOM     15  C   UNL     1      -7.049 -10.204  11.144  0.00  0.00    +0.000 A 
ENDBRANCH   5  10
BRANCH   4  17
ATOM     16  N   UNL     1      -3.291 -11.996  15.019  0.00  0.00    +0.000 NA
ATOM     17  C   UNL     1      -3.822 -10.949  15.557  0.00  0.00    +0.000 C 
BRANCH  16  18
ATOM     18  O   UNL     1      -1.965 -11.715  14.662  0.00  0.00    +0.000 OA
BRANCH  18  19
ATOM     19  C   UNL     1      -1.653 -12.443  13.471  0.00  0.00    +0.000 C 
BRANCH  19  22
ATOM     20 CL   UNL     1      -1.027  -9.446  12.827  0.00  0.00    +0.000 Cl
ATOM     21 CL   UNL     1      -3.655 -14.184  11.866  0.00  0.00    +0.000 Cl
ATOM     22  C   UNL     1      -2.372 -11.793  12.318  0.00  0.00    +0.000 A 
ATOM     23  C   UNL     1      -2.127 -10.456  11.953  0.00  0.00    +0.000 A 
ATOM     24  C   UNL     1      -3.275 -12.529  11.527  0.00  0.00    +0.000 A 
ATOM     25  C   UNL     1      -2.767  -9.879  10.849  0.00  0.00    +0.000 A 
ATOM     26  C   UNL     1      -3.909 -11.950  10.421  0.00  0.00    +0.000 A 
ATOM     27  C   UNL     1      -3.654 -10.627  10.079  0.00  0.00    +0.000 A 
ENDBRANCH  19  22
ENDBRANCH  18  19
ENDBRANCH  16  18
ENDBRANCH   4  17
TORSDOF 5
ENDMDL
MODEL 4
REMARK VINA RESULT:      -5.5      2.508      3.776
REMARK  Name = 5878688
REMARK  5 active torsions:
REMARK  status: ('A' for Active; 'I' for Inactive)
REMARK    1  A    between atoms: O_5  and  N_8
REMARK    2  A    between atoms: O_5  and  C_21
REMARK    3  A    between atoms: C_9  and  C_14
REMARK    4  A    between atoms: C_10  and  C_12
REMARK    5  A    between atoms: C_20  and  C_21
REMARK                            x       y       z     vdW  Elec       q    Type
REMARK                         _______ _______ _______ _____ _____    ______ ____
ROOT
ATOM      1  S   UNL     1     -11.774 -12.257  19.348  0.00  0.00    +0.000 S 
ATOM      2  N   UNL     1      -9.996 -11.039  17.954  0.00  0.00    +0.000 N 
ATOM      3  N   UNL     1     -11.973 -10.073  17.595  0.00  0.00    +0.000 NA
ATOM      4  C   UNL     1      -9.732 -10.052  17.040  0.00  0.00    +0.000 A 
ATOM      5  C   UNL     1     -10.980  -9.440  16.852  0.00  0.00    +0.000 A 
ATOM      6  C   UNL     1     -11.328 -11.009  18.227  0.00  0.00    +0.000 A 
ATOM      7  C   UNL     1      -9.287 -12.034  18.595  0.00  0.00    +0.000 A 
ATOM      8  C   UNL     1     -10.082 -12.780  19.383  0.00  0.00    +0.000 A 
ENDROOT
BRANCH   5  10
ATOM      9 CL   UNL     1     -12.330  -4.644  13.529  0.00  0.00    +0.000 Cl
ATOM     10  C   UNL     1     -11.295  -8.287  16.013  0.00  0.00    +0.000 A 
ATOM     11  C   UNL     1     -11.873  -8.422  14.743  0.00  0.00    +0.000 A 
ATOM     12  C   UNL     1     -10.988  -6.998  16.472  0.00  0.00    +0.000 A 
ATOM     13  C   UNL     1     -12.206  -7.299  13.980  0.00  0.00    +0.000 A 
ATOM     14  C   UNL     1     -11.296  -5.871  15.701  0.00  0.00    +0.000 A 
ATOM     15  C   UNL     1     -11.918  -6.027  14.466  0.00  0.00    +0.000 A 
ENDBRANCH   5  10
BRANCH   4  17
ATOM     16  N   UNL     1      -7.488  -9.293  17.149  0.00  0.00    +0.000 NA
ATOM     17  C   UNL     1      -8.441  -9.828  16.461  0.00  0.00    +0.000 C 
BRANCH  16  18
ATOM     18  O   UNL     1      -6.333  -9.208  16.359  0.00  0.00    +0.000 OA
BRANCH  18  19
ATOM     19  C   UNL     1      -6.096 -10.489  15.766  0.00  0.00    +0.000 C 
BRANCH  19  22
ATOM     20 CL   UNL     1      -4.147 -11.077  18.142  0.00  0.00    +0.000 Cl
ATOM     21 CL   UNL     1      -5.193 -10.153  12.819  0.00  0.00    +0.000 Cl
ATOM     22  C   UNL     1      -4.623 -10.608  15.472  0.00  0.00    +0.000 A 
ATOM     23  C   UNL     1      -3.688 -10.893  16.483  0.00  0.00    +0.000 A 
ATOM     24  C   UNL     1      -4.143 -10.494  14.153  0.00  0.00    +0.000 A 
ATOM     25  C   UNL     1      -2.328 -11.050  16.187  0.00  0.00    +0.000 A 
ATOM     26  C   UNL     1      -2.783 -10.655  13.860  0.00  0.00    +0.000 A 
ATOM     27  C   UNL     1      -1.876 -10.936  14.875  0.00  0.00    +0.000 A 
ENDBRANCH  19  22
ENDBRANCH  18  19
ENDBRANCH  16  18
ENDBRANCH   4  17
TORSDOF 5
ENDMDL
MODEL 5
REMARK VINA RESULT:      -5.5     17.117     20.088
REMARK  Name = 5878688
REMARK  5 active torsions:
REMARK  status: ('A' for Active; 'I' for Inactive)
REMARK    1  A    between atoms: O_5  and  N_8
REMARK    2  A    between atoms: O_5  and  C_21
REMARK    3  A    between atoms: C_9  and  C_14
REMARK    4  A    between atoms: C_10  and  C_12
REMARK    5  A    between atoms: C_20  and  C_21
REMARK                            x       y       z     vdW  Elec       q    Type
REMARK                         _______ _______ _______ _____ _____    ______ ____
ROOT
ATOM      1  S   UNL     1      -3.609 -12.751   3.228  0.00  0.00    +0.000 S 
ATOM      2  N   UNL     1      -1.468 -14.075   3.722  0.00  0.00    +0.000 N 
ATOM      3  N   UNL     1      -1.418 -13.402   1.598  0.00  0.00    +0.000 NA
ATOM      4  C   UNL     1      -0.295 -14.589   3.229  0.00  0.00    +0.000 A 
ATOM      5  C   UNL     1      -0.271 -14.128   1.904  0.00  0.00    +0.000 A 
ATOM      6  C   UNL     1      -2.085 -13.404   2.714  0.00  0.00    +0.000 A 
ATOM      7  C   UNL     1      -2.160 -14.113   4.915  0.00  0.00    +0.000 A 
ATOM      8  C   UNL     1      -3.328 -13.452   4.830  0.00  0.00    +0.000 A 
ENDROOT
BRANCH   5  10
ATOM      9 CL   UNL     1       4.056 -14.815  -2.180  0.00  0.00    +0.000 Cl
ATOM     10  C   UNL     1       0.775 -14.331   0.905  0.00  0.00    +0.000 A 
ATOM     11  C   UNL     1       0.548 -15.041  -0.281  0.00  0.00    +0.000 A 
ATOM     12  C   UNL     1       2.061 -13.824   1.143  0.00  0.00    +0.000 A 
ATOM     13  C   UNL     1       1.555 -15.180  -1.241  0.00  0.00    +0.000 A 
ATOM     14  C   UNL     1       3.080 -13.982   0.197  0.00  0.00    +0.000 A 
ATOM     15  C   UNL     1       2.817 -14.646  -0.998  0.00  0.00    +0.000 A 
ENDBRANCH   5  10
BRANCH   4  17
ATOM     16  N   UNL     1       0.323 -16.667   4.189  0.00  0.00    +0.000 NA
ATOM     17  C   UNL     1       0.591 -15.420   3.987  0.00  0.00    +0.000 C 
BRANCH  16  18
ATOM     18  O   UNL     1       1.355 -17.252   4.934  0.00  0.00    +0.000 OA
BRANCH  18  19
ATOM     19  C   UNL     1       1.816 -18.412   4.235  0.00  0.00    +0.000 C 
BRANCH  19  22
ATOM     20 CL   UNL     1       4.682 -17.572   5.169  0.00  0.00    +0.000 Cl
ATOM     21 CL   UNL     1       0.885 -18.419   1.278  0.00  0.00    +0.000 Cl
ATOM     22  C   UNL     1       2.810 -17.972   3.192  0.00  0.00    +0.000 A 
ATOM     23  C   UNL     1       4.124 -17.601   3.532  0.00  0.00    +0.000 A 
ATOM     24  C   UNL     1       2.466 -17.975   1.827  0.00  0.00    +0.000 A 
ATOM     25  C   UNL     1       5.051 -17.240   2.546  0.00  0.00    +0.000 A 
ATOM     26  C   UNL     1       3.397 -17.618   0.843  0.00  0.00    +0.000 A 
ATOM     27  C   UNL     1       4.690 -17.254   1.202  0.00  0.00    +0.000 A 
ENDBRANCH  19  22
ENDBRANCH  18  19
ENDBRANCH  16  18
ENDBRANCH   4  17
TORSDOF 5
ENDMDL
MODEL 6
REMARK VINA RESULT:      -5.4      5.034      8.078
REMARK  Name = 5878688
REMARK  5 active torsions:
REMARK  status: ('A' for Active; 'I' for Inactive)
REMARK    1  A    between atoms: O_5  and  N_8
REMARK    2  A    between atoms: O_5  and  C_21
REMARK    3  A    between atoms: C_9  and  C_14
REMARK    4  A    between atoms: C_10  and  C_12
REMARK    5  A    between atoms: C_20  and  C_21
REMARK                            x       y       z     vdW  Elec       q    Type
REMARK                         _______ _______ _______ _____ _____    ______ ____
ROOT
ATOM      1  S   UNL     1      -1.524 -11.089  15.040  0.00  0.00    +0.000 S 
ATOM      2  N   UNL     1      -4.032 -10.554  14.945  0.00  0.00    +0.000 N 
ATOM      3  N   UNL     1      -3.211 -10.502  12.874  0.00  0.00    +0.000 NA
ATOM      4  C   UNL     1      -5.104 -10.211  14.162  0.00  0.00    +0.000 A 
ATOM      5  C   UNL     1      -4.573 -10.214  12.864  0.00  0.00    +0.000 A 
ATOM      6  C   UNL     1      -2.952 -10.697  14.133  0.00  0.00    +0.000 A 
ATOM      7  C   UNL     1      -3.785 -10.734  16.290  0.00  0.00    +0.000 A 
ATOM      8  C   UNL     1      -2.493 -11.028  16.522  0.00  0.00    +0.000 A 
ENDROOT
BRANCH   5  10
ATOM      9 CL   UNL     1      -7.404  -9.314   7.663  0.00  0.00    +0.000 Cl
ATOM     10  C   UNL     1      -5.275  -9.962  11.608  0.00  0.00    +0.000 A 
ATOM     11  C   UNL     1      -5.214  -8.726  10.952  0.00  0.00    +0.000 A 
ATOM     12  C   UNL     1      -6.062 -10.978  11.045  0.00  0.00    +0.000 A 
ATOM     13  C   UNL     1      -5.859  -8.527   9.727  0.00  0.00    +0.000 A 
ATOM     14  C   UNL     1      -6.730 -10.776   9.832  0.00  0.00    +0.000 A 
ATOM     15  C   UNL     1      -6.612  -9.557   9.171  0.00  0.00    +0.000 A 
ENDBRANCH   5  10
BRANCH   4  17
ATOM     16  N   UNL     1      -7.302 -10.829  14.803  0.00  0.00    +0.000 NA
ATOM     17  C   UNL     1      -6.405  -9.908  14.680  0.00  0.00    +0.000 C 
BRANCH  16  18
ATOM     18  O   UNL     1      -8.467 -10.275  15.351  0.00  0.00    +0.000 OA
BRANCH  18  19
ATOM     19  C   UNL     1      -8.095  -9.429  16.443  0.00  0.00    +0.000 C 
BRANCH  19  22
ATOM     20 CL   UNL     1     -10.889  -8.125  16.972  0.00  0.00    +0.000 Cl
ATOM     21 CL   UNL     1      -6.811 -11.586  18.263  0.00  0.00    +0.000 Cl
ATOM     22  C   UNL     1      -8.868  -9.861  17.662  0.00  0.00    +0.000 A 
ATOM     23  C   UNL     1     -10.140  -9.337  17.955  0.00  0.00    +0.000 A 
ATOM     24  C   UNL     1      -8.359 -10.855  18.519  0.00  0.00    +0.000 A 
ATOM     25  C   UNL     1     -10.868  -9.784  19.065  0.00  0.00    +0.000 A 
ATOM     26  C   UNL     1      -9.093 -11.303  19.625  0.00  0.00    +0.000 A 
ATOM     27  C   UNL     1     -10.347 -10.770  19.897  0.00  0.00    +0.000 A 
ENDBRANCH  19  22
ENDBRANCH  18  19
ENDBRANCH  16  18
ENDBRANCH   4  17
TORSDOF 5
ENDMDL
MODEL 7
REMARK VINA RESULT:      -5.4      4.398      6.293
REMARK  Name = 5878688
REMARK  5 active torsions:
REMARK  status: ('A' for Active; 'I' for Inactive)
REMARK    1  A    between atoms: O_5  and  N_8
REMARK    2  A    between atoms: O_5  and  C_21
REMARK    3  A    between atoms: C_9  and  C_14
REMARK    4  A    between atoms: C_10  and  C_12
REMARK    5  A    between atoms: C_20  and  C_21
REMARK                            x       y       z     vdW  Elec       q    Type
REMARK                         _______ _______ _______ _____ _____    ______ ____
ROOT
ATOM      1  S   UNL     1      -5.939 -11.707  20.047  0.00  0.00    +0.000 S 
ATOM      2  N   UNL     1      -5.732 -10.662  17.713  0.00  0.00    +0.000 N 
ATOM      3  N   UNL     1      -7.808 -10.341  18.459  0.00  0.00    +0.000 NA
ATOM      4  C   UNL     1      -6.364 -10.006  16.688  0.00  0.00    +0.000 A 
ATOM      5  C   UNL     1      -7.656  -9.788  17.190  0.00  0.00    +0.000 A 
ATOM      6  C   UNL     1      -6.634 -10.840  18.713  0.00  0.00    +0.000 A 
ATOM      7  C   UNL     1      -4.482 -11.199  17.944  0.00  0.00    +0.000 A 
ATOM      8  C   UNL     1      -4.415 -11.795  19.148  0.00  0.00    +0.000 A 
ENDROOT
BRANCH   5  10
ATOM      9 CL   UNL     1     -12.112  -6.905  14.415  0.00  0.00    +0.000 Cl
ATOM     10  C   UNL     1      -8.761  -9.085  16.544  0.00  0.00    +0.000 A 
ATOM     11  C   UNL     1      -9.414  -8.003  17.149  0.00  0.00    +0.000 A 
ATOM     12  C   UNL     1      -9.211  -9.518  15.288  0.00  0.00    +0.000 A 
ATOM     13  C   UNL     1     -10.439  -7.319  16.488  0.00  0.00    +0.000 A 
ATOM     14  C   UNL     1     -10.254  -8.853  14.633  0.00  0.00    +0.000 A 
ATOM     15  C   UNL     1     -10.852  -7.747  15.229  0.00  0.00    +0.000 A 
ENDBRANCH   5  10
BRANCH   4  17
ATOM     16  N   UNL     1      -5.841 -10.519  14.433  0.00  0.00    +0.000 NA
ATOM     17  C   UNL     1      -5.745  -9.706  15.432  0.00  0.00    +0.000 C 
BRANCH  16  18
ATOM     18  O   UNL     1      -5.170  -9.981  13.326  0.00  0.00    +0.000 OA
BRANCH  18  19
ATOM     19  C   UNL     1      -5.452 -10.797  12.186  0.00  0.00    +0.000 C 
BRANCH  19  22
ATOM     20 CL   UNL     1      -8.556 -10.563  11.861  0.00  0.00    +0.000 Cl
ATOM     21 CL   UNL     1      -3.401  -9.299  10.408  0.00  0.00    +0.000 Cl
ATOM     22  C   UNL     1      -5.994  -9.912  11.093  0.00  0.00    +0.000 A 
ATOM     23  C   UNL     1      -7.376  -9.739  10.899  0.00  0.00    +0.000 A 
ATOM     24  C   UNL     1      -5.122  -9.181  10.264  0.00  0.00    +0.000 A 
ATOM     25  C   UNL     1      -7.865  -8.875   9.911  0.00  0.00    +0.000 A 
ATOM     26  C   UNL     1      -5.615  -8.314   9.280  0.00  0.00    +0.000 A 
ATOM     27  C   UNL     1      -6.985  -8.159   9.104  0.00  0.00    +0.000 A 
ENDBRANCH  19  22
ENDBRANCH  18  19
ENDBRANCH  16  18
ENDBRANCH   4  17
TORSDOF 5
ENDMDL
MODEL 8
REMARK VINA RESULT:      -5.3      4.961      6.762
REMARK  Name = 5878688
REMARK  5 active torsions:
REMARK  status: ('A' for Active; 'I' for Inactive)
REMARK    1  A    between atoms: O_5  and  N_8
REMARK    2  A    between atoms: O_5  and  C_21
REMARK    3  A    between atoms: C_9  and  C_14
REMARK    4  A    between atoms: C_10  and  C_12
REMARK    5  A    between atoms: C_20  and  C_21
REMARK                            x       y       z     vdW  Elec       q    Type
REMARK                         _______ _______ _______ _____ _____    ______ ____
ROOT
ATOM      1  S   UNL     1      -7.727 -11.052  18.997  0.00  0.00    +0.000 S 
ATOM      2  N   UNL     1      -5.775 -10.837  17.345  0.00  0.00    +0.000 N 
ATOM      3  N   UNL     1      -7.686 -10.846  16.197  0.00  0.00    +0.000 NA
ATOM      4  C   UNL     1      -5.385 -10.757  16.032  0.00  0.00    +0.000 A 
ATOM      5  C   UNL     1      -6.600 -10.733  15.333  0.00  0.00    +0.000 A 
ATOM      6  C   UNL     1      -7.133 -10.901  17.373  0.00  0.00    +0.000 A 
ATOM      7  C   UNL     1      -5.157 -10.914  18.576  0.00  0.00    +0.000 A 
ATOM      8  C   UNL     1      -6.052 -11.031  19.573  0.00  0.00    +0.000 A 
ENDROOT
BRANCH   5  10
ATOM      9 CL   UNL     1      -7.374 -10.354   9.406  0.00  0.00    +0.000 Cl
ATOM     10  C   UNL     1      -6.802 -10.607  13.892  0.00  0.00    +0.000 A 
ATOM     11  C   UNL     1      -6.451  -9.449  13.186  0.00  0.00    +0.000 A 
ATOM     12  C   UNL     1      -7.394 -11.665  13.185  0.00  0.00    +0.000 A 
ATOM     13  C   UNL     1      -6.613  -9.374  11.799  0.00  0.00    +0.000 A 
ATOM     14  C   UNL     1      -7.582 -11.585  11.801  0.00  0.00    +0.000 A 
ATOM     15  C   UNL     1      -7.176 -10.446  11.112  0.00  0.00    +0.000 A 
ENDBRANCH   5  10
BRANCH   4  17
ATOM     16  N   UNL     1      -3.480 -11.787  15.067  0.00  0.00    +0.000 NA
ATOM     17  C   UNL     1      -4.017 -10.745  15.608  0.00  0.00    +0.000 C 
BRANCH  16  18
ATOM     18  O   UNL     1      -2.151 -11.504  14.725  0.00  0.00    +0.000 OA
BRANCH  18  19
ATOM     19  C   UNL     1      -1.781 -12.333  13.619  0.00  0.00    +0.000 C 
BRANCH  19  22
ATOM     20 CL   UNL     1      -3.787 -14.133  12.030  0.00  0.00    +0.000 Cl
ATOM     21 CL   UNL     1      -1.024  -9.438  12.808  0.00  0.00    +0.000 Cl
ATOM     22  C   UNL     1      -2.416 -11.771  12.374  0.00  0.00    +0.000 A 
ATOM     23  C   UNL     1      -3.344 -12.511  11.619  0.00  0.00    +0.000 A 
ATOM     24  C   UNL     1      -2.140 -10.454  11.959  0.00  0.00    +0.000 A 
ATOM     25  C   UNL     1      -3.963 -11.958  10.491  0.00  0.00    +0.000 A 
ATOM     26  C   UNL     1      -2.765  -9.903  10.833  0.00  0.00    +0.000 A 
ATOM     27  C   UNL     1      -3.677 -10.653  10.100  0.00  0.00    +0.000 A 
ENDBRANCH  19  22
ENDBRANCH  18  19
ENDBRANCH  16  18
ENDBRANCH   4  17
TORSDOF 5
ENDMDL
MODEL 9
REMARK VINA RESULT:      -5.2     20.129     23.168
REMARK  Name = 5878688
REMARK  5 active torsions:
REMARK  status: ('A' for Active; 'I' for Inactive)
REMARK    1  A    between atoms: O_5  and  N_8
REMARK    2  A    between atoms: O_5  and  C_21
REMARK    3  A    between atoms: C_9  and  C_14
REMARK    4  A    between atoms: C_10  and  C_12
REMARK    5  A    between atoms: C_20  and  C_21
REMARK                            x       y       z     vdW  Elec       q    Type
REMARK                         _______ _______ _______ _____ _____    ______ ____
ROOT
ATOM      1  S   UNL     1      -2.372 -14.816   3.471  0.00  0.00    +0.000 S 
ATOM      2  N   UNL     1      -1.270 -14.301   1.212  0.00  0.00    +0.000 N 
ATOM      3  N   UNL     1       0.170 -15.453   2.464  0.00  0.00    +0.000 NA
ATOM      4  C   UNL     1      -0.144 -14.399   0.434  0.00  0.00    +0.000 A 
ATOM      5  C   UNL     1       0.734 -15.151   1.228  0.00  0.00    +0.000 A 
ATOM      6  C   UNL     1      -1.016 -14.925   2.392  0.00  0.00    +0.000 A 
ATOM      7  C   UNL     1      -2.514 -13.713   1.112  0.00  0.00    +0.000 A 
ATOM      8  C   UNL     1      -3.237 -13.893   2.232  0.00  0.00    +0.000 A 
ENDROOT
BRANCH   5  10
ATOM      9 CL   UNL     1       6.222 -17.151  -0.096  0.00  0.00    +0.000 Cl
ATOM     10  C   UNL     1       2.080 -15.608   0.889  0.00  0.00    +0.000 A 
ATOM     11  C   UNL     1       3.209 -14.794   1.053  0.00  0.00    +0.000 A 
ATOM     12  C   UNL     1       2.256 -16.892   0.353  0.00  0.00    +0.000 A 
ATOM     13  C   UNL     1       4.490 -15.273   0.763  0.00  0.00    +0.000 A 
ATOM     14  C   UNL     1       3.534 -17.367   0.037  0.00  0.00    +0.000 A 
ATOM     15  C   UNL     1       4.646 -16.561   0.259  0.00  0.00    +0.000 A 
ENDBRANCH   5  10
BRANCH   4  17
ATOM     16  N   UNL     1       0.302 -14.500  -1.893  0.00  0.00    +0.000 NA
ATOM     17  C   UNL     1      -0.014 -13.795  -0.858  0.00  0.00    +0.000 C 
BRANCH  16  18
ATOM     18  O   UNL     1       0.340 -13.676  -3.025  0.00  0.00    +0.000 OA
BRANCH  18  19
ATOM     19  C   UNL     1       1.614 -13.025  -3.068  0.00  0.00    +0.000 C 
BRANCH  19  22
ATOM     20 CL   UNL     1       2.672 -15.722  -4.249  0.00  0.00    +0.000 Cl
ATOM     21 CL   UNL     1       1.487 -10.364  -4.654  0.00  0.00    +0.000 Cl
ATOM     22  C   UNL     1       2.105 -13.040  -4.492  0.00  0.00    +0.000 A 
ATOM     23  C   UNL     1       2.575 -14.219  -5.100  0.00  0.00    +0.000 A 
ATOM     24  C   UNL     1       2.053 -11.875  -5.282  0.00  0.00    +0.000 A 
ATOM     25  C   UNL     1       2.983 -14.228  -6.440  0.00  0.00    +0.000 A 
ATOM     26  C   UNL     1       2.458 -11.890  -6.622  0.00  0.00    +0.000 A 
ATOM     27  C   UNL     1       2.920 -13.065  -7.203  0.00  0.00    +0.000 A 
ENDBRANCH  19  22
ENDBRANCH  18  19
ENDBRANCH  16  18
ENDBRANCH   4  17
TORSDOF 5
ENDMDL
MODEL 10
REMARK VINA RESULT:      -5.2     29.731     32.248
REMARK  Name = 5878688
REMARK  5 active torsions:
REMARK  status: ('A' for Active; 'I' for Inactive)
REMARK    1  A    between atoms: O_5  and  N_8
REMARK    2  A    between atoms: O_5  and  C_21
REMARK    3  A    between atoms: C_9  and  C_14
REMARK    4  A    between atoms: C_10  and  C_12
REMARK    5  A    between atoms: C_20  and  C_21
REMARK                            x       y       z     vdW  Elec       q    Type
REMARK                         _______ _______ _______ _____ _____    ______ ____
ROOT
ATOM      1  S   UNL     1      10.685  17.664  17.722  0.00  0.00    +0.000 S 
ATOM      2  N   UNL     1       8.838  16.585  19.140  0.00  0.00    +0.000 N 
ATOM      3  N   UNL     1      10.818  15.907  19.908  0.00  0.00    +0.000 NA
ATOM      4  C   UNL     1       8.531  15.729  20.167  0.00  0.00    +0.000 A 
ATOM      5  C   UNL     1       9.788  15.340  20.652  0.00  0.00    +0.000 A 
ATOM      6  C   UNL     1      10.192  16.635  19.031  0.00  0.00    +0.000 A 
ATOM      7  C   UNL     1       8.145  17.331  18.210  0.00  0.00    +0.000 A 
ATOM      8  C   UNL     1       8.977  17.975  17.372  0.00  0.00    +0.000 A 
ENDROOT
BRANCH   5  10
ATOM      9 CL   UNL     1      11.021  11.862  25.370  0.00  0.00    +0.000 Cl
ATOM     10  C   UNL     1      10.079  14.462  21.784  0.00  0.00    +0.000 A 
ATOM     11  C   UNL     1      10.776  13.256  21.635  0.00  0.00    +0.000 A 
ATOM     12  C   UNL     1       9.625  14.817  23.063  0.00  0.00    +0.000 A 
ATOM     13  C   UNL     1      11.080  12.459  22.742  0.00  0.00    +0.000 A 
ATOM     14  C   UNL     1       9.905  14.009  24.171  0.00  0.00    +0.000 A 
ATOM     15  C   UNL     1      10.645  12.842  24.007  0.00  0.00    +0.000 A 
ENDBRANCH   5  10
BRANCH   4  17
ATOM     16  N   UNL     1       6.483  16.137  21.291  0.00  0.00    +0.000 NA
ATOM     17  C   UNL     1       7.193  15.371  20.531  0.00  0.00    +0.000 C 
BRANCH  16  18
ATOM     18  O   UNL     1       5.215  15.570  21.473  0.00  0.00    +0.000 OA
BRANCH  18  19
ATOM     19  C   UNL     1       4.251  16.626  21.531  0.00  0.00    +0.000 C 
BRANCH  19  22
ATOM     20 CL   UNL     1       2.912  16.087  18.755  0.00  0.00    +0.000 Cl
ATOM     21 CL   UNL     1       2.933  15.956  24.256  0.00  0.00    +0.000 Cl
ATOM     22  C   UNL     1       2.876  16.013  21.506  0.00  0.00    +0.000 A 
ATOM     23  C   UNL     1       2.218  15.720  20.297  0.00  0.00    +0.000 A 
ATOM     24  C   UNL     1       2.226  15.657  22.704  0.00  0.00    +0.000 A 
ATOM     25  C   UNL     1       0.959  15.106  20.289  0.00  0.00    +0.000 A 
ATOM     26  C   UNL     1       0.970  15.039  22.692  0.00  0.00    +0.000 A 
ATOM     27  C   UNL     1       0.337  14.760  21.486  0.00  0.00    +0.000 A 
ENDBRANCH  19  22
ENDBRANCH  18  19
ENDBRANCH  16  18
ENDBRANCH   4  17
TORSDOF 5
ENDMDL
