MODEL 1
REMARK VINA RESULT:      -5.5      0.000      0.000
REMARK  Name = 5878688
REMARK  5 active torsions:
REMARK  status: ('A' for Active; 'I' for Inactive)
REMARK    1  A    between atoms: O_5  and  N_8
REMARK    2  A    between atoms: O_5  and  C_21
REMARK    3  A    between atoms: C_9  and  C_14
REMARK    4  A    between atoms: C_10  and  C_12
REMARK    5  A    between atoms: C_20  and  C_21
REMARK                            x       y       z     vdW  Elec       q    Type
REMARK                         _______ _______ _______ _____ _____    ______ ____
ROOT
ATOM      1  S   UNL     1      -1.750   8.194 -58.026  0.00  0.00    +0.000 S 
ATOM      2  N   UNL     1      -3.235   6.180 -58.593  0.00  0.00    +0.000 N 
ATOM      3  N   UNL     1      -2.894   6.220 -56.391  0.00  0.00    +0.000 NA
ATOM      4  C   UNL     1      -3.898   5.074 -58.125  0.00  0.00    +0.000 A 
ATOM      5  C   UNL     1      -3.696   5.137 -56.739  0.00  0.00    +0.000 A 
ATOM      6  C   UNL     1      -2.657   6.800 -57.530  0.00  0.00    +0.000 A 
ATOM      7  C   UNL     1      -2.985   6.759 -59.820  0.00  0.00    +0.000 A 
ATOM      8  C   UNL     1      -2.207   7.850 -59.703  0.00  0.00    +0.000 A 
ENDROOT
BRANCH   5  10
ATOM      9 CL   UNL     1      -5.856   1.332 -52.649  0.00  0.00    +0.000 Cl
ATOM     10  C   UNL     1      -4.217   4.234 -55.716  0.00  0.00    +0.000 A 
ATOM     11  C   UNL     1      -5.118   4.660 -54.732  0.00  0.00    +0.000 A 
ATOM     12  C   UNL     1      -3.786   2.899 -55.692  0.00  0.00    +0.000 A 
ATOM     13  C   UNL     1      -5.637   3.763 -53.792  0.00  0.00    +0.000 A 
ATOM     14  C   UNL     1      -4.282   2.003 -54.739  0.00  0.00    +0.000 A 
ATOM     15  C   UNL     1      -5.217   2.436 -53.803  0.00  0.00    +0.000 A 
ENDBRANCH   5  10
BRANCH   4  17
ATOM     16  N   UNL     1      -5.854   4.165 -59.110  0.00  0.00    +0.000 NA
ATOM     17  C   UNL     1      -4.570   4.133 -58.969  0.00  0.00    +0.000 C 
BRANCH  16  18
ATOM     18  O   UNL     1      -6.251   3.158 -60.001  0.00  0.00    +0.000 OA
BRANCH  18  19
ATOM     19  C   UNL     1      -7.153   3.729 -60.955  0.00  0.00    +0.000 C 
BRANCH  19  22
ATOM     20 CL   UNL     1      -5.341   5.853 -62.367  0.00  0.00    +0.000 Cl
ATOM     21 CL   UNL     1      -7.942   1.006 -62.211  0.00  0.00    +0.000 Cl
ATOM     22  C   UNL     1      -6.635   3.424 -62.336  0.00  0.00    +0.000 A 
ATOM     23  C   UNL     1      -5.797   4.319 -63.026  0.00  0.00    +0.000 A 
ATOM     24  C   UNL     1      -6.931   2.196 -62.959  0.00  0.00    +0.000 A 
ATOM     25  C   UNL     1      -5.284   4.000 -64.290  0.00  0.00    +0.000 A 
ATOM     26  C   UNL     1      -6.412   1.879 -64.220  0.00  0.00    +0.000 A 
ATOM     27  C   UNL     1      -5.587   2.779 -64.885  0.00  0.00    +0.000 A 
ENDBRANCH  19  22
ENDBRANCH  18  19
ENDBRANCH  16  18
ENDBRANCH   4  17
TORSDOF 5
ENDMDL
MODEL 2
REMARK VINA RESULT:      -5.3      4.391      6.480
REMARK  Name = 5878688
REMARK  5 active torsions:
REMARK  status: ('A' for Active; 'I' for Inactive)
REMARK    1  A    between atoms: O_5  and  N_8
REMARK    2  A    between atoms: O_5  and  C_21
REMARK    3  A    between atoms: C_9  and  C_14
REMARK    4  A    between atoms: C_10  and  C_12
REMARK    5  A    between atoms: C_20  and  C_21
REMARK                            x       y       z     vdW  Elec       q    Type
REMARK                         _______ _______ _______ _____ _____    ______ ____
ROOT
ATOM      1  S   UNL     1      -6.320  -1.921 -51.444  0.00  0.00    +0.000 S 
ATOM      2  N   UNL     1      -6.280  -1.150 -53.891  0.00  0.00    +0.000 N 
ATOM      3  N   UNL     1      -5.558   0.520 -52.603  0.00  0.00    +0.000 NA
ATOM      4  C   UNL     1      -6.033  -0.124 -54.769  0.00  0.00    +0.000 A 
ATOM      5  C   UNL     1      -5.553   0.902 -53.942  0.00  0.00    +0.000 A 
ATOM      6  C   UNL     1      -5.995  -0.704 -52.639  0.00  0.00    +0.000 A 
ATOM      7  C   UNL     1      -6.766  -2.439 -53.961  0.00  0.00    +0.000 A 
ATOM      8  C   UNL     1      -6.851  -3.002 -52.742  0.00  0.00    +0.000 A 
ENDROOT
BRANCH   5  10
ATOM      9 CL   UNL     1      -3.773   6.376 -55.597  0.00  0.00    +0.000 Cl
ATOM     10  C   UNL     1      -5.085   2.227 -54.340  0.00  0.00    +0.000 A 
ATOM     11  C   UNL     1      -3.984   2.408 -55.188  0.00  0.00    +0.000 A 
ATOM     12  C   UNL     1      -5.734   3.365 -53.839  0.00  0.00    +0.000 A 
ATOM     13  C   UNL     1      -3.586   3.686 -55.589  0.00  0.00    +0.000 A 
ATOM     14  C   UNL     1      -5.323   4.649 -54.217  0.00  0.00    +0.000 A 
ATOM     15  C   UNL     1      -4.261   4.802 -55.103  0.00  0.00    +0.000 A 
ENDBRANCH   5  10
BRANCH   4  17
ATOM     16  N   UNL     1      -5.347  -0.517 -57.004  0.00  0.00    +0.000 NA
ATOM     17  C   UNL     1      -6.287  -0.203 -56.176  0.00  0.00    +0.000 C 
BRANCH  16  18
ATOM     18  O   UNL     1      -5.863  -0.544 -58.307  0.00  0.00    +0.000 OA
BRANCH  18  19
ATOM     19  C   UNL     1      -4.996   0.218 -59.152  0.00  0.00    +0.000 C 
BRANCH  19  22
ATOM     20 CL   UNL     1      -6.776  -1.211 -61.291  0.00  0.00    +0.000 Cl
ATOM     21 CL   UNL     1      -4.881   3.291 -58.759  0.00  0.00    +0.000 Cl
ATOM     22  C   UNL     1      -5.846   1.068 -60.060  0.00  0.00    +0.000 A 
ATOM     23  C   UNL     1      -6.689   0.497 -61.031  0.00  0.00    +0.000 A 
ATOM     24  C   UNL     1      -5.865   2.469 -59.922  0.00  0.00    +0.000 A 
ATOM     25  C   UNL     1      -7.511   1.298 -61.835  0.00  0.00    +0.000 A 
ATOM     26  C   UNL     1      -6.692   3.265 -60.724  0.00  0.00    +0.000 A 
ATOM     27  C   UNL     1      -7.516   2.681 -61.679  0.00  0.00    +0.000 A 
ENDBRANCH  19  22
ENDBRANCH  18  19
ENDBRANCH  16  18
ENDBRANCH   4  17
TORSDOF 5
ENDMDL
MODEL 3
REMARK VINA RESULT:      -5.3     23.345     26.187
REMARK  Name = 5878688
REMARK  5 active torsions:
REMARK  status: ('A' for Active; 'I' for Inactive)
REMARK    1  A    between atoms: O_5  and  N_8
REMARK    2  A    between atoms: O_5  and  C_21
REMARK    3  A    between atoms: C_9  and  C_14
REMARK    4  A    between atoms: C_10  and  C_12
REMARK    5  A    between atoms: C_20  and  C_21
REMARK                            x       y       z     vdW  Elec       q    Type
REMARK                         _______ _______ _______ _____ _____    ______ ____
ROOT
ATOM      1  S   UNL     1     -14.606   0.449 -33.267  0.00  0.00    +0.000 S 
ATOM      2  N   UNL     1     -12.614   2.027 -33.618  0.00  0.00    +0.000 N 
ATOM      3  N   UNL     1     -14.385   3.236 -33.008  0.00  0.00    +0.000 NA
ATOM      4  C   UNL     1     -12.162   3.322 -33.626  0.00  0.00    +0.000 A 
ATOM      5  C   UNL     1     -13.281   4.059 -33.211  0.00  0.00    +0.000 A 
ATOM      6  C   UNL     1     -13.926   2.046 -33.262  0.00  0.00    +0.000 A 
ATOM      7  C   UNL     1     -12.102   0.781 -33.914  0.00  0.00    +0.000 A 
ATOM      8  C   UNL     1     -13.031  -0.181 -33.777  0.00  0.00    +0.000 A 
ENDROOT
BRANCH   5  10
ATOM      9 CL   UNL     1     -13.628   9.990 -32.450  0.00  0.00    +0.000 Cl
ATOM     10  C   UNL     1     -13.373   5.500 -32.991  0.00  0.00    +0.000 A 
ATOM     11  C   UNL     1     -12.790   6.126 -31.881  0.00  0.00    +0.000 A 
ATOM     12  C   UNL     1     -14.092   6.291 -33.900  0.00  0.00    +0.000 A 
ATOM     13  C   UNL     1     -12.855   7.513 -31.719  0.00  0.00    +0.000 A 
ATOM     14  C   UNL     1     -14.182   7.677 -33.729  0.00  0.00    +0.000 A 
ATOM     15  C   UNL     1     -13.549   8.283 -32.648  0.00  0.00    +0.000 A 
ENDBRANCH   5  10
BRANCH   4  17
ATOM     16  N   UNL     1      -9.931   3.965 -33.144  0.00  0.00    +0.000 NA
ATOM     17  C   UNL     1     -10.840   3.702 -34.024  0.00  0.00    +0.000 C 
BRANCH  16  18
ATOM     18  O   UNL     1      -8.731   4.285 -33.793  0.00  0.00    +0.000 OA
BRANCH  18  19
ATOM     19  C   UNL     1      -8.898   4.047 -35.194  0.00  0.00    +0.000 C 
BRANCH  19  22
ATOM     20 CL   UNL     1      -9.344   7.032 -36.019  0.00  0.00    +0.000 Cl
ATOM     21 CL   UNL     1      -6.304   2.452 -35.776  0.00  0.00    +0.000 Cl
ATOM     22  C   UNL     1      -7.794   4.760 -35.930  0.00  0.00    +0.000 A 
ATOM     23  C   UNL     1      -7.911   6.108 -36.314  0.00  0.00    +0.000 A 
ATOM     24  C   UNL     1      -6.577   4.107 -36.206  0.00  0.00    +0.000 A 
ATOM     25  C   UNL     1      -6.857   6.772 -36.955  0.00  0.00    +0.000 A 
ATOM     26  C   UNL     1      -5.523   4.776 -36.842  0.00  0.00    +0.000 A 
ATOM     27  C   UNL     1      -5.662   6.108 -37.214  0.00  0.00    +0.000 A 
ENDBRANCH  19  22
ENDBRANCH  18  19
ENDBRANCH  16  18
ENDBRANCH   4  17
TORSDOF 5
ENDMDL
MODEL 4
REMARK VINA RESULT:      -5.3     23.340     26.300
REMARK  Name = 5878688
REMARK  5 active torsions:
REMARK  status: ('A' for Active; 'I' for Inactive)
REMARK    1  A    between atoms: O_5  and  N_8
REMARK    2  A    between atoms: O_5  and  C_21
REMARK    3  A    between atoms: C_9  and  C_14
REMARK    4  A    between atoms: C_10  and  C_12
REMARK    5  A    between atoms: C_20  and  C_21
REMARK                            x       y       z     vdW  Elec       q    Type
REMARK                         _______ _______ _______ _____ _____    ______ ____
ROOT
ATOM      1  S   UNL     1     -13.514   0.150 -33.551  0.00  0.00    +0.000 S 
ATOM      2  N   UNL     1     -13.074   2.660 -33.856  0.00  0.00    +0.000 N 
ATOM      3  N   UNL     1     -11.258   1.532 -34.490  0.00  0.00    +0.000 NA
ATOM      4  C   UNL     1     -12.177   3.633 -34.217  0.00  0.00    +0.000 A 
ATOM      5  C   UNL     1     -11.057   2.902 -34.639  0.00  0.00    +0.000 A 
ATOM      6  C   UNL     1     -12.470   1.453 -34.026  0.00  0.00    +0.000 A 
ATOM      7  C   UNL     1     -14.354   2.610 -33.346  0.00  0.00    +0.000 A 
ATOM      8  C   UNL     1     -14.751   1.344 -33.124  0.00  0.00    +0.000 A 
ENDROOT
BRANCH   5  10
ATOM      9 CL   UNL     1      -5.940   4.948 -36.984  0.00  0.00    +0.000 Cl
ATOM     10  C   UNL     1      -9.802   3.418 -35.180  0.00  0.00    +0.000 A 
ATOM     11  C   UNL     1      -8.612   3.414 -34.441  0.00  0.00    +0.000 A 
ATOM     12  C   UNL     1      -9.783   3.964 -36.472  0.00  0.00    +0.000 A 
ATOM     13  C   UNL     1      -7.415   3.873 -35.001  0.00  0.00    +0.000 A 
ATOM     14  C   UNL     1      -8.593   4.448 -37.027  0.00  0.00    +0.000 A 
ATOM     15  C   UNL     1      -7.412   4.386 -36.295  0.00  0.00    +0.000 A 
ENDBRANCH   5  10
BRANCH   4  17
ATOM     16  N   UNL     1     -12.760   5.738 -35.139  0.00  0.00    +0.000 NA
ATOM     17  C   UNL     1     -12.437   5.036 -34.104  0.00  0.00    +0.000 C 
BRANCH  16  18
ATOM     18  O   UNL     1     -12.980   7.067 -34.752  0.00  0.00    +0.000 OA
BRANCH  18  19
ATOM     19  C   UNL     1     -12.353   7.278 -33.483  0.00  0.00    +0.000 C 
BRANCH  19  22
ATOM     20 CL   UNL     1     -13.690   9.944 -32.537  0.00  0.00    +0.000 Cl
ATOM     21 CL   UNL     1      -9.451   7.074 -34.555  0.00  0.00    +0.000 Cl
ATOM     22  C   UNL     1     -11.549   8.549 -33.559  0.00  0.00    +0.000 A 
ATOM     23  C   UNL     1     -12.073   9.783 -33.132  0.00  0.00    +0.000 A 
ATOM     24  C   UNL     1     -10.215   8.529 -34.011  0.00  0.00    +0.000 A 
ATOM     25  C   UNL     1     -11.296  10.948 -33.163  0.00  0.00    +0.000 A 
ATOM     26  C   UNL     1      -9.440   9.696 -34.036  0.00  0.00    +0.000 A 
ATOM     27  C   UNL     1      -9.979  10.904 -33.610  0.00  0.00    +0.000 A 
ENDBRANCH  19  22
ENDBRANCH  18  19
ENDBRANCH  16  18
ENDBRANCH   4  17
TORSDOF 5
ENDMDL
MODEL 5
REMARK VINA RESULT:      -5.2      1.657      2.515
REMARK  Name = 5878688
REMARK  5 active torsions:
REMARK  status: ('A' for Active; 'I' for Inactive)
REMARK    1  A    between atoms: O_5  and  N_8
REMARK    2  A    between atoms: O_5  and  C_21
REMARK    3  A    between atoms: C_9  and  C_14
REMARK    4  A    between atoms: C_10  and  C_12
REMARK    5  A    between atoms: C_20  and  C_21
REMARK                            x       y       z     vdW  Elec       q    Type
REMARK                         _______ _______ _______ _____ _____    ______ ____
ROOT
ATOM      1  S   UNL     1       0.356   8.620 -57.732  0.00  0.00    +0.000 S 
ATOM      2  N   UNL     1      -1.784   7.445 -58.520  0.00  0.00    +0.000 N 
ATOM      3  N   UNL     1      -1.397   6.879 -56.399  0.00  0.00    +0.000 NA
ATOM      4  C   UNL     1      -2.798   6.575 -58.209  0.00  0.00    +0.000 A 
ATOM      5  C   UNL     1      -2.552   6.257 -56.865  0.00  0.00    +0.000 A 
ATOM      6  C   UNL     1      -0.991   7.569 -57.424  0.00  0.00    +0.000 A 
ATOM      7  C   UNL     1      -1.368   8.149 -59.631  0.00  0.00    +0.000 A 
ATOM      8  C   UNL     1      -0.238   8.836 -59.386  0.00  0.00    +0.000 A 
ENDROOT
BRANCH   5  10
ATOM      9 CL   UNL     1      -5.856   2.672 -53.387  0.00  0.00    +0.000 Cl
ATOM     10  C   UNL     1      -3.345   5.400 -55.988  0.00  0.00    +0.000 A 
ATOM     11  C   UNL     1      -4.085   5.911 -54.913  0.00  0.00    +0.000 A 
ATOM     12  C   UNL     1      -3.352   4.014 -56.203  0.00  0.00    +0.000 A 
ATOM     13  C   UNL     1      -4.872   5.073 -54.117  0.00  0.00    +0.000 A 
ATOM     14  C   UNL     1      -4.118   3.168 -55.393  0.00  0.00    +0.000 A 
ATOM     15  C   UNL     1      -4.887   3.703 -54.364  0.00  0.00    +0.000 A 
ENDBRANCH   5  10
BRANCH   4  17
ATOM     16  N   UNL     1      -4.435   6.997 -59.872  0.00  0.00    +0.000 NA
ATOM     17  C   UNL     1      -3.793   6.145 -59.145  0.00  0.00    +0.000 C 
BRANCH  16  18
ATOM     18  O   UNL     1      -5.327   6.317 -60.712  0.00  0.00    +0.000 OA
BRANCH  18  19
ATOM     19  C   UNL     1      -5.009   4.923 -60.675  0.00  0.00    +0.000 C 
BRANCH  19  22
ATOM     20 CL   UNL     1      -7.513   3.231 -61.482  0.00  0.00    +0.000 Cl
ATOM     21 CL   UNL     1      -2.666   5.585 -62.594  0.00  0.00    +0.000 Cl
ATOM     22  C   UNL     1      -5.086   4.382 -62.079  0.00  0.00    +0.000 A 
ATOM     23  C   UNL     1      -6.190   3.632 -62.523  0.00  0.00    +0.000 A 
ATOM     24  C   UNL     1      -4.071   4.664 -63.013  0.00  0.00    +0.000 A 
ATOM     25  C   UNL     1      -6.270   3.177 -63.845  0.00  0.00    +0.000 A 
ATOM     26  C   UNL     1      -4.158   4.212 -64.336  0.00  0.00    +0.000 A 
ATOM     27  C   UNL     1      -5.257   3.471 -64.753  0.00  0.00    +0.000 A 
ENDBRANCH  19  22
ENDBRANCH  18  19
ENDBRANCH  16  18
ENDBRANCH   4  17
TORSDOF 5
ENDMDL
MODEL 6
REMARK VINA RESULT:      -5.0     22.204     25.420
REMARK  Name = 5878688
REMARK  5 active torsions:
REMARK  status: ('A' for Active; 'I' for Inactive)
REMARK    1  A    between atoms: O_5  and  N_8
REMARK    2  A    between atoms: O_5  and  C_21
REMARK    3  A    between atoms: C_9  and  C_14
REMARK    4  A    between atoms: C_10  and  C_12
REMARK    5  A    between atoms: C_20  and  C_21
REMARK                            x       y       z     vdW  Elec       q    Type
REMARK                         _______ _______ _______ _____ _____    ______ ____
ROOT
ATOM      1  S   UNL     1      -7.320  -1.355 -33.521  0.00  0.00    +0.000 S 
ATOM      2  N   UNL     1      -8.902   0.543 -34.212  0.00  0.00    +0.000 N 
ATOM      3  N   UNL     1      -6.849   1.023 -34.937  0.00  0.00    +0.000 NA
ATOM      4  C   UNL     1      -9.032   1.767 -34.818  0.00  0.00    +0.000 A 
ATOM      5  C   UNL     1      -7.739   2.034 -35.292  0.00  0.00    +0.000 A 
ATOM      6  C   UNL     1      -7.598   0.169 -34.304  0.00  0.00    +0.000 A 
ATOM      7  C   UNL     1      -9.719  -0.332 -33.527  0.00  0.00    +0.000 A 
ATOM      8  C   UNL     1      -9.037  -1.405 -33.088  0.00  0.00    +0.000 A 
ENDROOT
BRANCH   5  10
ATOM      9 CL   UNL     1      -5.926   6.856 -38.345  0.00  0.00    +0.000 Cl
ATOM     10  C   UNL     1      -7.288   3.189 -36.064  0.00  0.00    +0.000 A 
ATOM     11  C   UNL     1      -7.633   3.368 -37.410  0.00  0.00    +0.000 A 
ATOM     12  C   UNL     1      -6.458   4.142 -35.456  0.00  0.00    +0.000 A 
ATOM     13  C   UNL     1      -7.226   4.506 -38.113  0.00  0.00    +0.000 A 
ATOM     14  C   UNL     1      -6.026   5.270 -36.162  0.00  0.00    +0.000 A 
ATOM     15  C   UNL     1      -6.425   5.455 -37.482  0.00  0.00    +0.000 A 
ENDBRANCH   5  10
BRANCH   4  17
ATOM     16  N   UNL     1     -10.353   3.658 -34.270  0.00  0.00    +0.000 NA
ATOM     17  C   UNL     1     -10.255   2.511 -34.856  0.00  0.00    +0.000 C 
BRANCH  16  18
ATOM     18  O   UNL     1     -11.637   4.180 -34.477  0.00  0.00    +0.000 OA
BRANCH  18  19
ATOM     19  C   UNL     1     -11.824   5.286 -33.589  0.00  0.00    +0.000 C 
BRANCH  19  22
ATOM     20 CL   UNL     1     -11.695   6.996 -36.207  0.00  0.00    +0.000 Cl
ATOM     21 CL   UNL     1     -14.352   5.009 -31.817  0.00  0.00    +0.000 Cl
ATOM     22  C   UNL     1     -13.059   6.034 -34.018  0.00  0.00    +0.000 A 
ATOM     23  C   UNL     1     -13.086   6.805 -35.194  0.00  0.00    +0.000 A 
ATOM     24  C   UNL     1     -14.252   5.934 -33.277  0.00  0.00    +0.000 A 
ATOM     25  C   UNL     1     -14.256   7.455 -35.606  0.00  0.00    +0.000 A 
ATOM     26  C   UNL     1     -15.422   6.582 -33.695  0.00  0.00    +0.000 A 
ATOM     27  C   UNL     1     -15.425   7.340 -34.860  0.00  0.00    +0.000 A 
ENDBRANCH  19  22
ENDBRANCH  18  19
ENDBRANCH  16  18
ENDBRANCH   4  17
TORSDOF 5
ENDMDL
MODEL 7
REMARK VINA RESULT:      -5.0     23.677     26.714
REMARK  Name = 5878688
REMARK  5 active torsions:
REMARK  status: ('A' for Active; 'I' for Inactive)
REMARK    1  A    between atoms: O_5  and  N_8
REMARK    2  A    between atoms: O_5  and  C_21
REMARK    3  A    between atoms: C_9  and  C_14
REMARK    4  A    between atoms: C_10  and  C_12
REMARK    5  A    between atoms: C_20  and  C_21
REMARK                            x       y       z     vdW  Elec       q    Type
REMARK                         _______ _______ _______ _____ _____    ______ ____
ROOT
ATOM      1  S   UNL     1     -14.854   1.751 -33.651  0.00  0.00    +0.000 S 
ATOM      2  N   UNL     1     -12.318   1.430 -33.420  0.00  0.00    +0.000 N 
ATOM      3  N   UNL     1     -12.701   3.283 -34.598  0.00  0.00    +0.000 NA
ATOM      4  C   UNL     1     -11.068   1.895 -33.740  0.00  0.00    +0.000 A 
ATOM      5  C   UNL     1     -11.332   3.073 -34.453  0.00  0.00    +0.000 A 
ATOM      6  C   UNL     1     -13.230   2.279 -33.963  0.00  0.00    +0.000 A 
ATOM      7  C   UNL     1     -12.849   0.343 -32.757  0.00  0.00    +0.000 A 
ATOM      8  C   UNL     1     -14.194   0.356 -32.781  0.00  0.00    +0.000 A 
ENDROOT
BRANCH   5  10
ATOM      9 CL   UNL     1      -7.474   7.066 -36.698  0.00  0.00    +0.000 Cl
ATOM     10  C   UNL     1     -10.368   4.020 -35.006  0.00  0.00    +0.000 A 
ATOM     11  C   UNL     1      -9.653   3.758 -36.183  0.00  0.00    +0.000 A 
ATOM     12  C   UNL     1     -10.120   5.224 -34.330  0.00  0.00    +0.000 A 
ATOM     13  C   UNL     1      -8.770   4.703 -36.715  0.00  0.00    +0.000 A 
ATOM     14  C   UNL     1      -9.218   6.162 -34.845  0.00  0.00    +0.000 A 
ATOM     15  C   UNL     1      -8.559   5.903 -36.043  0.00  0.00    +0.000 A 
ENDBRANCH   5  10
BRANCH   4  17
ATOM     16  N   UNL     1      -9.153   0.612 -34.297  0.00  0.00    +0.000 NA
ATOM     17  C   UNL     1      -9.855   1.216 -33.396  0.00  0.00    +0.000 C 
BRANCH  16  18
ATOM     18  O   UNL     1      -8.013   0.053 -33.704  0.00  0.00    +0.000 OA
BRANCH  18  19
ATOM     19  C   UNL     1      -7.883   0.588 -32.383  0.00  0.00    +0.000 C 
BRANCH  19  22
ATOM     20 CL   UNL     1      -7.058   3.382 -33.524  0.00  0.00    +0.000 Cl
ATOM     21 CL   UNL     1      -5.956  -1.306 -30.862  0.00  0.00    +0.000 Cl
ATOM     22  C   UNL     1      -6.460   1.046 -32.196  0.00  0.00    +0.000 A 
ATOM     23  C   UNL     1      -6.020   2.299 -32.661  0.00  0.00    +0.000 A 
ATOM     24  C   UNL     1      -5.536   0.251 -31.492  0.00  0.00    +0.000 A 
ATOM     25  C   UNL     1      -4.707   2.733 -32.438  0.00  0.00    +0.000 A 
ATOM     26  C   UNL     1      -4.226   0.690 -31.266  0.00  0.00    +0.000 A 
ATOM     27  C   UNL     1      -3.811   1.931 -31.736  0.00  0.00    +0.000 A 
ENDBRANCH  19  22
ENDBRANCH  18  19
ENDBRANCH  16  18
ENDBRANCH   4  17
TORSDOF 5
ENDMDL
MODEL 8
REMARK VINA RESULT:      -4.9     17.583     19.280
REMARK  Name = 5878688
REMARK  5 active torsions:
REMARK  status: ('A' for Active; 'I' for Inactive)
REMARK    1  A    between atoms: O_5  and  N_8
REMARK    2  A    between atoms: O_5  and  C_21
REMARK    3  A    between atoms: C_9  and  C_14
REMARK    4  A    between atoms: C_10  and  C_12
REMARK    5  A    between atoms: C_20  and  C_21
REMARK                            x       y       z     vdW  Elec       q    Type
REMARK                         _______ _______ _______ _____ _____    ______ ____
ROOT
ATOM      1  S   UNL     1     -23.417   7.356 -49.817  0.00  0.00    +0.000 S 
ATOM      2  N   UNL     1     -23.817   6.484 -52.197  0.00  0.00    +0.000 N 
ATOM      3  N   UNL     1     -22.305   8.121 -52.279  0.00  0.00    +0.000 NA
ATOM      4  C   UNL     1     -23.523   6.610 -53.531  0.00  0.00    +0.000 A 
ATOM      5  C   UNL     1     -22.552   7.622 -53.555  0.00  0.00    +0.000 A 
ATOM      6  C   UNL     1     -23.082   7.405 -51.519  0.00  0.00    +0.000 A 
ATOM      7  C   UNL     1     -24.666   5.722 -51.421  0.00  0.00    +0.000 A 
ATOM      8  C   UNL     1     -24.580   6.055 -50.121  0.00  0.00    +0.000 A 
ENDROOT
BRANCH   5  10
ATOM      9 CL   UNL     1     -19.742   9.788 -58.380  0.00  0.00    +0.000 Cl
ATOM     10  C   UNL     1     -21.835   8.148 -54.714  0.00  0.00    +0.000 A 
ATOM     11  C   UNL     1     -20.634   7.587 -55.168  0.00  0.00    +0.000 A 
ATOM     12  C   UNL     1     -22.344   9.270 -55.386  0.00  0.00    +0.000 A 
ATOM     13  C   UNL     1     -19.993   8.083 -56.308  0.00  0.00    +0.000 A 
ATOM     14  C   UNL     1     -21.692   9.785 -56.512  0.00  0.00    +0.000 A 
ATOM     15  C   UNL     1     -20.529   9.180 -56.977  0.00  0.00    +0.000 A 
ENDBRANCH   5  10
BRANCH   4  17
ATOM     16  N   UNL     1     -23.702   4.696 -54.918  0.00  0.00    +0.000 NA
ATOM     17  C   UNL     1     -24.162   5.849 -54.562  0.00  0.00    +0.000 C 
BRANCH  16  18
ATOM     18  O   UNL     1     -24.519   4.158 -55.923  0.00  0.00    +0.000 OA
BRANCH  18  19
ATOM     19  C   UNL     1     -23.982   2.890 -56.310  0.00  0.00    +0.000 C 
BRANCH  19  22
ATOM     20 CL   UNL     1     -21.881   4.430 -58.042  0.00  0.00    +0.000 Cl
ATOM     21 CL   UNL     1     -26.237   1.115 -57.485  0.00  0.00    +0.000 Cl
ATOM     22  C   UNL     1     -24.069   2.777 -57.810  0.00  0.00    +0.000 A 
ATOM     23  C   UNL     1     -23.147   3.422 -58.654  0.00  0.00    +0.000 A 
ATOM     24  C   UNL     1     -25.051   1.968 -58.413  0.00  0.00    +0.000 A 
ATOM     25  C   UNL     1     -23.211   3.269 -60.045  0.00  0.00    +0.000 A 
ATOM     26  C   UNL     1     -25.108   1.814 -59.804  0.00  0.00    +0.000 A 
ATOM     27  C   UNL     1     -24.188   2.462 -60.620  0.00  0.00    +0.000 A 
ENDBRANCH  19  22
ENDBRANCH  18  19
ENDBRANCH  16  18
ENDBRANCH   4  17
TORSDOF 5
ENDMDL
MODEL 9
REMARK VINA RESULT:      -4.9     18.895     21.377
REMARK  Name = 5878688
REMARK  5 active torsions:
REMARK  status: ('A' for Active; 'I' for Inactive)
REMARK    1  A    between atoms: O_5  and  N_8
REMARK    2  A    between atoms: O_5  and  C_21
REMARK    3  A    between atoms: C_9  and  C_14
REMARK    4  A    between atoms: C_10  and  C_12
REMARK    5  A    between atoms: C_20  and  C_21
REMARK                            x       y       z     vdW  Elec       q    Type
REMARK                         _______ _______ _______ _____ _____    ______ ____
ROOT
ATOM      1  S   UNL     1     -26.479   2.461 -56.665  0.00  0.00    +0.000 S 
ATOM      2  N   UNL     1     -25.688   4.028 -54.794  0.00  0.00    +0.000 N 
ATOM      3  N   UNL     1     -24.169   4.039 -56.425  0.00  0.00    +0.000 NA
ATOM      4  C   UNL     1     -24.701   4.862 -54.335  0.00  0.00    +0.000 A 
ATOM      5  C   UNL     1     -23.774   4.878 -55.387  0.00  0.00    +0.000 A 
ATOM      6  C   UNL     1     -25.310   3.568 -56.016  0.00  0.00    +0.000 A 
ATOM      7  C   UNL     1     -26.885   3.530 -54.322  0.00  0.00    +0.000 A 
ATOM      8  C   UNL     1     -27.446   2.677 -55.198  0.00  0.00    +0.000 A 
ENDROOT
BRANCH   5  10
ATOM      9 CL   UNL     1     -18.759   8.129 -55.782  0.00  0.00    +0.000 Cl
ATOM     10  C   UNL     1     -22.531   5.641 -55.475  0.00  0.00    +0.000 A 
ATOM     11  C   UNL     1     -21.397   5.150 -56.135  0.00  0.00    +0.000 A 
ATOM     12  C   UNL     1     -22.452   6.898 -54.858  0.00  0.00    +0.000 A 
ATOM     13  C   UNL     1     -20.236   5.921 -56.243  0.00  0.00    +0.000 A 
ATOM     14  C   UNL     1     -21.283   7.664 -54.942  0.00  0.00    +0.000 A 
ATOM     15  C   UNL     1     -20.187   7.178 -55.648  0.00  0.00    +0.000 A 
ENDBRANCH   5  10
BRANCH   4  17
ATOM     16  N   UNL     1     -24.684   4.771 -51.966  0.00  0.00    +0.000 NA
ATOM     17  C   UNL     1     -24.718   5.482 -53.044  0.00  0.00    +0.000 C 
BRANCH  16  18
ATOM     18  O   UNL     1     -24.688   5.618 -50.849  0.00  0.00    +0.000 OA
BRANCH  18  19
ATOM     19  C   UNL     1     -23.631   6.570 -50.999  0.00  0.00    +0.000 C 
BRANCH  19  22
ATOM     20 CL   UNL     1     -23.686   6.531 -47.871  0.00  0.00    +0.000 Cl
ATOM     21 CL   UNL     1     -24.315   9.057 -52.719  0.00  0.00    +0.000 Cl
ATOM     22  C   UNL     1     -24.023   7.831 -50.274  0.00  0.00    +0.000 A 
ATOM     23  C   UNL     1     -24.050   7.898 -48.869  0.00  0.00    +0.000 A 
ATOM     24  C   UNL     1     -24.322   9.007 -50.988  0.00  0.00    +0.000 A 
ATOM     25  C   UNL     1     -24.370   9.091 -48.208  0.00  0.00    +0.000 A 
ATOM     26  C   UNL     1     -24.636  10.199 -50.324  0.00  0.00    +0.000 A 
ATOM     27  C   UNL     1     -24.658  10.242 -48.935  0.00  0.00    +0.000 A 
ENDBRANCH  19  22
ENDBRANCH  18  19
ENDBRANCH  16  18
ENDBRANCH   4  17
TORSDOF 5
ENDMDL
MODEL 10
REMARK VINA RESULT:      -4.9     12.382     14.704
REMARK  Name = 5878688
REMARK  5 active torsions:
REMARK  status: ('A' for Active; 'I' for Inactive)
REMARK    1  A    between atoms: O_5  and  N_8
REMARK    2  A    between atoms: O_5  and  C_21
REMARK    3  A    between atoms: C_9  and  C_14
REMARK    4  A    between atoms: C_10  and  C_12
REMARK    5  A    between atoms: C_20  and  C_21
REMARK                            x       y       z     vdW  Elec       q    Type
REMARK                         _______ _______ _______ _____ _____    ______ ____
ROOT
ATOM      1  S   UNL     1      -5.583  15.291 -55.427  0.00  0.00    +0.000 S 
ATOM      2  N   UNL     1      -7.780  14.782 -54.205  0.00  0.00    +0.000 N 
ATOM      3  N   UNL     1      -7.856  13.853 -56.230  0.00  0.00    +0.000 NA
ATOM      4  C   UNL     1      -9.022  14.202 -54.268  0.00  0.00    +0.000 A 
ATOM      5  C   UNL     1      -9.036  13.600 -55.534  0.00  0.00    +0.000 A 
ATOM      6  C   UNL     1      -7.154  14.554 -55.389  0.00  0.00    +0.000 A 
ATOM      7  C   UNL     1      -7.069  15.541 -53.299  0.00  0.00    +0.000 A 
ATOM      8  C   UNL     1      -5.868  15.899 -53.788  0.00  0.00    +0.000 A 
ENDROOT
BRANCH   5  10
ATOM      9 CL   UNL     1     -13.473  10.418 -57.995  0.00  0.00    +0.000 Cl
ATOM     10  C   UNL     1     -10.097  12.794 -56.132  0.00  0.00    +0.000 A 
ATOM     11  C   UNL     1     -10.466  11.544 -55.618  0.00  0.00    +0.000 A 
ATOM     12  C   UNL     1     -10.758  13.267 -57.276  0.00  0.00    +0.000 A 
ATOM     13  C   UNL     1     -11.516  10.815 -56.183  0.00  0.00    +0.000 A 
ATOM     14  C   UNL     1     -11.794  12.528 -57.860  0.00  0.00    +0.000 A 
ATOM     15  C   UNL     1     -12.178  11.314 -57.301  0.00  0.00    +0.000 A 
ENDBRANCH   5  10
BRANCH   4  17
ATOM     16  N   UNL     1     -10.719  15.360 -53.083  0.00  0.00    +0.000 NA
ATOM     17  C   UNL     1      -9.998  14.297 -53.225  0.00  0.00    +0.000 C 
BRANCH  16  18
ATOM     18  O   UNL     1     -11.604  15.184 -52.010  0.00  0.00    +0.000 OA
BRANCH  18  19
ATOM     19  C   UNL     1     -12.162  16.458 -51.673  0.00  0.00    +0.000 C 
BRANCH  19  22
ATOM     20 CL   UNL     1     -14.615  16.041 -53.570  0.00  0.00    +0.000 Cl
ATOM     21 CL   UNL     1     -12.331  16.413 -48.577  0.00  0.00    +0.000 Cl
ATOM     22  C   UNL     1     -13.516  16.231 -51.053  0.00  0.00    +0.000 A 
ATOM     23  C   UNL     1     -14.662  16.014 -51.840  0.00  0.00    +0.000 A 
ATOM     24  C   UNL     1     -13.665  16.172 -49.654  0.00  0.00    +0.000 A 
ATOM     25  C   UNL     1     -15.906  15.756 -51.249  0.00  0.00    +0.000 A 
ATOM     26  C   UNL     1     -14.910  15.909 -49.068  0.00  0.00    +0.000 A 
ATOM     27  C   UNL     1     -16.029  15.699 -49.864  0.00  0.00    +0.000 A 
ENDBRANCH  19  22
ENDBRANCH  18  19
ENDBRANCH  16  18
ENDBRANCH   4  17
TORSDOF 5
ENDMDL
