MODEL 1
REMARK VINA RESULT:      -6.1      0.000      0.000
REMARK  Name = 5880691
REMARK  5 active torsions:
REMARK  status: ('A' for Active; 'I' for Inactive)
REMARK    1  A    between atoms: O_5  and  N_8
REMARK    2  A    between atoms: O_5  and  C_21
REMARK    3  A    between atoms: C_9  and  C_14
REMARK    4  A    between atoms: C_10  and  C_12
REMARK    5  A    between atoms: C_20  and  C_21
REMARK                            x       y       z     vdW  Elec       q    Type
REMARK                         _______ _______ _______ _____ _____    ______ ____
ROOT
ATOM      1  S   UNL     1     -12.733  15.264  19.450  0.00  0.00    +0.000 S 
ATOM      2  N   UNL     1     -11.607  13.145  18.529  0.00  0.00    +0.000 N 
ATOM      3  N   UNL     1     -10.449  14.931  17.853  0.00  0.00    +0.000 NA
ATOM      4  C   UNL     1     -10.559  12.628  17.809  0.00  0.00    +0.000 A 
ATOM      5  C   UNL     1      -9.876  13.765  17.366  0.00  0.00    +0.000 A 
ATOM      6  C   UNL     1     -11.477  14.501  18.524  0.00  0.00    +0.000 A 
ATOM      7  C   UNL     1     -12.679  12.665  19.255  0.00  0.00    +0.000 A 
ATOM      8  C   UNL     1     -13.388  13.659  19.813  0.00  0.00    +0.000 A 
ENDROOT
BRANCH   5  10
ATOM      9 CL   UNL     1      -5.117  13.950  13.743  0.00  0.00    +0.000 Cl
ATOM     10  C   UNL     1      -8.702  13.801  16.502  0.00  0.00    +0.000 A 
ATOM     11  C   UNL     1      -8.873  13.909  15.113  0.00  0.00    +0.000 A 
ATOM     12  C   UNL     1      -7.400  13.690  17.013  0.00  0.00    +0.000 A 
ATOM     13  C   UNL     1      -7.766  13.952  14.258  0.00  0.00    +0.000 A 
ATOM     14  C   UNL     1      -6.293  13.746  16.161  0.00  0.00    +0.000 A 
ATOM     15  C   UNL     1      -6.480  13.882  14.788  0.00  0.00    +0.000 A 
ENDBRANCH   5  10
BRANCH   4  17
ATOM     16  N   UNL     1     -10.129  10.436  18.614  0.00  0.00    +0.000 NA
ATOM     17  C   UNL     1     -10.268  11.241  17.611  0.00  0.00    +0.000 C 
BRANCH  16  18
ATOM     18  O   UNL     1      -9.909   9.137  18.116  0.00  0.00    +0.000 OA
BRANCH  18  19
ATOM     19  C   UNL     1     -11.144   8.621  17.616  0.00  0.00    +0.000 C 
BRANCH  19  22
ATOM     20 CL   UNL     1     -14.276   8.790  17.528  0.00  0.00    +0.000 Cl
ATOM     21 CL   UNL     1     -14.197   6.316  22.284  0.00  0.00    +0.000 Cl
ATOM     22  C   UNL     1     -11.943   8.053  18.763  0.00  0.00    +0.000 A 
ATOM     23  C   UNL     1     -13.346   8.091  18.805  0.00  0.00    +0.000 A 
ATOM     24  C   UNL     1     -11.256   7.436  19.825  0.00  0.00    +0.000 A 
ATOM     25  C   UNL     1     -14.043   7.557  19.894  0.00  0.00    +0.000 A 
ATOM     26  C   UNL     1     -11.952   6.900  20.910  0.00  0.00    +0.000 A 
ATOM     27  C   UNL     1     -13.342   6.968  20.942  0.00  0.00    +0.000 A 
ENDBRANCH  19  22
ENDBRANCH  18  19
ENDBRANCH  16  18
ENDBRANCH   4  17
TORSDOF 5
ENDMDL
MODEL 2
REMARK VINA RESULT:      -5.8     22.966     26.156
REMARK  Name = 5880691
REMARK  5 active torsions:
REMARK  status: ('A' for Active; 'I' for Inactive)
REMARK    1  A    between atoms: O_5  and  N_8
REMARK    2  A    between atoms: O_5  and  C_21
REMARK    3  A    between atoms: C_9  and  C_14
REMARK    4  A    between atoms: C_10  and  C_12
REMARK    5  A    between atoms: C_20  and  C_21
REMARK                            x       y       z     vdW  Elec       q    Type
REMARK                         _______ _______ _______ _____ _____    ______ ____
ROOT
ATOM      1  S   UNL     1      10.475  13.967  24.485  0.00  0.00    +0.000 S 
ATOM      2  N   UNL     1      12.559  12.597  23.865  0.00  0.00    +0.000 N 
ATOM      3  N   UNL     1      10.962  12.209  22.353  0.00  0.00    +0.000 NA
ATOM      4  C   UNL     1      13.133  11.733  22.967  0.00  0.00    +0.000 A 
ATOM      5  C   UNL     1      12.104  11.477  22.056  0.00  0.00    +0.000 A 
ATOM      6  C   UNL     1      11.288  12.843  23.441  0.00  0.00    +0.000 A 
ATOM      7  C   UNL     1      12.934  13.277  25.007  0.00  0.00    +0.000 A 
ATOM      8  C   UNL     1      11.943  14.054  25.473  0.00  0.00    +0.000 A 
ENDROOT
BRANCH   5  10
ATOM      9 CL   UNL     1      12.198   7.710  17.407  0.00  0.00    +0.000 Cl
ATOM     10  C   UNL     1      12.147  10.571  20.915  0.00  0.00    +0.000 A 
ATOM     11  C   UNL     1      11.408   9.379  20.954  0.00  0.00    +0.000 A 
ATOM     12  C   UNL     1      12.940  10.834  19.788  0.00  0.00    +0.000 A 
ATOM     13  C   UNL     1      11.425   8.492  19.872  0.00  0.00    +0.000 A 
ATOM     14  C   UNL     1      12.948   9.955  18.700  0.00  0.00    +0.000 A 
ATOM     15  C   UNL     1      12.187   8.790  18.745  0.00  0.00    +0.000 A 
ENDBRANCH   5  10
BRANCH   4  17
ATOM     16  N   UNL     1      15.425  11.883  22.361  0.00  0.00    +0.000 NA
ATOM     17  C   UNL     1      14.483  11.258  22.991  0.00  0.00    +0.000 C 
BRANCH  16  18
ATOM     18  O   UNL     1      16.643  11.223  22.611  0.00  0.00    +0.000 OA
BRANCH  18  19
ATOM     19  C   UNL     1      17.343  11.067  21.375  0.00  0.00    +0.000 C 
BRANCH  19  22
ATOM     20 CL   UNL     1      15.648   8.546  20.586  0.00  0.00    +0.000 Cl
ATOM     21 CL   UNL     1      20.140   5.718  21.341  0.00  0.00    +0.000 Cl
ATOM     22  C   UNL     1      18.008   9.712  21.352  0.00  0.00    +0.000 A 
ATOM     23  C   UNL     1      17.322   8.534  21.014  0.00  0.00    +0.000 A 
ATOM     24  C   UNL     1      19.379   9.626  21.656  0.00  0.00    +0.000 A 
ATOM     25  C   UNL     1      17.978   7.299  21.014  0.00  0.00    +0.000 A 
ATOM     26  C   UNL     1      20.036   8.394  21.652  0.00  0.00    +0.000 A 
ATOM     27  C   UNL     1      19.331   7.236  21.336  0.00  0.00    +0.000 A 
ENDBRANCH  19  22
ENDBRANCH  18  19
ENDBRANCH  16  18
ENDBRANCH   4  17
TORSDOF 5
ENDMDL
MODEL 3
REMARK VINA RESULT:      -5.7     19.917     22.333
REMARK  Name = 5880691
REMARK  5 active torsions:
REMARK  status: ('A' for Active; 'I' for Inactive)
REMARK    1  A    between atoms: O_5  and  N_8
REMARK    2  A    between atoms: O_5  and  C_21
REMARK    3  A    between atoms: C_9  and  C_14
REMARK    4  A    between atoms: C_10  and  C_12
REMARK    5  A    between atoms: C_20  and  C_21
REMARK                            x       y       z     vdW  Elec       q    Type
REMARK                         _______ _______ _______ _____ _____    ______ ____
ROOT
ATOM      1  S   UNL     1      -4.446 -10.690  16.916  0.00  0.00    +0.000 S 
ATOM      2  N   UNL     1      -6.564 -10.896  18.358  0.00  0.00    +0.000 N 
ATOM      3  N   UNL     1      -7.052  -9.725  16.520  0.00  0.00    +0.000 NA
ATOM      4  C   UNL     1      -7.902 -10.614  18.471  0.00  0.00    +0.000 A 
ATOM      5  C   UNL     1      -8.171  -9.850  17.331  0.00  0.00    +0.000 A 
ATOM      6  C   UNL     1      -6.129 -10.354  17.187  0.00  0.00    +0.000 A 
ATOM      7  C   UNL     1      -5.605 -11.588  19.071  0.00  0.00    +0.000 A 
ATOM      8  C   UNL     1      -4.415 -11.578  18.448  0.00  0.00    +0.000 A 
ENDROOT
BRANCH   5  10
ATOM      9 CL   UNL     1     -13.338  -7.214  15.860  0.00  0.00    +0.000 Cl
ATOM     10  C   UNL     1      -9.441  -9.230  16.970  0.00  0.00    +0.000 A 
ATOM     11  C   UNL     1      -9.640  -7.866  17.233  0.00  0.00    +0.000 A 
ATOM     12  C   UNL     1     -10.491  -9.966  16.403  0.00  0.00    +0.000 A 
ATOM     13  C   UNL     1     -10.845  -7.242  16.894  0.00  0.00    +0.000 A 
ATOM     14  C   UNL     1     -11.692  -9.341  16.051  0.00  0.00    +0.000 A 
ATOM     15  C   UNL     1     -11.861  -7.981  16.294  0.00  0.00    +0.000 A 
ENDBRANCH   5  10
BRANCH   4  17
ATOM     16  N   UNL     1      -9.573 -12.053  19.352  0.00  0.00    +0.000 NA
ATOM     17  C   UNL     1      -8.775 -11.048  19.519  0.00  0.00    +0.000 C 
BRANCH  16  18
ATOM     18  O   UNL     1     -10.260 -12.282  20.560  0.00  0.00    +0.000 OA
BRANCH  18  19
ATOM     19  C   UNL     1     -11.506 -12.917  20.268  0.00  0.00    +0.000 C 
BRANCH  19  22
ATOM     20 CL   UNL     1     -12.981 -13.463  17.552  0.00  0.00    +0.000 Cl
ATOM     21 CL   UNL     1     -15.330  -8.696  18.270  0.00  0.00    +0.000 Cl
ATOM     22  C   UNL     1     -12.472 -11.887  19.736  0.00  0.00    +0.000 A 
ATOM     23  C   UNL     1     -13.170 -12.050  18.529  0.00  0.00    +0.000 A 
ATOM     24  C   UNL     1     -12.705 -10.724  20.494  0.00  0.00    +0.000 A 
ATOM     25  C   UNL     1     -14.051 -11.064  18.073  0.00  0.00    +0.000 A 
ATOM     26  C   UNL     1     -13.587  -9.741  20.042  0.00  0.00    +0.000 A 
ATOM     27  C   UNL     1     -14.251  -9.913  18.831  0.00  0.00    +0.000 A 
ENDBRANCH  19  22
ENDBRANCH  18  19
ENDBRANCH  16  18
ENDBRANCH   4  17
TORSDOF 5
ENDMDL
MODEL 4
REMARK VINA RESULT:      -5.7     13.572     17.160
REMARK  Name = 5880691
REMARK  5 active torsions:
REMARK  status: ('A' for Active; 'I' for Inactive)
REMARK    1  A    between atoms: O_5  and  N_8
REMARK    2  A    between atoms: O_5  and  C_21
REMARK    3  A    between atoms: C_9  and  C_14
REMARK    4  A    between atoms: C_10  and  C_12
REMARK    5  A    between atoms: C_20  and  C_21
REMARK                            x       y       z     vdW  Elec       q    Type
REMARK                         _______ _______ _______ _____ _____    ______ ____
ROOT
ATOM      1  S   UNL     1       0.953  20.253  27.160  0.00  0.00    +0.000 S 
ATOM      2  N   UNL     1       1.992  18.503  25.590  0.00  0.00    +0.000 N 
ATOM      3  N   UNL     1      -0.047  19.026  24.842  0.00  0.00    +0.000 NA
ATOM      4  C   UNL     1       1.839  17.759  24.448  0.00  0.00    +0.000 A 
ATOM      5  C   UNL     1       0.545  18.074  24.023  0.00  0.00    +0.000 A 
ATOM      6  C   UNL     1       0.853  19.232  25.759  0.00  0.00    +0.000 A 
ATOM      7  C   UNL     1       2.970  18.723  26.540  0.00  0.00    +0.000 A 
ATOM      8  C   UNL     1       2.583  19.627  27.455  0.00  0.00    +0.000 A 
ENDROOT
BRANCH   5  10
ATOM      9 CL   UNL     1      -2.360  15.881  19.273  0.00  0.00    +0.000 Cl
ATOM     10  C   UNL     1      -0.163  17.517  22.877  0.00  0.00    +0.000 A 
ATOM     11  C   UNL     1      -0.823  18.380  21.990  0.00  0.00    +0.000 A 
ATOM     12  C   UNL     1      -0.239  16.134  22.651  0.00  0.00    +0.000 A 
ATOM     13  C   UNL     1      -1.506  17.877  20.877  0.00  0.00    +0.000 A 
ATOM     14  C   UNL     1      -0.909  15.630  21.533  0.00  0.00    +0.000 A 
ATOM     15  C   UNL     1      -1.536  16.504  20.648  0.00  0.00    +0.000 A 
ENDBRANCH   5  10
BRANCH   4  17
ATOM     16  N   UNL     1       3.153  15.781  24.425  0.00  0.00    +0.000 NA
ATOM     17  C   UNL     1       2.818  16.896  23.860  0.00  0.00    +0.000 C 
BRANCH  16  18
ATOM     18  O   UNL     1       4.084  15.124  23.596  0.00  0.00    +0.000 OA
BRANCH  18  19
ATOM     19  C   UNL     1       4.690  16.087  22.732  0.00  0.00    +0.000 C 
BRANCH  19  22
ATOM     20 CL   UNL     1       6.004  18.326  24.496  0.00  0.00    +0.000 Cl
ATOM     21 CL   UNL     1      10.676  15.897  23.483  0.00  0.00    +0.000 Cl
ATOM     22  C   UNL     1       6.183  16.072  22.946  0.00  0.00    +0.000 A 
ATOM     23  C   UNL     1       6.852  17.037  23.717  0.00  0.00    +0.000 A 
ATOM     24  C   UNL     1       6.938  15.033  22.371  0.00  0.00    +0.000 A 
ATOM     25  C   UNL     1       8.239  16.986  23.881  0.00  0.00    +0.000 A 
ATOM     26  C   UNL     1       8.323  14.979  22.537  0.00  0.00    +0.000 A 
ATOM     27  C   UNL     1       8.968  15.959  23.287  0.00  0.00    +0.000 A 
ENDBRANCH  19  22
ENDBRANCH  18  19
ENDBRANCH  16  18
ENDBRANCH   4  17
TORSDOF 5
ENDMDL
MODEL 5
REMARK VINA RESULT:      -5.6     19.173     22.512
REMARK  Name = 5880691
REMARK  5 active torsions:
REMARK  status: ('A' for Active; 'I' for Inactive)
REMARK    1  A    between atoms: O_5  and  N_8
REMARK    2  A    between atoms: O_5  and  C_21
REMARK    3  A    between atoms: C_9  and  C_14
REMARK    4  A    between atoms: C_10  and  C_12
REMARK    5  A    between atoms: C_20  and  C_21
REMARK                            x       y       z     vdW  Elec       q    Type
REMARK                         _______ _______ _______ _____ _____    ______ ____
ROOT
ATOM      1  S   UNL     1     -11.163 -12.662  20.377  0.00  0.00    +0.000 S 
ATOM      2  N   UNL     1      -9.597 -11.562  18.661  0.00  0.00    +0.000 N 
ATOM      3  N   UNL     1     -11.541 -10.463  18.676  0.00  0.00    +0.000 NA
ATOM      4  C   UNL     1      -9.430 -10.548  17.752  0.00  0.00    +0.000 A 
ATOM      5  C   UNL     1     -10.670  -9.902  17.752  0.00  0.00    +0.000 A 
ATOM      6  C   UNL     1     -10.854 -11.448  19.174  0.00  0.00    +0.000 A 
ATOM      7  C   UNL     1      -8.842 -12.589  19.193  0.00  0.00    +0.000 A 
ATOM      8  C   UNL     1      -9.522 -13.279  20.122  0.00  0.00    +0.000 A 
ENDROOT
BRANCH   5  10
ATOM      9 CL   UNL     1     -12.394  -5.339  14.285  0.00  0.00    +0.000 Cl
ATOM     10  C   UNL     1     -11.073  -8.776  16.918  0.00  0.00    +0.000 A 
ATOM     11  C   UNL     1     -11.861  -9.009  15.781  0.00  0.00    +0.000 A 
ATOM     12  C   UNL     1     -10.662  -7.463  17.194  0.00  0.00    +0.000 A 
ATOM     13  C   UNL     1     -12.268  -7.949  14.964  0.00  0.00    +0.000 A 
ATOM     14  C   UNL     1     -11.079  -6.401  16.386  0.00  0.00    +0.000 A 
ATOM     15  C   UNL     1     -11.883  -6.647  15.277  0.00  0.00    +0.000 A 
ENDBRANCH   5  10
BRANCH   4  17
ATOM     16  N   UNL     1      -7.325  -9.476  17.514  0.00  0.00    +0.000 NA
ATOM     17  C   UNL     1      -8.235 -10.252  17.021  0.00  0.00    +0.000 C 
BRANCH  16  18
ATOM     18  O   UNL     1      -6.251  -9.416  16.604  0.00  0.00    +0.000 OA
BRANCH  18  19
ATOM     19  C   UNL     1      -6.690  -9.918  15.341  0.00  0.00    +0.000 C 
BRANCH  19  22
ATOM     20 CL   UNL     1      -6.917  -9.369  12.259  0.00  0.00    +0.000 Cl
ATOM     21 CL   UNL     1      -1.802 -10.949  11.954  0.00  0.00    +0.000 Cl
ATOM     22  C   UNL     1      -5.489 -10.161  14.461  0.00  0.00    +0.000 A 
ATOM     23  C   UNL     1      -5.506  -9.945  13.073  0.00  0.00    +0.000 A 
ATOM     24  C   UNL     1      -4.292 -10.598  15.057  0.00  0.00    +0.000 A 
ATOM     25  C   UNL     1      -4.369 -10.191  12.297  0.00  0.00    +0.000 A 
ATOM     26  C   UNL     1      -3.155 -10.840  14.284  0.00  0.00    +0.000 A 
ATOM     27  C   UNL     1      -3.200 -10.641  12.907  0.00  0.00    +0.000 A 
ENDBRANCH  19  22
ENDBRANCH  18  19
ENDBRANCH  16  18
ENDBRANCH   4  17
TORSDOF 5
ENDMDL
MODEL 6
REMARK VINA RESULT:      -5.6     26.961     29.087
REMARK  Name = 5880691
REMARK  5 active torsions:
REMARK  status: ('A' for Active; 'I' for Inactive)
REMARK    1  A    between atoms: O_5  and  N_8
REMARK    2  A    between atoms: O_5  and  C_21
REMARK    3  A    between atoms: C_9  and  C_14
REMARK    4  A    between atoms: C_10  and  C_12
REMARK    5  A    between atoms: C_20  and  C_21
REMARK                            x       y       z     vdW  Elec       q    Type
REMARK                         _______ _______ _______ _____ _____    ______ ____
ROOT
ATOM      1  S   UNL     1      -5.676 -11.161  40.171  0.00  0.00    +0.000 S 
ATOM      2  N   UNL     1      -6.363  -8.701  39.890  0.00  0.00    +0.000 N 
ATOM      3  N   UNL     1      -4.228  -8.786  40.540  0.00  0.00    +0.000 NA
ATOM      4  C   UNL     1      -5.962  -7.390  39.940  0.00  0.00    +0.000 A 
ATOM      5  C   UNL     1      -4.639  -7.469  40.386  0.00  0.00    +0.000 A 
ATOM      6  C   UNL     1      -5.295  -9.468  40.243  0.00  0.00    +0.000 A 
ATOM      7  C   UNL     1      -7.500  -9.406  39.549  0.00  0.00    +0.000 A 
ATOM      8  C   UNL     1      -7.311 -10.733  39.645  0.00  0.00    +0.000 A 
ENDROOT
BRANCH   5  10
ATOM      9 CL   UNL     1      -0.983  -2.909  41.668  0.00  0.00    +0.000 Cl
ATOM     10  C   UNL     1      -3.742  -6.357  40.674  0.00  0.00    +0.000 A 
ATOM     11  C   UNL     1      -3.862  -5.673  41.894  0.00  0.00    +0.000 A 
ATOM     12  C   UNL     1      -2.783  -5.918  39.749  0.00  0.00    +0.000 A 
ATOM     13  C   UNL     1      -3.013  -4.606  42.202  0.00  0.00    +0.000 A 
ATOM     14  C   UNL     1      -1.924  -4.859  40.061  0.00  0.00    +0.000 A 
ATOM     15  C   UNL     1      -2.040  -4.211  41.287  0.00  0.00    +0.000 A 
ENDBRANCH   5  10
BRANCH   4  17
ATOM     16  N   UNL     1      -7.528  -5.677  40.446  0.00  0.00    +0.000 NA
ATOM     17  C   UNL     1      -6.749  -6.247  39.585  0.00  0.00    +0.000 C 
BRANCH  16  18
ATOM     18  O   UNL     1      -8.123  -4.556  39.835  0.00  0.00    +0.000 OA
BRANCH  18  19
ATOM     19  C   UNL     1      -9.439  -4.911  39.408  0.00  0.00    +0.000 C 
BRANCH  19  22
ATOM     20 CL   UNL     1      -9.614  -1.806  38.978  0.00  0.00    +0.000 Cl
ATOM     21 CL   UNL     1     -13.509  -1.866  42.663  0.00  0.00    +0.000 Cl
ATOM     22  C   UNL     1     -10.447  -4.115  40.201  0.00  0.00    +0.000 A 
ATOM     23  C   UNL     1     -10.588  -2.723  40.073  0.00  0.00    +0.000 A 
ATOM     24  C   UNL     1     -11.300  -4.797  41.088  0.00  0.00    +0.000 A 
ATOM     25  C   UNL     1     -11.531  -2.027  40.835  0.00  0.00    +0.000 A 
ATOM     26  C   UNL     1     -12.244  -4.103  41.847  0.00  0.00    +0.000 A 
ATOM     27  C   UNL     1     -12.352  -2.721  41.721  0.00  0.00    +0.000 A 
ENDBRANCH  19  22
ENDBRANCH  18  19
ENDBRANCH  16  18
ENDBRANCH   4  17
TORSDOF 5
ENDMDL
MODEL 7
REMARK VINA RESULT:      -5.5     19.091     22.369
REMARK  Name = 5880691
REMARK  5 active torsions:
REMARK  status: ('A' for Active; 'I' for Inactive)
REMARK    1  A    between atoms: O_5  and  N_8
REMARK    2  A    between atoms: O_5  and  C_21
REMARK    3  A    between atoms: C_9  and  C_14
REMARK    4  A    between atoms: C_10  and  C_12
REMARK    5  A    between atoms: C_20  and  C_21
REMARK                            x       y       z     vdW  Elec       q    Type
REMARK                         _______ _______ _______ _____ _____    ______ ____
ROOT
ATOM      1  S   UNL     1      -5.598 -10.816  18.000  0.00  0.00    +0.000 S 
ATOM      2  N   UNL     1      -8.103 -10.695  18.563  0.00  0.00    +0.000 N 
ATOM      3  N   UNL     1      -7.675  -9.304  16.869  0.00  0.00    +0.000 NA
ATOM      4  C   UNL     1      -9.322 -10.152  18.242  0.00  0.00    +0.000 A 
ATOM      5  C   UNL     1      -9.020  -9.260  17.209  0.00  0.00    +0.000 A 
ATOM      6  C   UNL     1      -7.182 -10.162  17.713  0.00  0.00    +0.000 A 
ATOM      7  C   UNL     1      -7.605 -11.626  19.453  0.00  0.00    +0.000 A 
ATOM      8  C   UNL     1      -6.285 -11.812  19.294  0.00  0.00    +0.000 A 
ENDROOT
BRANCH   5  10
ATOM      9 CL   UNL     1     -12.836  -5.657  14.333  0.00  0.00    +0.000 Cl
ATOM     10  C   UNL     1      -9.945  -8.364  16.525  0.00  0.00    +0.000 A 
ATOM     11  C   UNL     1     -10.361  -8.669  15.220  0.00  0.00    +0.000 A 
ATOM     12  C   UNL     1     -10.404  -7.178  17.116  0.00  0.00    +0.000 A 
ATOM     13  C   UNL     1     -11.251  -7.833  14.539  0.00  0.00    +0.000 A 
ATOM     14  C   UNL     1     -11.305  -6.347  16.443  0.00  0.00    +0.000 A 
ATOM     15  C   UNL     1     -11.728  -6.680  15.160  0.00  0.00    +0.000 A 
ENDBRANCH   5  10
BRANCH   4  17
ATOM     16  N   UNL     1     -10.818 -10.216  20.085  0.00  0.00    +0.000 NA
ATOM     17  C   UNL     1     -10.581 -10.479  18.840  0.00  0.00    +0.000 C 
BRANCH  16  18
ATOM     18  O   UNL     1     -12.144 -10.592  20.374  0.00  0.00    +0.000 OA
BRANCH  18  19
ATOM     19  C   UNL     1     -12.253 -12.012  20.266  0.00  0.00    +0.000 C 
BRANCH  19  22
ATOM     20 CL   UNL     1     -10.454 -14.222  21.581  0.00  0.00    +0.000 Cl
ATOM     21 CL   UNL     1     -13.975 -14.192  25.625  0.00  0.00    +0.000 Cl
ATOM     22  C   UNL     1     -12.649 -12.580  21.607  0.00  0.00    +0.000 A 
ATOM     23  C   UNL     1     -11.903 -13.573  22.263  0.00  0.00    +0.000 A 
ATOM     24  C   UNL     1     -13.799 -12.076  22.242  0.00  0.00    +0.000 A 
ATOM     25  C   UNL     1     -12.313 -14.074  23.502  0.00  0.00    +0.000 A 
ATOM     26  C   UNL     1     -14.207 -12.573  23.481  0.00  0.00    +0.000 A 
ATOM     27  C   UNL     1     -13.465 -13.574  24.103  0.00  0.00    +0.000 A 
ENDBRANCH  19  22
ENDBRANCH  18  19
ENDBRANCH  16  18
ENDBRANCH   4  17
TORSDOF 5
ENDMDL
MODEL 8
REMARK VINA RESULT:      -5.3     22.082     24.444
REMARK  Name = 5880691
REMARK  5 active torsions:
REMARK  status: ('A' for Active; 'I' for Inactive)
REMARK    1  A    between atoms: O_5  and  N_8
REMARK    2  A    between atoms: O_5  and  C_21
REMARK    3  A    between atoms: C_9  and  C_14
REMARK    4  A    between atoms: C_10  and  C_12
REMARK    5  A    between atoms: C_20  and  C_21
REMARK                            x       y       z     vdW  Elec       q    Type
REMARK                         _______ _______ _______ _____ _____    ______ ____
ROOT
ATOM      1  S   UNL     1       8.545  13.709   9.158  0.00  0.00    +0.000 S 
ATOM      2  N   UNL     1       9.125  11.231   8.797  0.00  0.00    +0.000 N 
ATOM      3  N   UNL     1       8.808  12.197   6.809  0.00  0.00    +0.000 NA
ATOM      4  C   UNL     1       9.358  10.234   7.885  0.00  0.00    +0.000 A 
ATOM      5  C   UNL     1       9.115  10.852   6.655  0.00  0.00    +0.000 A 
ATOM      6  C   UNL     1       8.817  12.360   8.099  0.00  0.00    +0.000 A 
ATOM      7  C   UNL     1       9.163  11.387  10.169  0.00  0.00    +0.000 A 
ATOM      8  C   UNL     1       8.876  12.646  10.536  0.00  0.00    +0.000 A 
ENDROOT
BRANCH   5  10
ATOM      9 CL   UNL     1       9.195   8.305   1.241  0.00  0.00    +0.000 Cl
ATOM     10  C   UNL     1       9.160  10.232   5.336  0.00  0.00    +0.000 A 
ATOM     11  C   UNL     1       8.004   9.625   4.822  0.00  0.00    +0.000 A 
ATOM     12  C   UNL     1      10.338  10.185   4.577  0.00  0.00    +0.000 A 
ATOM     13  C   UNL     1       8.013   9.026   3.557  0.00  0.00    +0.000 A 
ATOM     14  C   UNL     1      10.346   9.599   3.308  0.00  0.00    +0.000 A 
ATOM     15  C   UNL     1       9.183   9.026   2.802  0.00  0.00    +0.000 A 
ENDBRANCH   5  10
BRANCH   4  17
ATOM     16  N   UNL     1       8.985   7.890   7.976  0.00  0.00    +0.000 NA
ATOM     17  C   UNL     1       9.774   8.895   8.178  0.00  0.00    +0.000 C 
BRANCH  16  18
ATOM     18  O   UNL     1       9.680   6.707   8.297  0.00  0.00    +0.000 OA
BRANCH  18  19
ATOM     19  C   UNL     1       9.780   5.900   7.122  0.00  0.00    +0.000 C 
BRANCH  19  22
ATOM     20 CL   UNL     1       9.666   5.849   3.986  0.00  0.00    +0.000 Cl
ATOM     21 CL   UNL     1      14.732   7.602   4.120  0.00  0.00    +0.000 Cl
ATOM     22  C   UNL     1      10.997   6.321   6.336  0.00  0.00    +0.000 A 
ATOM     23  C   UNL     1      11.032   6.324   4.932  0.00  0.00    +0.000 A 
ATOM     24  C   UNL     1      12.138   6.755   7.036  0.00  0.00    +0.000 A 
ATOM     25  C   UNL     1      12.186   6.716   4.246  0.00  0.00    +0.000 A 
ATOM     26  C   UNL     1      13.289   7.150   6.352  0.00  0.00    +0.000 A 
ATOM     27  C   UNL     1      13.309   7.124   4.961  0.00  0.00    +0.000 A 
ENDBRANCH  19  22
ENDBRANCH  18  19
ENDBRANCH  16  18
ENDBRANCH   4  17
TORSDOF 5
ENDMDL
MODEL 9
REMARK VINA RESULT:      -5.3     13.093     16.708
REMARK  Name = 5880691
REMARK  5 active torsions:
REMARK  status: ('A' for Active; 'I' for Inactive)
REMARK    1  A    between atoms: O_5  and  N_8
REMARK    2  A    between atoms: O_5  and  C_21
REMARK    3  A    between atoms: C_9  and  C_14
REMARK    4  A    between atoms: C_10  and  C_12
REMARK    5  A    between atoms: C_20  and  C_21
REMARK                            x       y       z     vdW  Elec       q    Type
REMARK                         _______ _______ _______ _____ _____    ______ ____
ROOT
ATOM      1  S   UNL     1       1.137  20.686  27.532  0.00  0.00    +0.000 S 
ATOM      2  N   UNL     1       2.493  19.060  26.075  0.00  0.00    +0.000 N 
ATOM      3  N   UNL     1       0.371  19.056  25.379  0.00  0.00    +0.000 NA
ATOM      4  C   UNL     1       2.477  18.194  25.011  0.00  0.00    +0.000 A 
ATOM      5  C   UNL     1       1.135  18.180  24.621  0.00  0.00    +0.000 A 
ATOM      6  C   UNL     1       1.227  19.538  26.231  0.00  0.00    +0.000 A 
ATOM      7  C   UNL     1       3.423  19.575  26.956  0.00  0.00    +0.000 A 
ATOM      8  C   UNL     1       2.871  20.457  27.805  0.00  0.00    +0.000 A 
ENDROOT
BRANCH   5  10
ATOM      9 CL   UNL     1      -1.332  14.967  20.216  0.00  0.00    +0.000 Cl
ATOM     10  C   UNL     1       0.537  17.376  23.561  0.00  0.00    +0.000 A 
ATOM     11  C   UNL     1      -0.219  18.008  22.562  0.00  0.00    +0.000 A 
ATOM     12  C   UNL     1       0.661  15.980  23.529  0.00  0.00    +0.000 A 
ATOM     13  C   UNL     1      -0.801  17.265  21.529  0.00  0.00    +0.000 A 
ATOM     14  C   UNL     1       0.092  15.237  22.490  0.00  0.00    +0.000 A 
ATOM     15  C   UNL     1      -0.632  15.883  21.492  0.00  0.00    +0.000 A 
ENDBRANCH   5  10
BRANCH   4  17
ATOM     16  N   UNL     1       4.612  18.164  23.971  0.00  0.00    +0.000 NA
ATOM     17  C   UNL     1       3.607  17.511  24.456  0.00  0.00    +0.000 C 
BRANCH  16  18
ATOM     18  O   UNL     1       5.588  17.237  23.555  0.00  0.00    +0.000 OA
BRANCH  18  19
ATOM     19  C   UNL     1       4.931  16.057  23.088  0.00  0.00    +0.000 C 
BRANCH  19  22
ATOM     20 CL   UNL     1       2.874  16.907  20.875  0.00  0.00    +0.000 Cl
ATOM     21 CL   UNL     1       6.473  15.106  17.331  0.00  0.00    +0.000 Cl
ATOM     22  C   UNL     1       5.281  15.838  21.637  0.00  0.00    +0.000 A 
ATOM     23  C   UNL     1       4.418  16.186  20.585  0.00  0.00    +0.000 A 
ATOM     24  C   UNL     1       6.536  15.287  21.321  0.00  0.00    +0.000 A 
ATOM     25  C   UNL     1       4.783  15.957  19.255  0.00  0.00    +0.000 A 
ATOM     26  C   UNL     1       6.903  15.062  19.993  0.00  0.00    +0.000 A 
ATOM     27  C   UNL     1       6.023  15.393  18.967  0.00  0.00    +0.000 A 
ENDBRANCH  19  22
ENDBRANCH  18  19
ENDBRANCH  16  18
ENDBRANCH   4  17
TORSDOF 5
ENDMDL
MODEL 10
REMARK VINA RESULT:      -5.2     39.357     41.650
REMARK  Name = 5880691
REMARK  5 active torsions:
REMARK  status: ('A' for Active; 'I' for Inactive)
REMARK    1  A    between atoms: O_5  and  N_8
REMARK    2  A    between atoms: O_5  and  C_21
REMARK    3  A    between atoms: C_9  and  C_14
REMARK    4  A    between atoms: C_10  and  C_12
REMARK    5  A    between atoms: C_20  and  C_21
REMARK                            x       y       z     vdW  Elec       q    Type
REMARK                         _______ _______ _______ _____ _____    ______ ____
ROOT
ATOM      1  S   UNL     1      18.499 -21.056   5.027  0.00  0.00    +0.000 S 
ATOM      2  N   UNL     1      17.306 -18.781   4.936  0.00  0.00    +0.000 N 
ATOM      3  N   UNL     1      16.323 -20.053   6.487  0.00  0.00    +0.000 NA
ATOM      4  C   UNL     1      16.321 -17.986   5.465  0.00  0.00    +0.000 A 
ATOM      5  C   UNL     1      15.698 -18.816   6.402  0.00  0.00    +0.000 A 
ATOM      6  C   UNL     1      17.259 -19.977   5.587  0.00  0.00    +0.000 A 
ATOM      7  C   UNL     1      18.307 -18.671   3.992  0.00  0.00    +0.000 A 
ATOM      8  C   UNL     1      19.039 -19.794   3.908  0.00  0.00    +0.000 A 
ENDROOT
BRANCH   5  10
ATOM      9 CL   UNL     1      10.877 -17.565   9.719  0.00  0.00    +0.000 Cl
ATOM     10  C   UNL     1      14.538 -18.496   7.224  0.00  0.00    +0.000 A 
ATOM     11  C   UNL     1      13.254 -18.815   6.756  0.00  0.00    +0.000 A 
ATOM     12  C   UNL     1      14.660 -17.838   8.457  0.00  0.00    +0.000 A 
ATOM     13  C   UNL     1      12.121 -18.525   7.524  0.00  0.00    +0.000 A 
ATOM     14  C   UNL     1      13.530 -17.559   9.232  0.00  0.00    +0.000 A 
ATOM     15  C   UNL     1      12.266 -17.908   8.764  0.00  0.00    +0.000 A 
ENDBRANCH   5  10
BRANCH   4  17
ATOM     16  N   UNL     1      16.835 -15.667   5.508  0.00  0.00    +0.000 NA
ATOM     17  C   UNL     1      16.054 -16.623   5.119  0.00  0.00    +0.000 C 
BRANCH  16  18
ATOM     18  O   UNL     1      16.357 -14.455   4.973  0.00  0.00    +0.000 OA
BRANCH  18  19
ATOM     19  C   UNL     1      15.474 -14.748   3.889  0.00  0.00    +0.000 C 
BRANCH  19  22
ATOM     20 CL   UNL     1      17.336 -16.051   1.725  0.00  0.00    +0.000 Cl
ATOM     21 CL   UNL     1      17.029 -11.363  -0.860  0.00  0.00    +0.000 Cl
ATOM     22  C   UNL     1      15.882 -13.935   2.686  0.00  0.00    +0.000 A 
ATOM     23  C   UNL     1      16.715 -14.439   1.674  0.00  0.00    +0.000 A 
ATOM     24  C   UNL     1      15.388 -12.624   2.556  0.00  0.00    +0.000 A 
ATOM     25  C   UNL     1      17.073 -13.645   0.580  0.00  0.00    +0.000 A 
ATOM     26  C   UNL     1      15.742 -11.831   1.463  0.00  0.00    +0.000 A 
ATOM     27  C   UNL     1      16.587 -12.344   0.482  0.00  0.00    +0.000 A 
ENDBRANCH  19  22
ENDBRANCH  18  19
ENDBRANCH  16  18
ENDBRANCH   4  17
TORSDOF 5
ENDMDL
