MODEL 1
REMARK VINA RESULT:      -5.6      0.000      0.000
REMARK  Name = 5880691
REMARK  5 active torsions:
REMARK  status: ('A' for Active; 'I' for Inactive)
REMARK    1  A    between atoms: O_5  and  N_8
REMARK    2  A    between atoms: O_5  and  C_21
REMARK    3  A    between atoms: C_9  and  C_14
REMARK    4  A    between atoms: C_10  and  C_12
REMARK    5  A    between atoms: C_20  and  C_21
REMARK                            x       y       z     vdW  Elec       q    Type
REMARK                         _______ _______ _______ _____ _____    ______ ____
ROOT
ATOM      1  S   UNL     1     -17.362   7.808 -33.952  0.00  0.00    +0.000 S 
ATOM      2  N   UNL     1     -14.970   7.140 -34.616  0.00  0.00    +0.000 N 
ATOM      3  N   UNL     1     -15.626   5.869 -32.900  0.00  0.00    +0.000 NA
ATOM      4  C   UNL     1     -13.912   6.299 -34.382  0.00  0.00    +0.000 A 
ATOM      5  C   UNL     1     -14.332   5.544 -33.282  0.00  0.00    +0.000 A 
ATOM      6  C   UNL     1     -15.946   6.828 -33.718  0.00  0.00    +0.000 A 
ATOM      7  C   UNL     1     -15.298   8.141 -35.509  0.00  0.00    +0.000 A 
ATOM      8  C   UNL     1     -16.538   8.611 -35.298  0.00  0.00    +0.000 A 
ENDROOT
BRANCH   5  10
ATOM      9 CL   UNL     1     -11.178   1.314 -30.460  0.00  0.00    +0.000 Cl
ATOM     10  C   UNL     1     -13.566   4.526 -32.573  0.00  0.00    +0.000 A 
ATOM     11  C   UNL     1     -13.364   3.274 -33.174  0.00  0.00    +0.000 A 
ATOM     12  C   UNL     1     -13.055   4.744 -31.285  0.00  0.00    +0.000 A 
ATOM     13  C   UNL     1     -12.629   2.278 -32.521  0.00  0.00    +0.000 A 
ATOM     14  C   UNL     1     -12.309   3.755 -30.636  0.00  0.00    +0.000 A 
ATOM     15  C   UNL     1     -12.095   2.528 -31.259  0.00  0.00    +0.000 A 
ENDBRANCH   5  10
BRANCH   4  17
ATOM     16  N   UNL     1     -12.538   5.362 -36.078  0.00  0.00    +0.000 NA
ATOM     17  C   UNL     1     -12.696   6.235 -35.135  0.00  0.00    +0.000 C 
BRANCH  16  18
ATOM     18  O   UNL     1     -11.279   5.575 -36.674  0.00  0.00    +0.000 OA
BRANCH  18  19
ATOM     19  C   UNL     1     -10.302   4.805 -35.971  0.00  0.00    +0.000 C 
BRANCH  19  22
ATOM     20 CL   UNL     1      -9.172   7.610 -35.128  0.00  0.00    +0.000 Cl
ATOM     21 CL   UNL     1      -4.786   6.294 -37.918  0.00  0.00    +0.000 Cl
ATOM     22  C   UNL     1      -8.925   5.212 -36.435  0.00  0.00    +0.000 A 
ATOM     23  C   UNL     1      -8.347   6.449 -36.107  0.00  0.00    +0.000 A 
ATOM     24  C   UNL     1      -8.177   4.306 -37.208  0.00  0.00    +0.000 A 
ATOM     25  C   UNL     1      -7.070   6.786 -36.568  0.00  0.00    +0.000 A 
ATOM     26  C   UNL     1      -6.901   4.640 -37.665  0.00  0.00    +0.000 A 
ATOM     27  C   UNL     1      -6.355   5.880 -37.347  0.00  0.00    +0.000 A 
ENDBRANCH  19  22
ENDBRANCH  18  19
ENDBRANCH  16  18
ENDBRANCH   4  17
TORSDOF 5
ENDMDL
MODEL 2
REMARK VINA RESULT:      -5.2     14.808     16.032
REMARK  Name = 5880691
REMARK  5 active torsions:
REMARK  status: ('A' for Active; 'I' for Inactive)
REMARK    1  A    between atoms: O_5  and  N_8
REMARK    2  A    between atoms: O_5  and  C_21
REMARK    3  A    between atoms: C_9  and  C_14
REMARK    4  A    between atoms: C_10  and  C_12
REMARK    5  A    between atoms: C_20  and  C_21
REMARK                            x       y       z     vdW  Elec       q    Type
REMARK                         _______ _______ _______ _____ _____    ______ ____
ROOT
ATOM      1  S   UNL     1     -16.839  15.598 -49.808  0.00  0.00    +0.000 S 
ATOM      2  N   UNL     1     -15.472  15.942 -47.659  0.00  0.00    +0.000 N 
ATOM      3  N   UNL     1     -17.622  15.685 -47.115  0.00  0.00    +0.000 NA
ATOM      4  C   UNL     1     -15.494  16.007 -46.289  0.00  0.00    +0.000 A 
ATOM      5  C   UNL     1     -16.851  15.884 -45.978  0.00  0.00    +0.000 A 
ATOM      6  C   UNL     1     -16.752  15.742 -48.079  0.00  0.00    +0.000 A 
ATOM      7  C   UNL     1     -14.528  15.983 -48.667  0.00  0.00    +0.000 A 
ATOM      8  C   UNL     1     -15.083  15.818 -49.878  0.00  0.00    +0.000 A 
ENDROOT
BRANCH   5  10
ATOM      9 CL   UNL     1     -19.325  16.233 -40.540  0.00  0.00    +0.000 Cl
ATOM     10  C   UNL     1     -17.457  15.944 -44.653  0.00  0.00    +0.000 A 
ATOM     11  C   UNL     1     -17.314  17.109 -43.884  0.00  0.00    +0.000 A 
ATOM     12  C   UNL     1     -18.147  14.854 -44.102  0.00  0.00    +0.000 A 
ATOM     13  C   UNL     1     -17.888  17.200 -42.611  0.00  0.00    +0.000 A 
ATOM     14  C   UNL     1     -18.732  14.947 -42.835  0.00  0.00    +0.000 A 
ATOM     15  C   UNL     1     -18.604  16.121 -42.097  0.00  0.00    +0.000 A 
ENDBRANCH   5  10
BRANCH   4  17
ATOM     16  N   UNL     1     -13.475  15.206 -45.329  0.00  0.00    +0.000 NA
ATOM     17  C   UNL     1     -14.358  16.146 -45.428  0.00  0.00    +0.000 C 
BRANCH  16  18
ATOM     18  O   UNL     1     -12.454  15.643 -44.463  0.00  0.00    +0.000 OA
BRANCH  18  19
ATOM     19  C   UNL     1     -12.882  16.844 -43.817  0.00  0.00    +0.000 C 
BRANCH  19  22
ATOM     20 CL   UNL     1     -13.248  19.376 -42.000  0.00  0.00    +0.000 Cl
ATOM     21 CL   UNL     1      -7.946  20.038 -42.453  0.00  0.00    +0.000 Cl
ATOM     22  C   UNL     1     -11.672  17.667 -43.452  0.00  0.00    +0.000 A 
ATOM     23  C   UNL     1     -11.747  18.815 -42.647  0.00  0.00    +0.000 A 
ATOM     24  C   UNL     1     -10.409  17.253 -43.913  0.00  0.00    +0.000 A 
ATOM     25  C   UNL     1     -10.598  19.551 -42.341  0.00  0.00    +0.000 A 
ATOM     26  C   UNL     1      -9.260  17.984 -43.605  0.00  0.00    +0.000 A 
ATOM     27  C   UNL     1      -9.361  19.133 -42.825  0.00  0.00    +0.000 A 
ENDBRANCH  19  22
ENDBRANCH  18  19
ENDBRANCH  16  18
ENDBRANCH   4  17
TORSDOF 5
ENDMDL
MODEL 3
REMARK VINA RESULT:      -5.0      2.431      2.783
REMARK  Name = 5880691
REMARK  5 active torsions:
REMARK  status: ('A' for Active; 'I' for Inactive)
REMARK    1  A    between atoms: O_5  and  N_8
REMARK    2  A    between atoms: O_5  and  C_21
REMARK    3  A    between atoms: C_9  and  C_14
REMARK    4  A    between atoms: C_10  and  C_12
REMARK    5  A    between atoms: C_20  and  C_21
REMARK                            x       y       z     vdW  Elec       q    Type
REMARK                         _______ _______ _______ _____ _____    ______ ____
ROOT
ATOM      1  S   UNL     1     -18.940   8.077 -33.657  0.00  0.00    +0.000 S 
ATOM      2  N   UNL     1     -16.383   8.245 -33.845  0.00  0.00    +0.000 N 
ATOM      3  N   UNL     1     -16.913   6.276 -32.933  0.00  0.00    +0.000 NA
ATOM      4  C   UNL     1     -15.179   7.617 -33.648  0.00  0.00    +0.000 A 
ATOM      5  C   UNL     1     -15.536   6.408 -33.042  0.00  0.00    +0.000 A 
ATOM      6  C   UNL     1     -17.360   7.400 -33.413  0.00  0.00    +0.000 A 
ATOM      7  C   UNL     1     -16.836   9.434 -34.380  0.00  0.00    +0.000 A 
ATOM      8  C   UNL     1     -18.176   9.513 -34.358  0.00  0.00    +0.000 A 
ENDROOT
BRANCH   5  10
ATOM      9 CL   UNL     1     -11.789   2.141 -31.155  0.00  0.00    +0.000 Cl
ATOM     10  C   UNL     1     -14.635   5.368 -32.560  0.00  0.00    +0.000 A 
ATOM     11  C   UNL     1     -13.860   4.648 -33.482  0.00  0.00    +0.000 A 
ATOM     12  C   UNL     1     -14.546   5.034 -31.201  0.00  0.00    +0.000 A 
ATOM     13  C   UNL     1     -12.982   3.648 -33.050  0.00  0.00    +0.000 A 
ATOM     14  C   UNL     1     -13.660   4.044 -30.766  0.00  0.00    +0.000 A 
ATOM     15  C   UNL     1     -12.878   3.358 -31.692  0.00  0.00    +0.000 A 
ENDBRANCH   5  10
BRANCH   4  17
ATOM     16  N   UNL     1     -13.504   8.125 -35.254  0.00  0.00    +0.000 NA
ATOM     17  C   UNL     1     -13.890   8.117 -34.018  0.00  0.00    +0.000 C 
BRANCH  16  18
ATOM     18  O   UNL     1     -12.230   8.722 -35.319  0.00  0.00    +0.000 OA
BRANCH  18  19
ATOM     19  C   UNL     1     -11.516   8.162 -36.422  0.00  0.00    +0.000 C 
BRANCH  19  22
ATOM     20 CL   UNL     1      -9.578   7.783 -33.983  0.00  0.00    +0.000 Cl
ATOM     21 CL   UNL     1      -9.758   2.542 -35.101  0.00  0.00    +0.000 Cl
ATOM     22  C   UNL     1     -11.057   6.772 -36.059  0.00  0.00    +0.000 A 
ATOM     23  C   UNL     1     -10.188   6.514 -34.986  0.00  0.00    +0.000 A 
ATOM     24  C   UNL     1     -11.538   5.683 -36.808  0.00  0.00    +0.000 A 
ATOM     25  C   UNL     1      -9.783   5.208 -34.691  0.00  0.00    +0.000 A 
ATOM     26  C   UNL     1     -11.138   4.379 -36.512  0.00  0.00    +0.000 A 
ATOM     27  C   UNL     1     -10.258   4.148 -35.458  0.00  0.00    +0.000 A 
ENDBRANCH  19  22
ENDBRANCH  18  19
ENDBRANCH  16  18
ENDBRANCH   4  17
TORSDOF 5
ENDMDL
MODEL 4
REMARK VINA RESULT:      -5.0     15.341     17.342
REMARK  Name = 5880691
REMARK  5 active torsions:
REMARK  status: ('A' for Active; 'I' for Inactive)
REMARK    1  A    between atoms: O_5  and  N_8
REMARK    2  A    between atoms: O_5  and  C_21
REMARK    3  A    between atoms: C_9  and  C_14
REMARK    4  A    between atoms: C_10  and  C_12
REMARK    5  A    between atoms: C_20  and  C_21
REMARK                            x       y       z     vdW  Elec       q    Type
REMARK                         _______ _______ _______ _____ _____    ______ ____
ROOT
ATOM      1  S   UNL     1     -21.270  14.772 -45.494  0.00  0.00    +0.000 S 
ATOM      2  N   UNL     1     -19.336  15.335 -47.091  0.00  0.00    +0.000 N 
ATOM      3  N   UNL     1     -18.553  15.276 -45.000  0.00  0.00    +0.000 NA
ATOM      4  C   UNL     1     -17.994  15.591 -47.215  0.00  0.00    +0.000 A 
ATOM      5  C   UNL     1     -17.538  15.588 -45.893  0.00  0.00    +0.000 A 
ATOM      6  C   UNL     1     -19.597  15.150 -45.767  0.00  0.00    +0.000 A 
ATOM      7  C   UNL     1     -20.426  15.183 -47.925  0.00  0.00    +0.000 A 
ATOM      8  C   UNL     1     -21.541  14.882 -47.240  0.00  0.00    +0.000 A 
ENDROOT
BRANCH   5  10
ATOM      9 CL   UNL     1     -12.011  16.807 -43.949  0.00  0.00    +0.000 Cl
ATOM     10  C   UNL     1     -16.183  15.865 -45.432  0.00  0.00    +0.000 A 
ATOM     11  C   UNL     1     -15.886  17.122 -44.883  0.00  0.00    +0.000 A 
ATOM     12  C   UNL     1     -15.149  14.925 -45.557  0.00  0.00    +0.000 A 
ATOM     13  C   UNL     1     -14.597  17.416 -44.427  0.00  0.00    +0.000 A 
ATOM     14  C   UNL     1     -13.863  15.213 -45.090  0.00  0.00    +0.000 A 
ATOM     15  C   UNL     1     -13.594  16.455 -44.523  0.00  0.00    +0.000 A 
ENDBRANCH   5  10
BRANCH   4  17
ATOM     16  N   UNL     1     -16.684  16.906 -48.696  0.00  0.00    +0.000 NA
ATOM     17  C   UNL     1     -17.276  15.785 -48.438  0.00  0.00    +0.000 C 
BRANCH  16  18
ATOM     18  O   UNL     1     -16.018  16.783 -49.931  0.00  0.00    +0.000 OA
BRANCH  18  19
ATOM     19  C   UNL     1     -15.064  15.723 -49.836  0.00  0.00    +0.000 C 
BRANCH  19  22
ATOM     20 CL   UNL     1     -13.368  16.750 -52.269  0.00  0.00    +0.000 Cl
ATOM     21 CL   UNL     1      -9.613  18.035 -48.664  0.00  0.00    +0.000 Cl
ATOM     22  C   UNL     1     -13.697  16.311 -49.583  0.00  0.00    +0.000 A 
ATOM     23  C   UNL     1     -12.872  16.789 -50.614  0.00  0.00    +0.000 A 
ATOM     24  C   UNL     1     -13.238  16.408 -48.257  0.00  0.00    +0.000 A 
ATOM     25  C   UNL     1     -11.609  17.319 -50.332  0.00  0.00    +0.000 A 
ATOM     26  C   UNL     1     -11.979  16.941 -47.974  0.00  0.00    +0.000 A 
ATOM     27  C   UNL     1     -11.168  17.388 -49.013  0.00  0.00    +0.000 A 
ENDBRANCH  19  22
ENDBRANCH  18  19
ENDBRANCH  16  18
ENDBRANCH   4  17
TORSDOF 5
ENDMDL
MODEL 5
REMARK VINA RESULT:      -5.0      1.784      2.241
REMARK  Name = 5880691
REMARK  5 active torsions:
REMARK  status: ('A' for Active; 'I' for Inactive)
REMARK    1  A    between atoms: O_5  and  N_8
REMARK    2  A    between atoms: O_5  and  C_21
REMARK    3  A    between atoms: C_9  and  C_14
REMARK    4  A    between atoms: C_10  and  C_12
REMARK    5  A    between atoms: C_20  and  C_21
REMARK                            x       y       z     vdW  Elec       q    Type
REMARK                         _______ _______ _______ _____ _____    ______ ____
ROOT
ATOM      1  S   UNL     1     -17.401   7.746 -33.680  0.00  0.00    +0.000 S 
ATOM      2  N   UNL     1     -15.001   7.040 -34.269  0.00  0.00    +0.000 N 
ATOM      3  N   UNL     1     -15.842   5.587 -32.796  0.00  0.00    +0.000 NA
ATOM      4  C   UNL     1     -14.004   6.116 -34.084  0.00  0.00    +0.000 A 
ATOM      5  C   UNL     1     -14.540   5.243 -33.132  0.00  0.00    +0.000 A 
ATOM      6  C   UNL     1     -16.054   6.665 -33.491  0.00  0.00    +0.000 A 
ATOM      7  C   UNL     1     -15.214   8.170 -35.033  0.00  0.00    +0.000 A 
ATOM      8  C   UNL     1     -16.442   8.678 -34.842  0.00  0.00    +0.000 A 
ENDROOT
BRANCH   5  10
ATOM      9 CL   UNL     1     -11.782   0.597 -30.559  0.00  0.00    +0.000 Cl
ATOM     10  C   UNL     1     -13.878   4.096 -32.522  0.00  0.00    +0.000 A 
ATOM     11  C   UNL     1     -12.824   4.308 -31.620  0.00  0.00    +0.000 A 
ATOM     12  C   UNL     1     -14.235   2.777 -32.841  0.00  0.00    +0.000 A 
ATOM     13  C   UNL     1     -12.173   3.228 -31.015  0.00  0.00    +0.000 A 
ATOM     14  C   UNL     1     -13.594   1.697 -32.227  0.00  0.00    +0.000 A 
ATOM     15  C   UNL     1     -12.569   1.927 -31.313  0.00  0.00    +0.000 A 
ENDBRANCH   5  10
BRANCH   4  17
ATOM     16  N   UNL     1     -12.632   5.629 -35.961  0.00  0.00    +0.000 NA
ATOM     17  C   UNL     1     -12.739   6.086 -34.755  0.00  0.00    +0.000 C 
BRANCH  16  18
ATOM     18  O   UNL     1     -11.295   5.778 -36.376  0.00  0.00    +0.000 OA
BRANCH  18  19
ATOM     19  C   UNL     1     -10.938   4.657 -37.187  0.00  0.00    +0.000 C 
BRANCH  19  22
ATOM     20 CL   UNL     1     -11.185   2.620 -34.812  0.00  0.00    +0.000 Cl
ATOM     21 CL   UNL     1      -5.844   2.216 -35.060  0.00  0.00    +0.000 Cl
ATOM     22  C   UNL     1      -9.687   4.024 -36.630  0.00  0.00    +0.000 A 
ATOM     23  C   UNL     1      -9.708   3.106 -35.567  0.00  0.00    +0.000 A 
ATOM     24  C   UNL     1      -8.448   4.344 -37.215  0.00  0.00    +0.000 A 
ATOM     25  C   UNL     1      -8.521   2.550 -35.078  0.00  0.00    +0.000 A 
ATOM     26  C   UNL     1      -7.264   3.786 -36.731  0.00  0.00    +0.000 A 
ATOM     27  C   UNL     1      -7.305   2.896 -35.661  0.00  0.00    +0.000 A 
ENDBRANCH  19  22
ENDBRANCH  18  19
ENDBRANCH  16  18
ENDBRANCH   4  17
TORSDOF 5
ENDMDL
MODEL 6
REMARK VINA RESULT:      -5.0     22.403     26.030
REMARK  Name = 5880691
REMARK  5 active torsions:
REMARK  status: ('A' for Active; 'I' for Inactive)
REMARK    1  A    between atoms: O_5  and  N_8
REMARK    2  A    between atoms: O_5  and  C_21
REMARK    3  A    between atoms: C_9  and  C_14
REMARK    4  A    between atoms: C_10  and  C_12
REMARK    5  A    between atoms: C_20  and  C_21
REMARK                            x       y       z     vdW  Elec       q    Type
REMARK                         _______ _______ _______ _____ _____    ______ ____
ROOT
ATOM      1  S   UNL     1      -8.523  -2.717 -63.485  0.00  0.00    +0.000 S 
ATOM      2  N   UNL     1      -7.591  -2.111 -61.168  0.00  0.00    +0.000 N 
ATOM      3  N   UNL     1      -7.710  -0.256 -62.407  0.00  0.00    +0.000 NA
ATOM      4  C   UNL     1      -7.154  -1.109 -60.338  0.00  0.00    +0.000 A 
ATOM      5  C   UNL     1      -7.201   0.030 -61.148  0.00  0.00    +0.000 A 
ATOM      6  C   UNL     1      -7.910  -1.541 -62.363  0.00  0.00    +0.000 A 
ATOM      7  C   UNL     1      -7.818  -3.471 -61.092  0.00  0.00    +0.000 A 
ATOM      8  C   UNL     1      -8.313  -3.959 -62.241  0.00  0.00    +0.000 A 
ENDROOT
BRANCH   5  10
ATOM      9 CL   UNL     1      -5.592   5.609 -59.701  0.00  0.00    +0.000 Cl
ATOM     10  C   UNL     1      -6.787   1.380 -60.788  0.00  0.00    +0.000 A 
ATOM     11  C   UNL     1      -7.492   2.478 -61.305  0.00  0.00    +0.000 A 
ATOM     12  C   UNL     1      -5.675   1.622 -59.967  0.00  0.00    +0.000 A 
ATOM     13  C   UNL     1      -7.122   3.786 -60.974  0.00  0.00    +0.000 A 
ATOM     14  C   UNL     1      -5.312   2.928 -59.624  0.00  0.00    +0.000 A 
ATOM     15  C   UNL     1      -6.040   4.004 -60.125  0.00  0.00    +0.000 A 
ENDBRANCH   5  10
BRANCH   4  17
ATOM     16  N   UNL     1      -5.745  -1.955 -58.624  0.00  0.00    +0.000 NA
ATOM     17  C   UNL     1      -6.775  -1.250 -58.965  0.00  0.00    +0.000 C 
BRANCH  16  18
ATOM     18  O   UNL     1      -5.585  -1.863 -57.227  0.00  0.00    +0.000 OA
BRANCH  18  19
ATOM     19  C   UNL     1      -6.122  -0.616 -56.785  0.00  0.00    +0.000 C 
BRANCH  19  22
ATOM     20 CL   UNL     1      -5.148   1.564 -54.747  0.00  0.00    +0.000 Cl
ATOM     21 CL   UNL     1      -7.787  -1.244 -51.017  0.00  0.00    +0.000 Cl
ATOM     22  C   UNL     1      -6.520  -0.736 -55.334  0.00  0.00    +0.000 A 
ATOM     23  C   UNL     1      -6.125   0.192 -54.357  0.00  0.00    +0.000 A 
ATOM     24  C   UNL     1      -7.344  -1.809 -54.946  0.00  0.00    +0.000 A 
ATOM     25  C   UNL     1      -6.512   0.035 -53.023  0.00  0.00    +0.000 A 
ATOM     26  C   UNL     1      -7.735  -1.964 -53.615  0.00  0.00    +0.000 A 
ATOM     27  C   UNL     1      -7.313  -1.045 -52.658  0.00  0.00    +0.000 A 
ENDBRANCH  19  22
ENDBRANCH  18  19
ENDBRANCH  16  18
ENDBRANCH   4  17
TORSDOF 5
ENDMDL
MODEL 7
REMARK VINA RESULT:      -4.9     21.163     23.428
REMARK  Name = 5880691
REMARK  5 active torsions:
REMARK  status: ('A' for Active; 'I' for Inactive)
REMARK    1  A    between atoms: O_5  and  N_8
REMARK    2  A    between atoms: O_5  and  C_21
REMARK    3  A    between atoms: C_9  and  C_14
REMARK    4  A    between atoms: C_10  and  C_12
REMARK    5  A    between atoms: C_20  and  C_21
REMARK                            x       y       z     vdW  Elec       q    Type
REMARK                         _______ _______ _______ _____ _____    ______ ____
ROOT
ATOM      1  S   UNL     1     -25.584  -4.762 -54.234  0.00  0.00    +0.000 S 
ATOM      2  N   UNL     1     -24.917  -2.800 -52.712  0.00  0.00    +0.000 N 
ATOM      3  N   UNL     1     -25.413  -2.006 -54.740  0.00  0.00    +0.000 NA
ATOM      4  C   UNL     1     -24.761  -1.442 -52.602  0.00  0.00    +0.000 A 
ATOM      5  C   UNL     1     -25.038  -0.975 -53.890  0.00  0.00    +0.000 A 
ATOM      6  C   UNL     1     -25.310  -3.064 -53.990  0.00  0.00    +0.000 A 
ATOM      7  C   UNL     1     -24.823  -3.907 -51.892  0.00  0.00    +0.000 A 
ATOM      8  C   UNL     1     -25.143  -5.038 -52.541  0.00  0.00    +0.000 A 
ENDROOT
BRANCH   5  10
ATOM      9 CL   UNL     1     -24.696   4.652 -55.897  0.00  0.00    +0.000 Cl
ATOM     10  C   UNL     1     -24.966   0.404 -54.358  0.00  0.00    +0.000 A 
ATOM     11  C   UNL     1     -24.094   0.729 -55.409  0.00  0.00    +0.000 A 
ATOM     12  C   UNL     1     -25.715   1.430 -53.763  0.00  0.00    +0.000 A 
ATOM     13  C   UNL     1     -24.007   2.042 -55.884  0.00  0.00    +0.000 A 
ATOM     14  C   UNL     1     -25.638   2.740 -54.245  0.00  0.00    +0.000 A 
ATOM     15  C   UNL     1     -24.788   3.040 -55.306  0.00  0.00    +0.000 A 
ENDBRANCH   5  10
BRANCH   4  17
ATOM     16  N   UNL     1     -23.219  -0.267 -51.230  0.00  0.00    +0.000 NA
ATOM     17  C   UNL     1     -24.416  -0.721 -51.414  0.00  0.00    +0.000 C 
BRANCH  16  18
ATOM     18  O   UNL     1     -23.194   0.443 -50.013  0.00  0.00    +0.000 OA
BRANCH  18  19
ATOM     19  C   UNL     1     -24.485   0.361 -49.407  0.00  0.00    +0.000 C 
BRANCH  19  22
ATOM     20 CL   UNL     1     -25.371   0.950 -46.454  0.00  0.00    +0.000 Cl
ATOM     21 CL   UNL     1     -26.319   5.963 -48.106  0.00  0.00    +0.000 Cl
ATOM     22  C   UNL     1     -24.947   1.751 -49.042  0.00  0.00    +0.000 A 
ATOM     23  C   UNL     1     -25.364   2.098 -47.746  0.00  0.00    +0.000 A 
ATOM     24  C   UNL     1     -24.936   2.749 -50.033  0.00  0.00    +0.000 A 
ATOM     25  C   UNL     1     -25.791   3.398 -47.457  0.00  0.00    +0.000 A 
ATOM     26  C   UNL     1     -25.359   4.048 -49.744  0.00  0.00    +0.000 A 
ATOM     27  C   UNL     1     -25.789   4.365 -48.458  0.00  0.00    +0.000 A 
ENDBRANCH  19  22
ENDBRANCH  18  19
ENDBRANCH  16  18
ENDBRANCH   4  17
TORSDOF 5
ENDMDL
MODEL 8
REMARK VINA RESULT:      -4.9     23.574     25.944
REMARK  Name = 5880691
REMARK  5 active torsions:
REMARK  status: ('A' for Active; 'I' for Inactive)
REMARK    1  A    between atoms: O_5  and  N_8
REMARK    2  A    between atoms: O_5  and  C_21
REMARK    3  A    between atoms: C_9  and  C_14
REMARK    4  A    between atoms: C_10  and  C_12
REMARK    5  A    between atoms: C_20  and  C_21
REMARK                            x       y       z     vdW  Elec       q    Type
REMARK                         _______ _______ _______ _____ _____    ______ ____
ROOT
ATOM      1  S   UNL     1     -22.979  14.025 -58.361  0.00  0.00    +0.000 S 
ATOM      2  N   UNL     1     -21.501  11.923 -58.318  0.00  0.00    +0.000 N 
ATOM      3  N   UNL     1     -20.259  13.668 -58.951  0.00  0.00    +0.000 NA
ATOM      4  C   UNL     1     -20.242  11.408 -58.493  0.00  0.00    +0.000 A 
ATOM      5  C   UNL     1     -19.496  12.509 -58.925  0.00  0.00    +0.000 A 
ATOM      6  C   UNL     1     -21.440  13.255 -58.594  0.00  0.00    +0.000 A 
ATOM      7  C   UNL     1     -22.741  11.468 -57.916  0.00  0.00    +0.000 A 
ATOM      8  C   UNL     1     -23.649  12.457 -57.883  0.00  0.00    +0.000 A 
ENDROOT
BRANCH   5  10
ATOM      9 CL   UNL     1     -13.704  12.543 -60.429  0.00  0.00    +0.000 Cl
ATOM     10  C   UNL     1     -18.091  12.518 -59.316  0.00  0.00    +0.000 A 
ATOM     11  C   UNL     1     -17.111  12.809 -58.354  0.00  0.00    +0.000 A 
ATOM     12  C   UNL     1     -17.687  12.285 -60.639  0.00  0.00    +0.000 A 
ATOM     13  C   UNL     1     -15.755  12.820 -58.697  0.00  0.00    +0.000 A 
ATOM     14  C   UNL     1     -16.331  12.283 -60.980  0.00  0.00    +0.000 A 
ATOM     15  C   UNL     1     -15.371  12.546 -60.007  0.00  0.00    +0.000 A 
ENDBRANCH   5  10
BRANCH   4  17
ATOM     16  N   UNL     1     -19.003   9.768 -57.304  0.00  0.00    +0.000 NA
ATOM     17  C   UNL     1     -19.836  10.057 -58.251  0.00  0.00    +0.000 C 
BRANCH  16  18
ATOM     18  O   UNL     1     -18.839   8.369 -57.267  0.00  0.00    +0.000 OA
BRANCH  18  19
ATOM     19  C   UNL     1     -19.062   7.916 -55.930  0.00  0.00    +0.000 C 
BRANCH  19  22
ATOM     20 CL   UNL     1     -21.983   8.828 -55.232  0.00  0.00    +0.000 Cl
ATOM     21 CL   UNL     1     -23.389   3.708 -55.981  0.00  0.00    +0.000 Cl
ATOM     22  C   UNL     1     -20.172   6.893 -55.935  0.00  0.00    +0.000 A 
ATOM     23  C   UNL     1     -21.505   7.216 -55.631  0.00  0.00    +0.000 A 
ATOM     24  C   UNL     1     -19.866   5.565 -56.284  0.00  0.00    +0.000 A 
ATOM     25  C   UNL     1     -22.499   6.232 -55.642  0.00  0.00    +0.000 A 
ATOM     26  C   UNL     1     -20.859   4.583 -56.299  0.00  0.00    +0.000 A 
ATOM     27  C   UNL     1     -22.169   4.921 -55.972  0.00  0.00    +0.000 A 
ENDBRANCH  19  22
ENDBRANCH  18  19
ENDBRANCH  16  18
ENDBRANCH   4  17
TORSDOF 5
ENDMDL
MODEL 9
REMARK VINA RESULT:      -4.9      8.938     11.007
REMARK  Name = 5880691
REMARK  5 active torsions:
REMARK  status: ('A' for Active; 'I' for Inactive)
REMARK    1  A    between atoms: O_5  and  N_8
REMARK    2  A    between atoms: O_5  and  C_21
REMARK    3  A    between atoms: C_9  and  C_14
REMARK    4  A    between atoms: C_10  and  C_12
REMARK    5  A    between atoms: C_20  and  C_21
REMARK                            x       y       z     vdW  Elec       q    Type
REMARK                         _______ _______ _______ _____ _____    ______ ____
ROOT
ATOM      1  S   UNL     1      -5.213   5.687 -25.086  0.00  0.00    +0.000 S 
ATOM      2  N   UNL     1      -6.410   7.424 -26.554  0.00  0.00    +0.000 N 
ATOM      3  N   UNL     1      -4.278   8.038 -26.299  0.00  0.00    +0.000 NA
ATOM      4  C   UNL     1      -6.289   8.576 -27.289  0.00  0.00    +0.000 A 
ATOM      5  C   UNL     1      -4.961   8.959 -27.081  0.00  0.00    +0.000 A 
ATOM      6  C   UNL     1      -5.190   7.159 -26.008  0.00  0.00    +0.000 A 
ATOM      7  C   UNL     1      -7.388   6.490 -26.276  0.00  0.00    +0.000 A 
ATOM      8  C   UNL     1      -6.923   5.495 -25.503  0.00  0.00    +0.000 A 
ENDROOT
BRANCH   5  10
ATOM      9 CL   UNL     1      -2.266  13.840 -29.255  0.00  0.00    +0.000 Cl
ATOM     10  C   UNL     1      -4.304  10.158 -27.587  0.00  0.00    +0.000 A 
ATOM     11  C   UNL     1      -3.706  10.132 -28.857  0.00  0.00    +0.000 A 
ATOM     12  C   UNL     1      -4.213  11.333 -26.826  0.00  0.00    +0.000 A 
ATOM     13  C   UNL     1      -3.073  11.267 -29.373  0.00  0.00    +0.000 A 
ATOM     14  C   UNL     1      -3.592  12.473 -27.345  0.00  0.00    +0.000 A 
ATOM     15  C   UNL     1      -3.029  12.437 -28.618  0.00  0.00    +0.000 A 
ENDBRANCH   5  10
BRANCH   4  17
ATOM     16  N   UNL     1      -7.267   9.145 -29.377  0.00  0.00    +0.000 NA
ATOM     17  C   UNL     1      -7.311   9.186 -28.085  0.00  0.00    +0.000 C 
BRANCH  16  18
ATOM     18  O   UNL     1      -8.424   9.770 -29.882  0.00  0.00    +0.000 OA
BRANCH  18  19
ATOM     19  C   UNL     1      -8.746   9.188 -31.147  0.00  0.00    +0.000 C 
BRANCH  19  22
ATOM     20 CL   UNL     1      -9.298   8.465 -34.151  0.00  0.00    +0.000 Cl
ATOM     21 CL   UNL     1     -10.388  13.669 -34.843  0.00  0.00    +0.000 Cl
ATOM     22  C   UNL     1      -9.161  10.281 -32.101  0.00  0.00    +0.000 A 
ATOM     23  C   UNL     1      -9.424  10.044 -33.460  0.00  0.00    +0.000 A 
ATOM     24  C   UNL     1      -9.319  11.588 -31.605  0.00  0.00    +0.000 A 
ATOM     25  C   UNL     1      -9.800  11.090 -34.309  0.00  0.00    +0.000 A 
ATOM     26  C   UNL     1      -9.698  12.632 -32.451  0.00  0.00    +0.000 A 
ATOM     27  C   UNL     1      -9.931  12.379 -33.800  0.00  0.00    +0.000 A 
ENDBRANCH  19  22
ENDBRANCH  18  19
ENDBRANCH  16  18
ENDBRANCH   4  17
TORSDOF 5
ENDMDL
MODEL 10
REMARK VINA RESULT:      -4.9     12.667     15.475
REMARK  Name = 5880691
REMARK  5 active torsions:
REMARK  status: ('A' for Active; 'I' for Inactive)
REMARK    1  A    between atoms: O_5  and  N_8
REMARK    2  A    between atoms: O_5  and  C_21
REMARK    3  A    between atoms: C_9  and  C_14
REMARK    4  A    between atoms: C_10  and  C_12
REMARK    5  A    between atoms: C_20  and  C_21
REMARK                            x       y       z     vdW  Elec       q    Type
REMARK                         _______ _______ _______ _____ _____    ______ ____
ROOT
ATOM      1  S   UNL     1       4.430   7.654 -43.823  0.00  0.00    +0.000 S 
ATOM      2  N   UNL     1       2.406   9.100 -43.176  0.00  0.00    +0.000 N 
ATOM      3  N   UNL     1       2.197   7.093 -42.218  0.00  0.00    +0.000 NA
ATOM      4  C   UNL     1       1.241   9.177 -42.454  0.00  0.00    +0.000 A 
ATOM      5  C   UNL     1       1.115   7.900 -41.899  0.00  0.00    +0.000 A 
ATOM      6  C   UNL     1       2.921   7.853 -42.986  0.00  0.00    +0.000 A 
ATOM      7  C   UNL     1       3.170   9.931 -43.970  0.00  0.00    +0.000 A 
ATOM      8  C   UNL     1       4.286   9.322 -44.402  0.00  0.00    +0.000 A 
ENDROOT
BRANCH   5  10
ATOM      9 CL   UNL     1      -3.335   5.885 -38.443  0.00  0.00    +0.000 Cl
ATOM     10  C   UNL     1       0.017   7.406 -41.077  0.00  0.00    +0.000 A 
ATOM     11  C   UNL     1       0.267   7.029 -39.749  0.00  0.00    +0.000 A 
ATOM     12  C   UNL     1      -1.282   7.255 -41.586  0.00  0.00    +0.000 A 
ATOM     13  C   UNL     1      -0.767   6.556 -38.934  0.00  0.00    +0.000 A 
ATOM     14  C   UNL     1      -2.319   6.794 -40.769  0.00  0.00    +0.000 A 
ATOM     15  C   UNL     1      -2.058   6.451 -39.446  0.00  0.00    +0.000 A 
ENDBRANCH   5  10
BRANCH   4  17
ATOM     16  N   UNL     1      -0.597  10.529 -43.113  0.00  0.00    +0.000 NA
ATOM     17  C   UNL     1       0.403  10.330 -42.317  0.00  0.00    +0.000 C 
BRANCH  16  18
ATOM     18  O   UNL     1      -1.266  11.699 -42.704  0.00  0.00    +0.000 OA
BRANCH  18  19
ATOM     19  C   UNL     1      -2.241  11.351 -41.719  0.00  0.00    +0.000 C 
BRANCH  19  22
ATOM     20 CL   UNL     1      -4.855  12.085 -43.294  0.00  0.00    +0.000 Cl
ATOM     21 CL   UNL     1      -5.203  16.337 -40.045  0.00  0.00    +0.000 Cl
ATOM     22  C   UNL     1      -3.011  12.588 -41.328  0.00  0.00    +0.000 A 
ATOM     23  C   UNL     1      -4.187  12.991 -41.982  0.00  0.00    +0.000 A 
ATOM     24  C   UNL     1      -2.548  13.359 -40.246  0.00  0.00    +0.000 A 
ATOM     25  C   UNL     1      -4.863  14.150 -41.589  0.00  0.00    +0.000 A 
ATOM     26  C   UNL     1      -3.225  14.515 -39.851  0.00  0.00    +0.000 A 
ATOM     27  C   UNL     1      -4.376  14.907 -40.528  0.00  0.00    +0.000 A 
ENDBRANCH  19  22
ENDBRANCH  18  19
ENDBRANCH  16  18
ENDBRANCH   4  17
TORSDOF 5
ENDMDL
