MODEL 1
REMARK VINA RESULT:      -5.6      0.000      0.000
REMARK  Name = 5901311
REMARK  6 active torsions:
REMARK  status: ('A' for Active; 'I' for Inactive)
REMARK    1  A    between atoms: O_4  and  N_7
REMARK    2  A    between atoms: O_4  and  C_22
REMARK    3  A    between atoms: C_8  and  C_10
REMARK    4  A    between atoms: C_9  and  C_15
REMARK    5  A    between atoms: C_16  and  C_20
REMARK    6  A    between atoms: C_21  and  C_22
REMARK                            x       y       z     vdW  Elec       q    Type
REMARK                         _______ _______ _______ _____ _____    ______ ____
ROOT
ATOM      1  S   UNL     1     -16.273   4.087  25.120  0.00  0.00    +0.000 S 
ATOM      2  N   UNL     1     -16.575   5.152  22.805  0.00  0.00    +0.000 N 
ATOM      3  N   UNL     1     -14.495   5.556  23.512  0.00  0.00    +0.000 NA
ATOM      4  C   UNL     1     -14.710   6.141  22.272  0.00  0.00    +0.000 A 
ATOM      5  C   UNL     1     -15.989   5.854  21.785  0.00  0.00    +0.000 A 
ATOM      6  C   UNL     1     -15.640   4.995  23.782  0.00  0.00    +0.000 A 
ATOM      7  C   UNL     1     -17.800   4.575  23.066  0.00  0.00    +0.000 A 
ATOM      8  C   UNL     1     -17.818   3.967  24.264  0.00  0.00    +0.000 A 
ENDROOT
BRANCH   4   9
ATOM      9  C   UNL     1     -13.703   6.976  21.629  0.00  0.00    +0.000 A 
ATOM     10  C   UNL     1     -12.599   6.384  21.005  0.00  0.00    +0.000 A 
ATOM     11  C   UNL     1     -13.775   8.377  21.664  0.00  0.00    +0.000 A 
ATOM     12  C   UNL     1     -11.717   8.567  20.398  0.00  0.00    +0.000 A 
ATOM     13  C   UNL     1     -11.611   7.171  20.400  0.00  0.00    +0.000 A 
ATOM     14  C   UNL     1     -12.803   9.163  21.044  0.00  0.00    +0.000 A 
ATOM     15  C   UNL     1     -10.645   9.425  19.794  0.00  0.00    +0.000 C 
ENDBRANCH   4   9
BRANCH   5  17
ATOM     16  N   UNL     1     -16.622   5.332  19.569  0.00  0.00    +0.000 NA
ATOM     17  C   UNL     1     -16.606   6.188  20.536  0.00  0.00    +0.000 C 
BRANCH  16  18
ATOM     18  O   UNL     1     -17.342   5.878  18.493  0.00  0.00    +0.000 OA
BRANCH  18  19
ATOM     19  C   UNL     1     -17.059   7.281  18.416  0.00  0.00    +0.000 C 
BRANCH  19  22
ATOM     20 CL   UNL     1     -17.420   6.794  15.390  0.00  0.00    +0.000 Cl
ATOM     21 CL   UNL     1     -12.447   8.701  14.781  0.00  0.00    +0.000 Cl
ATOM     22  C   UNL     1     -15.875   7.570  17.518  0.00  0.00    +0.000 A 
ATOM     23  C   UNL     1     -15.979   7.407  16.124  0.00  0.00    +0.000 A 
ATOM     24  C   UNL     1     -14.655   8.029  18.042  0.00  0.00    +0.000 A 
ATOM     25  C   UNL     1     -14.918   7.742  15.279  0.00  0.00    +0.000 A 
ATOM     26  C   UNL     1     -13.592   8.363  17.198  0.00  0.00    +0.000 A 
ATOM     27  C   UNL     1     -13.735   8.234  15.820  0.00  0.00    +0.000 A 
ENDBRANCH  19  22
ENDBRANCH  18  19
ENDBRANCH  16  18
ENDBRANCH   5  17
TORSDOF 5
ENDMDL
MODEL 2
REMARK VINA RESULT:      -5.2     36.272     37.592
REMARK  Name = 5901311
REMARK  6 active torsions:
REMARK  status: ('A' for Active; 'I' for Inactive)
REMARK    1  A    between atoms: O_4  and  N_7
REMARK    2  A    between atoms: O_4  and  C_22
REMARK    3  A    between atoms: C_8  and  C_10
REMARK    4  A    between atoms: C_9  and  C_15
REMARK    5  A    between atoms: C_16  and  C_20
REMARK    6  A    between atoms: C_21  and  C_22
REMARK                            x       y       z     vdW  Elec       q    Type
REMARK                         _______ _______ _______ _____ _____    ______ ____
ROOT
ATOM      1  S   UNL     1       4.233 -19.071   6.932  0.00  0.00    +0.000 S 
ATOM      2  N   UNL     1       4.736 -19.467   4.447  0.00  0.00    +0.000 N 
ATOM      3  N   UNL     1       4.261 -17.306   4.744  0.00  0.00    +0.000 NA
ATOM      4  C   UNL     1       4.512 -17.570   3.405  0.00  0.00    +0.000 A 
ATOM      5  C   UNL     1       4.867 -18.907   3.204  0.00  0.00    +0.000 A 
ATOM      6  C   UNL     1       4.396 -18.472   5.310  0.00  0.00    +0.000 A 
ATOM      7  C   UNL     1       4.880 -20.715   5.016  0.00  0.00    +0.000 A 
ATOM      8  C   UNL     1       4.642 -20.688   6.339  0.00  0.00    +0.000 A 
ENDROOT
BRANCH   4   9
ATOM      9  C   UNL     1       4.366 -16.546   2.376  0.00  0.00    +0.000 A 
ATOM     10  C   UNL     1       3.131 -15.915   2.191  0.00  0.00    +0.000 A 
ATOM     11  C   UNL     1       5.422 -16.209   1.517  0.00  0.00    +0.000 A 
ATOM     12  C   UNL     1       4.040 -14.579   0.373  0.00  0.00    +0.000 A 
ATOM     13  C   UNL     1       2.966 -14.944   1.194  0.00  0.00    +0.000 A 
ATOM     14  C   UNL     1       5.266 -15.227   0.537  0.00  0.00    +0.000 A 
ATOM     15  C   UNL     1       3.868 -13.575  -0.728  0.00  0.00    +0.000 C 
ENDBRANCH   4   9
BRANCH   5  17
ATOM     16  N   UNL     1       4.479 -19.647   0.994  0.00  0.00    +0.000 NA
ATOM     17  C   UNL     1       5.270 -19.594   2.013  0.00  0.00    +0.000 C 
BRANCH  16  18
ATOM     18  O   UNL     1       5.137 -20.311  -0.056  0.00  0.00    +0.000 OA
BRANCH  18  19
ATOM     19  C   UNL     1       5.502 -19.347  -1.051  0.00  0.00    +0.000 C 
BRANCH  19  22
ATOM     20 CL   UNL     1       6.787 -20.616  -3.554  0.00  0.00    +0.000 Cl
ATOM     21 CL   UNL     1      11.454 -18.638  -1.807  0.00  0.00    +0.000 Cl
ATOM     22  C   UNL     1       7.004 -19.229  -1.200  0.00  0.00    +0.000 A 
ATOM     23  C   UNL     1       7.654 -19.751  -2.333  0.00  0.00    +0.000 A 
ATOM     24  C   UNL     1       7.785 -18.579  -0.228  0.00  0.00    +0.000 A 
ATOM     25  C   UNL     1       9.029 -19.581  -2.516  0.00  0.00    +0.000 A 
ATOM     26  C   UNL     1       9.160 -18.410  -0.409  0.00  0.00    +0.000 A 
ATOM     27  C   UNL     1       9.772 -18.897  -1.560  0.00  0.00    +0.000 A 
ENDBRANCH  19  22
ENDBRANCH  18  19
ENDBRANCH  16  18
ENDBRANCH   5  17
TORSDOF 5
ENDMDL
MODEL 3
REMARK VINA RESULT:      -5.0     36.204     37.725
REMARK  Name = 5901311
REMARK  6 active torsions:
REMARK  status: ('A' for Active; 'I' for Inactive)
REMARK    1  A    between atoms: O_4  and  N_7
REMARK    2  A    between atoms: O_4  and  C_22
REMARK    3  A    between atoms: C_8  and  C_10
REMARK    4  A    between atoms: C_9  and  C_15
REMARK    5  A    between atoms: C_16  and  C_20
REMARK    6  A    between atoms: C_21  and  C_22
REMARK                            x       y       z     vdW  Elec       q    Type
REMARK                         _______ _______ _______ _____ _____    ______ ____
ROOT
ATOM      1  S   UNL     1       9.068 -21.112  -2.112  0.00  0.00    +0.000 S 
ATOM      2  N   UNL     1       7.148 -20.662  -0.469  0.00  0.00    +0.000 N 
ATOM      3  N   UNL     1       7.409 -18.868  -1.772  0.00  0.00    +0.000 NA
ATOM      4  C   UNL     1       6.396 -18.656  -0.848  0.00  0.00    +0.000 A 
ATOM      5  C   UNL     1       6.178 -19.788  -0.057  0.00  0.00    +0.000 A 
ATOM      6  C   UNL     1       7.826 -20.070  -1.490  0.00  0.00    +0.000 A 
ATOM      7  C   UNL     1       7.571 -21.934  -0.143  0.00  0.00    +0.000 A 
ATOM      8  C   UNL     1       8.595 -22.331  -0.918  0.00  0.00    +0.000 A 
ENDROOT
BRANCH   4   9
ATOM      9  C   UNL     1       5.710 -17.373  -0.736  0.00  0.00    +0.000 A 
ATOM     10  C   UNL     1       4.923 -16.907  -1.795  0.00  0.00    +0.000 A 
ATOM     11  C   UNL     1       5.863 -16.552   0.391  0.00  0.00    +0.000 A 
ATOM     12  C   UNL     1       4.393 -14.878  -0.564  0.00  0.00    +0.000 A 
ATOM     13  C   UNL     1       4.274 -15.668  -1.713  0.00  0.00    +0.000 A 
ATOM     14  C   UNL     1       5.201 -15.327   0.484  0.00  0.00    +0.000 A 
ATOM     15  C   UNL     1       3.742 -13.530  -0.479  0.00  0.00    +0.000 C 
ENDBRANCH   4   9
BRANCH   5  17
ATOM     16  N   UNL     1       5.313 -19.478   2.120  0.00  0.00    +0.000 NA
ATOM     17  C   UNL     1       5.202 -20.038   0.961  0.00  0.00    +0.000 C 
BRANCH  16  18
ATOM     18  O   UNL     1       4.199 -19.831   2.901  0.00  0.00    +0.000 OA
BRANCH  18  19
ATOM     19  C   UNL     1       3.026 -19.772   2.080  0.00  0.00    +0.000 C 
BRANCH  19  22
ATOM     20 CL   UNL     1       2.097 -18.931  -0.740  0.00  0.00    +0.000 Cl
ATOM     21 CL   UNL     1       0.772 -14.206   1.420  0.00  0.00    +0.000 Cl
ATOM     22  C   UNL     1       2.529 -18.353   1.905  0.00  0.00    +0.000 A 
ATOM     23  C   UNL     1       2.055 -17.911   0.656  0.00  0.00    +0.000 A 
ATOM     24  C   UNL     1       2.505 -17.449   2.981  0.00  0.00    +0.000 A 
ATOM     25  C   UNL     1       1.525 -16.627   0.501  0.00  0.00    +0.000 A 
ATOM     26  C   UNL     1       1.976 -16.165   2.827  0.00  0.00    +0.000 A 
ATOM     27  C   UNL     1       1.474 -15.766   1.592  0.00  0.00    +0.000 A 
ENDBRANCH  19  22
ENDBRANCH  18  19
ENDBRANCH  16  18
ENDBRANCH   5  17
TORSDOF 5
ENDMDL
MODEL 4
REMARK VINA RESULT:      -5.0     19.558     22.399
REMARK  Name = 5901311
REMARK  6 active torsions:
REMARK  status: ('A' for Active; 'I' for Inactive)
REMARK    1  A    between atoms: O_4  and  N_7
REMARK    2  A    between atoms: O_4  and  C_22
REMARK    3  A    between atoms: C_8  and  C_10
REMARK    4  A    between atoms: C_9  and  C_15
REMARK    5  A    between atoms: C_16  and  C_20
REMARK    6  A    between atoms: C_21  and  C_22
REMARK                            x       y       z     vdW  Elec       q    Type
REMARK                         _______ _______ _______ _____ _____    ______ ____
ROOT
ATOM      1  S   UNL     1       9.657  16.759  23.895  0.00  0.00    +0.000 S 
ATOM      2  N   UNL     1       8.212  15.795  22.007  0.00  0.00    +0.000 N 
ATOM      3  N   UNL     1       6.866  16.621  23.585  0.00  0.00    +0.000 NA
ATOM      4  C   UNL     1       6.123  16.063  22.556  0.00  0.00    +0.000 A 
ATOM      5  C   UNL     1       6.945  15.588  21.529  0.00  0.00    +0.000 A 
ATOM      6  C   UNL     1       8.098  16.421  23.210  0.00  0.00    +0.000 A 
ATOM      7  C   UNL     1       9.504  15.562  21.585  0.00  0.00    +0.000 A 
ATOM      8  C   UNL     1      10.405  16.009  22.477  0.00  0.00    +0.000 A 
ENDROOT
BRANCH   4   9
ATOM      9  C   UNL     1       4.668  15.972  22.615  0.00  0.00    +0.000 A 
ATOM     10  C   UNL     1       3.885  16.736  21.743  0.00  0.00    +0.000 A 
ATOM     11  C   UNL     1       4.018  15.177  23.571  0.00  0.00    +0.000 A 
ATOM     12  C   UNL     1       1.847  15.844  22.725  0.00  0.00    +0.000 A 
ATOM     13  C   UNL     1       2.486  16.678  21.801  0.00  0.00    +0.000 A 
ATOM     14  C   UNL     1       2.625  15.101  23.615  0.00  0.00    +0.000 A 
ATOM     15  C   UNL     1       0.351  15.805  22.829  0.00  0.00    +0.000 C 
ENDBRANCH   4   9
BRANCH   5  17
ATOM     16  N   UNL     1       6.532  15.749  19.208  0.00  0.00    +0.000 NA
ATOM     17  C   UNL     1       6.611  15.007  20.263  0.00  0.00    +0.000 C 
BRANCH  16  18
ATOM     18  O   UNL     1       6.262  14.929  18.098  0.00  0.00    +0.000 OA
BRANCH  18  19
ATOM     19  C   UNL     1       5.425  15.652  17.187  0.00  0.00    +0.000 C 
BRANCH  19  22
ATOM     20 CL   UNL     1       4.260  18.510  17.157  0.00  0.00    +0.000 Cl
ATOM     21 CL   UNL     1      -0.261  16.379  19.097  0.00  0.00    +0.000 Cl
ATOM     22  C   UNL     1       4.026  15.840  17.734  0.00  0.00    +0.000 A 
ATOM     23  C   UNL     1       3.416  17.109  17.718  0.00  0.00    +0.000 A 
ATOM     24  C   UNL     1       3.291  14.758  18.249  0.00  0.00    +0.000 A 
ATOM     25  C   UNL     1       2.098  17.279  18.150  0.00  0.00    +0.000 A 
ATOM     26  C   UNL     1       1.974  14.928  18.683  0.00  0.00    +0.000 A 
ATOM     27  C   UNL     1       1.379  16.184  18.616  0.00  0.00    +0.000 A 
ENDBRANCH  19  22
ENDBRANCH  18  19
ENDBRANCH  16  18
ENDBRANCH   5  17
TORSDOF 5
ENDMDL
MODEL 5
REMARK VINA RESULT:      -5.0      4.623      7.633
REMARK  Name = 5901311
REMARK  6 active torsions:
REMARK  status: ('A' for Active; 'I' for Inactive)
REMARK    1  A    between atoms: O_4  and  N_7
REMARK    2  A    between atoms: O_4  and  C_22
REMARK    3  A    between atoms: C_8  and  C_10
REMARK    4  A    between atoms: C_9  and  C_15
REMARK    5  A    between atoms: C_16  and  C_20
REMARK    6  A    between atoms: C_21  and  C_22
REMARK                            x       y       z     vdW  Elec       q    Type
REMARK                         _______ _______ _______ _____ _____    ______ ____
ROOT
ATOM      1  S   UNL     1     -21.909   2.029  26.701  0.00  0.00    +0.000 S 
ATOM      2  N   UNL     1     -19.581   2.716  25.867  0.00  0.00    +0.000 N 
ATOM      3  N   UNL     1     -19.402   1.996  27.973  0.00  0.00    +0.000 NA
ATOM      4  C   UNL     1     -18.166   2.405  27.492  0.00  0.00    +0.000 A 
ATOM      5  C   UNL     1     -18.245   2.809  26.155  0.00  0.00    +0.000 A 
ATOM      6  C   UNL     1     -20.203   2.216  26.969  0.00  0.00    +0.000 A 
ATOM      7  C   UNL     1     -20.405   2.967  24.790  0.00  0.00    +0.000 A 
ATOM      8  C   UNL     1     -21.685   2.661  25.062  0.00  0.00    +0.000 A 
ENDROOT
BRANCH   4   9
ATOM      9  C   UNL     1     -16.978   2.429  28.338  0.00  0.00    +0.000 A 
ATOM     10  C   UNL     1     -16.457   3.651  28.775  0.00  0.00    +0.000 A 
ATOM     11  C   UNL     1     -16.298   1.252  28.685  0.00  0.00    +0.000 A 
ATOM     12  C   UNL     1     -14.661   2.512  29.953  0.00  0.00    +0.000 A 
ATOM     13  C   UNL     1     -15.304   3.694  29.570  0.00  0.00    +0.000 A 
ATOM     14  C   UNL     1     -15.162   1.291  29.496  0.00  0.00    +0.000 A 
ATOM     15  C   UNL     1     -13.401   2.543  30.766  0.00  0.00    +0.000 C 
ENDBRANCH   4   9
BRANCH   5  17
ATOM     16  N   UNL     1     -16.525   2.364  24.598  0.00  0.00    +0.000 NA
ATOM     17  C   UNL     1     -17.220   3.235  25.250  0.00  0.00    +0.000 C 
BRANCH  16  18
ATOM     18  O   UNL     1     -15.645   3.040  23.735  0.00  0.00    +0.000 OA
BRANCH  18  19
ATOM     19  C   UNL     1     -15.500   4.390  24.195  0.00  0.00    +0.000 C 
BRANCH  19  22
ATOM     20 CL   UNL     1     -16.704   7.156  23.543  0.00  0.00    +0.000 Cl
ATOM     21 CL   UNL     1     -12.426   7.962  20.415  0.00  0.00    +0.000 Cl
ATOM     22  C   UNL     1     -14.764   5.252  23.192  0.00  0.00    +0.000 A 
ATOM     23  C   UNL     1     -15.234   6.540  22.874  0.00  0.00    +0.000 A 
ATOM     24  C   UNL     1     -13.585   4.805  22.571  0.00  0.00    +0.000 A 
ATOM     25  C   UNL     1     -14.521   7.373  22.007  0.00  0.00    +0.000 A 
ATOM     26  C   UNL     1     -12.872   5.636  21.702  0.00  0.00    +0.000 A 
ATOM     27  C   UNL     1     -13.335   6.921  21.439  0.00  0.00    +0.000 A 
ENDBRANCH  19  22
ENDBRANCH  18  19
ENDBRANCH  16  18
ENDBRANCH   5  17
TORSDOF 5
ENDMDL
MODEL 6
REMARK VINA RESULT:      -4.9     30.210     32.837
REMARK  Name = 5901311
REMARK  6 active torsions:
REMARK  status: ('A' for Active; 'I' for Inactive)
REMARK    1  A    between atoms: O_4  and  N_7
REMARK    2  A    between atoms: O_4  and  C_22
REMARK    3  A    between atoms: C_8  and  C_10
REMARK    4  A    between atoms: C_9  and  C_15
REMARK    5  A    between atoms: C_16  and  C_20
REMARK    6  A    between atoms: C_21  and  C_22
REMARK                            x       y       z     vdW  Elec       q    Type
REMARK                         _______ _______ _______ _____ _____    ______ ____
ROOT
ATOM      1  S   UNL     1      11.604  10.007   1.353  0.00  0.00    +0.000 S 
ATOM      2  N   UNL     1      12.083   7.556   1.943  0.00  0.00    +0.000 N 
ATOM      3  N   UNL     1      10.868   8.461   3.583  0.00  0.00    +0.000 NA
ATOM      4  C   UNL     1      11.174   7.140   3.876  0.00  0.00    +0.000 A 
ATOM      5  C   UNL     1      11.888   6.536   2.837  0.00  0.00    +0.000 A 
ATOM      6  C   UNL     1      11.445   8.655   2.430  0.00  0.00    +0.000 A 
ATOM      7  C   UNL     1      12.710   7.732   0.727  0.00  0.00    +0.000 A 
ATOM      8  C   UNL     1      12.560   8.986   0.268  0.00  0.00    +0.000 A 
ENDROOT
BRANCH   4   9
ATOM      9  C   UNL     1      10.805   6.527   5.147  0.00  0.00    +0.000 A 
ATOM     10  C   UNL     1       9.635   5.765   5.242  0.00  0.00    +0.000 A 
ATOM     11  C   UNL     1      11.566   6.726   6.309  0.00  0.00    +0.000 A 
ATOM     12  C   UNL     1      10.047   5.350   7.602  0.00  0.00    +0.000 A 
ATOM     13  C   UNL     1       9.255   5.187   6.460  0.00  0.00    +0.000 A 
ATOM     14  C   UNL     1      11.201   6.133   7.518  0.00  0.00    +0.000 A 
ATOM     15  C   UNL     1       9.630   4.775   8.924  0.00  0.00    +0.000 C 
ENDBRANCH   4   9
BRANCH   5  17
ATOM     16  N   UNL     1      11.678   4.355   1.953  0.00  0.00    +0.000 NA
ATOM     17  C   UNL     1      12.345   5.188   2.682  0.00  0.00    +0.000 C 
BRANCH  16  18
ATOM     18  O   UNL     1      12.372   3.134   1.911  0.00  0.00    +0.000 OA
BRANCH  18  19
ATOM     19  C   UNL     1      13.648   3.352   1.297  0.00  0.00    +0.000 C 
BRANCH  19  22
ATOM     20 CL   UNL     1      15.675   5.243  -0.060  0.00  0.00    +0.000 Cl
ATOM     21 CL   UNL     1      13.376   3.900  -4.713  0.00  0.00    +0.000 Cl
ATOM     22  C   UNL     1      13.530   3.542  -0.200  0.00  0.00    +0.000 A 
ATOM     23  C   UNL     1      14.443   4.360  -0.891  0.00  0.00    +0.000 A 
ATOM     24  C   UNL     1      12.528   2.894  -0.942  0.00  0.00    +0.000 A 
ATOM     25  C   UNL     1      14.388   4.483  -2.283  0.00  0.00    +0.000 A 
ATOM     26  C   UNL     1      12.471   3.017  -2.332  0.00  0.00    +0.000 A 
ATOM     27  C   UNL     1      13.412   3.797  -2.997  0.00  0.00    +0.000 A 
ENDBRANCH  19  22
ENDBRANCH  18  19
ENDBRANCH  16  18
ENDBRANCH   5  17
TORSDOF 5
ENDMDL
MODEL 7
REMARK VINA RESULT:      -4.7     16.138     19.372
REMARK  Name = 5901311
REMARK  6 active torsions:
REMARK  status: ('A' for Active; 'I' for Inactive)
REMARK    1  A    between atoms: O_4  and  N_7
REMARK    2  A    between atoms: O_4  and  C_22
REMARK    3  A    between atoms: C_8  and  C_10
REMARK    4  A    between atoms: C_9  and  C_15
REMARK    5  A    between atoms: C_16  and  C_20
REMARK    6  A    between atoms: C_21  and  C_22
REMARK                            x       y       z     vdW  Elec       q    Type
REMARK                         _______ _______ _______ _____ _____    ______ ____
ROOT
ATOM      1  S   UNL     1      -4.242  16.030  18.262  0.00  0.00    +0.000 S 
ATOM      2  N   UNL     1      -2.970  17.680  19.761  0.00  0.00    +0.000 N 
ATOM      3  N   UNL     1      -1.886  15.729  19.767  0.00  0.00    +0.000 NA
ATOM      4  C   UNL     1      -1.246  16.644  20.590  0.00  0.00    +0.000 A 
ATOM      5  C   UNL     1      -1.877  17.891  20.558  0.00  0.00    +0.000 A 
ATOM      6  C   UNL     1      -2.909  16.396  19.313  0.00  0.00    +0.000 A 
ATOM      7  C   UNL     1      -4.047  18.412  19.302  0.00  0.00    +0.000 A 
ATOM      8  C   UNL     1      -4.834  17.683  18.493  0.00  0.00    +0.000 A 
ENDROOT
BRANCH   4   9
ATOM      9  C   UNL     1      -0.088  16.277  21.397  0.00  0.00    +0.000 A 
ATOM     10  C   UNL     1       1.186  16.734  21.039  0.00  0.00    +0.000 A 
ATOM     11  C   UNL     1      -0.202  15.422  22.503  0.00  0.00    +0.000 A 
ATOM     12  C   UNL     1       2.182  15.560  22.921  0.00  0.00    +0.000 A 
ATOM     13  C   UNL     1       2.312  16.374  21.790  0.00  0.00    +0.000 A 
ATOM     14  C   UNL     1       0.916  15.080  23.266  0.00  0.00    +0.000 A 
ATOM     15  C   UNL     1       3.383  15.129  23.710  0.00  0.00    +0.000 C 
ENDBRANCH   4   9
BRANCH   5  17
ATOM     16  N   UNL     1      -0.592  19.870  20.689  0.00  0.00    +0.000 NA
ATOM     17  C   UNL     1      -1.525  19.128  21.188  0.00  0.00    +0.000 C 
BRANCH  16  18
ATOM     18  O   UNL     1      -0.495  21.048  21.450  0.00  0.00    +0.000 OA
BRANCH  18  19
ATOM     19  C   UNL     1      -0.693  20.720  22.831  0.00  0.00    +0.000 C 
BRANCH  19  22
ATOM     20 CL   UNL     1      -1.013  18.294  24.712  0.00  0.00    +0.000 Cl
ATOM     21 CL   UNL     1       4.332  18.285  25.140  0.00  0.00    +0.000 Cl
ATOM     22  C   UNL     1       0.563  20.158  23.464  0.00  0.00    +0.000 A 
ATOM     23  C   UNL     1       0.497  19.030  24.303  0.00  0.00    +0.000 A 
ATOM     24  C   UNL     1       1.823  20.728  23.216  0.00  0.00    +0.000 A 
ATOM     25  C   UNL     1       1.658  18.459  24.832  0.00  0.00    +0.000 A 
ATOM     26  C   UNL     1       2.984  20.158  23.745  0.00  0.00    +0.000 A 
ATOM     27  C   UNL     1       2.897  19.017  24.536  0.00  0.00    +0.000 A 
ENDBRANCH  19  22
ENDBRANCH  18  19
ENDBRANCH  16  18
ENDBRANCH   5  17
TORSDOF 5
ENDMDL
MODEL 8
REMARK VINA RESULT:      -4.7      2.534      4.719
REMARK  Name = 5901311
REMARK  6 active torsions:
REMARK  status: ('A' for Active; 'I' for Inactive)
REMARK    1  A    between atoms: O_4  and  N_7
REMARK    2  A    between atoms: O_4  and  C_22
REMARK    3  A    between atoms: C_8  and  C_10
REMARK    4  A    between atoms: C_9  and  C_15
REMARK    5  A    between atoms: C_16  and  C_20
REMARK    6  A    between atoms: C_21  and  C_22
REMARK                            x       y       z     vdW  Elec       q    Type
REMARK                         _______ _______ _______ _____ _____    ______ ____
ROOT
ATOM      1  S   UNL     1     -17.893   1.892  24.446  0.00  0.00    +0.000 S 
ATOM      2  N   UNL     1     -16.396   3.758  23.515  0.00  0.00    +0.000 N 
ATOM      3  N   UNL     1     -18.195   3.566  22.207  0.00  0.00    +0.000 NA
ATOM      4  C   UNL     1     -17.343   4.547  21.722  0.00  0.00    +0.000 A 
ATOM      5  C   UNL     1     -16.235   4.723  22.557  0.00  0.00    +0.000 A 
ATOM      6  C   UNL     1     -17.574   3.124  23.264  0.00  0.00    +0.000 A 
ATOM      7  C   UNL     1     -15.711   3.308  24.625  0.00  0.00    +0.000 A 
ATOM      8  C   UNL     1     -16.365   2.308  25.240  0.00  0.00    +0.000 A 
ENDROOT
BRANCH   4   9
ATOM      9  C   UNL     1     -17.604   5.244  20.467  0.00  0.00    +0.000 A 
ATOM     10  C   UNL     1     -18.242   6.489  20.479  0.00  0.00    +0.000 A 
ATOM     11  C   UNL     1     -17.283   4.671  19.227  0.00  0.00    +0.000 A 
ATOM     12  C   UNL     1     -18.151   6.606  18.052  0.00  0.00    +0.000 A 
ATOM     13  C   UNL     1     -18.519   7.162  19.282  0.00  0.00    +0.000 A 
ATOM     14  C   UNL     1     -17.539   5.350  18.034  0.00  0.00    +0.000 A 
ATOM     15  C   UNL     1     -18.481   7.293  16.760  0.00  0.00    +0.000 C 
ENDBRANCH   4   9
BRANCH   5  17
ATOM     16  N   UNL     1     -14.045   5.327  21.908  0.00  0.00    +0.000 NA
ATOM     17  C   UNL     1     -15.153   5.659  22.483  0.00  0.00    +0.000 C 
BRANCH  16  18
ATOM     18  O   UNL     1     -13.184   6.438  21.910  0.00  0.00    +0.000 OA
BRANCH  18  19
ATOM     19  C   UNL     1     -12.307   6.341  20.781  0.00  0.00    +0.000 C 
BRANCH  19  22
ATOM     20 CL   UNL     1     -14.742   7.546  19.316  0.00  0.00    +0.000 Cl
ATOM     21 CL   UNL     1     -11.654  11.805  18.288  0.00  0.00    +0.000 Cl
ATOM     22  C   UNL     1     -12.118   7.678  20.096  0.00  0.00    +0.000 A 
ATOM     23  C   UNL     1     -13.194   8.305  19.441  0.00  0.00    +0.000 A 
ATOM     24  C   UNL     1     -10.877   8.339  20.114  0.00  0.00    +0.000 A 
ATOM     25  C   UNL     1     -13.049   9.572  18.870  0.00  0.00    +0.000 A 
ATOM     26  C   UNL     1     -10.731   9.605  19.543  0.00  0.00    +0.000 A 
ATOM     27  C   UNL     1     -11.822  10.223  18.939  0.00  0.00    +0.000 A 
ENDBRANCH  19  22
ENDBRANCH  18  19
ENDBRANCH  16  18
ENDBRANCH   5  17
TORSDOF 5
ENDMDL
MODEL 9
REMARK VINA RESULT:      -4.7     11.176     12.867
REMARK  Name = 5901311
REMARK  6 active torsions:
REMARK  status: ('A' for Active; 'I' for Inactive)
REMARK    1  A    between atoms: O_4  and  N_7
REMARK    2  A    between atoms: O_4  and  C_22
REMARK    3  A    between atoms: C_8  and  C_10
REMARK    4  A    between atoms: C_9  and  C_15
REMARK    5  A    between atoms: C_16  and  C_20
REMARK    6  A    between atoms: C_21  and  C_22
REMARK                            x       y       z     vdW  Elec       q    Type
REMARK                         _______ _______ _______ _____ _____    ______ ____
ROOT
ATOM      1  S   UNL     1     -19.804   6.147  34.269  0.00  0.00    +0.000 S 
ATOM      2  N   UNL     1     -17.404   6.362  33.386  0.00  0.00    +0.000 N 
ATOM      3  N   UNL     1     -18.140   4.298  32.960  0.00  0.00    +0.000 NA
ATOM      4  C   UNL     1     -16.832   4.448  32.523  0.00  0.00    +0.000 A 
ATOM      5  C   UNL     1     -16.369   5.751  32.730  0.00  0.00    +0.000 A 
ATOM      6  C   UNL     1     -18.421   5.462  33.475  0.00  0.00    +0.000 A 
ATOM      7  C   UNL     1     -17.668   7.602  33.929  0.00  0.00    +0.000 A 
ATOM      8  C   UNL     1     -18.906   7.662  34.450  0.00  0.00    +0.000 A 
ENDROOT
BRANCH   4   9
ATOM      9  C   UNL     1     -16.073   3.334  31.964  0.00  0.00    +0.000 A 
ATOM     10  C   UNL     1     -15.277   2.543  32.801  0.00  0.00    +0.000 A 
ATOM     11  C   UNL     1     -16.069   3.063  30.588  0.00  0.00    +0.000 A 
ATOM     12  C   UNL     1     -14.565   1.189  30.911  0.00  0.00    +0.000 A 
ATOM     13  C   UNL     1     -14.525   1.483  32.278  0.00  0.00    +0.000 A 
ATOM     14  C   UNL     1     -15.337   1.993  30.069  0.00  0.00    +0.000 A 
ATOM     15  C   UNL     1     -13.731   0.086  30.329  0.00  0.00    +0.000 C 
ENDBRANCH   4   9
BRANCH   5  17
ATOM     16  N   UNL     1     -14.122   6.319  33.191  0.00  0.00    +0.000 NA
ATOM     17  C   UNL     1     -15.123   6.363  32.376  0.00  0.00    +0.000 C 
BRANCH  16  18
ATOM     18  O   UNL     1     -13.013   6.926  32.579  0.00  0.00    +0.000 OA
BRANCH  18  19
ATOM     19  C   UNL     1     -13.026   8.325  32.889  0.00  0.00    +0.000 C 
BRANCH  19  22
ATOM     20 CL   UNL     1     -15.481   9.758  31.689  0.00  0.00    +0.000 Cl
ATOM     21 CL   UNL     1     -12.105  11.966  28.157  0.00  0.00    +0.000 Cl
ATOM     22  C   UNL     1     -12.802   9.180  31.660  0.00  0.00    +0.000 A 
ATOM     23  C   UNL     1     -13.868   9.892  31.080  0.00  0.00    +0.000 A 
ATOM     24  C   UNL     1     -11.528   9.304  31.079  0.00  0.00    +0.000 A 
ATOM     25  C   UNL     1     -13.658  10.742  29.991  0.00  0.00    +0.000 A 
ATOM     26  C   UNL     1     -11.317  10.152  29.989  0.00  0.00    +0.000 A 
ATOM     27  C   UNL     1     -12.379  10.880  29.462  0.00  0.00    +0.000 A 
ENDBRANCH  19  22
ENDBRANCH  18  19
ENDBRANCH  16  18
ENDBRANCH   5  17
TORSDOF 5
ENDMDL
MODEL 10
REMARK VINA RESULT:      -4.7     18.460     21.262
REMARK  Name = 5901311
REMARK  6 active torsions:
REMARK  status: ('A' for Active; 'I' for Inactive)
REMARK    1  A    between atoms: O_4  and  N_7
REMARK    2  A    between atoms: O_4  and  C_22
REMARK    3  A    between atoms: C_8  and  C_10
REMARK    4  A    between atoms: C_9  and  C_15
REMARK    5  A    between atoms: C_16  and  C_20
REMARK    6  A    between atoms: C_21  and  C_22
REMARK                            x       y       z     vdW  Elec       q    Type
REMARK                         _______ _______ _______ _____ _____    ______ ____
ROOT
ATOM      1  S   UNL     1       8.087  17.217  16.952  0.00  0.00    +0.000 S 
ATOM      2  N   UNL     1       5.677  16.425  17.340  0.00  0.00    +0.000 N 
ATOM      3  N   UNL     1       6.498  17.186  19.271  0.00  0.00    +0.000 NA
ATOM      4  C   UNL     1       5.203  16.720  19.443  0.00  0.00    +0.000 A 
ATOM      5  C   UNL     1       4.649  16.289  18.234  0.00  0.00    +0.000 A 
ATOM      6  C   UNL     1       6.730  16.973  18.007  0.00  0.00    +0.000 A 
ATOM      7  C   UNL     1       5.894  16.181  16.000  0.00  0.00    +0.000 A 
ATOM      8  C   UNL     1       7.133  16.540  15.623  0.00  0.00    +0.000 A 
ENDROOT
BRANCH   4   9
ATOM      9  C   UNL     1       4.569  16.671  20.756  0.00  0.00    +0.000 A 
ATOM     10  C   UNL     1       3.494  17.519  21.044  0.00  0.00    +0.000 A 
ATOM     11  C   UNL     1       5.045  15.831  21.773  0.00  0.00    +0.000 A 
ATOM     12  C   UNL     1       3.336  16.624  23.299  0.00  0.00    +0.000 A 
ATOM     13  C   UNL     1       2.886  17.501  22.306  0.00  0.00    +0.000 A 
ATOM     14  C   UNL     1       4.427  15.795  23.024  0.00  0.00    +0.000 A 
ATOM     15  C   UNL     1       2.726  16.624  24.669  0.00  0.00    +0.000 C 
ENDBRANCH   4   9
BRANCH   5  17
ATOM     16  N   UNL     1       2.359  16.633  17.762  0.00  0.00    +0.000 NA
ATOM     17  C   UNL     1       3.335  15.804  17.933  0.00  0.00    +0.000 C 
BRANCH  16  18
ATOM     18  O   UNL     1       1.207  15.908  17.412  0.00  0.00    +0.000 OA
BRANCH  18  19
ATOM     19  C   UNL     1       0.063  16.572  17.964  0.00  0.00    +0.000 C 
BRANCH  19  22
ATOM     20 CL   UNL     1      -0.883  18.953  19.685  0.00  0.00    +0.000 Cl
ATOM     21 CL   UNL     1      -0.681  15.628  23.885  0.00  0.00    +0.000 Cl
ATOM     22  C   UNL     1      -0.053  16.351  19.457  0.00  0.00    +0.000 A 
ATOM     23  C   UNL     1      -0.513  17.380  20.299  0.00  0.00    +0.000 A 
ATOM     24  C   UNL     1       0.271  15.113  20.040  0.00  0.00    +0.000 A 
ATOM     25  C   UNL     1      -0.695  17.163  21.668  0.00  0.00    +0.000 A 
ATOM     26  C   UNL     1       0.091  14.895  21.408  0.00  0.00    +0.000 A 
ATOM     27  C   UNL     1      -0.407  15.916  22.212  0.00  0.00    +0.000 A 
ENDBRANCH  19  22
ENDBRANCH  18  19
ENDBRANCH  16  18
ENDBRANCH   5  17
TORSDOF 5
ENDMDL
