MODEL 1
REMARK VINA RESULT:      -4.9      0.000      0.000
REMARK  Name = 5901311
REMARK  6 active torsions:
REMARK  status: ('A' for Active; 'I' for Inactive)
REMARK    1  A    between atoms: O_4  and  N_7
REMARK    2  A    between atoms: O_4  and  C_22
REMARK    3  A    between atoms: C_8  and  C_10
REMARK    4  A    between atoms: C_9  and  C_15
REMARK    5  A    between atoms: C_16  and  C_20
REMARK    6  A    between atoms: C_21  and  C_22
REMARK                            x       y       z     vdW  Elec       q    Type
REMARK                         _______ _______ _______ _____ _____    ______ ____
ROOT
ATOM      1  S   UNL     1      -5.523  13.597 -50.693  0.00  0.00    +0.000 S 
ATOM      2  N   UNL     1      -6.092  14.244 -53.111  0.00  0.00    +0.000 N 
ATOM      3  N   UNL     1      -7.717  12.932 -52.321  0.00  0.00    +0.000 NA
ATOM      4  C   UNL     1      -7.972  13.283 -53.639  0.00  0.00    +0.000 A 
ATOM      5  C   UNL     1      -6.994  14.150 -54.137  0.00  0.00    +0.000 A 
ATOM      6  C   UNL     1      -6.582  13.521 -52.067  0.00  0.00    +0.000 A 
ATOM      7  C   UNL     1      -4.888  14.874 -52.874  0.00  0.00    +0.000 A 
ATOM      8  C   UNL     1      -4.436  14.632 -51.632  0.00  0.00    +0.000 A 
ENDROOT
BRANCH   4   9
ATOM      9  C   UNL     1      -9.112  12.745 -54.374  0.00  0.00    +0.000 A 
ATOM     10  C   UNL     1     -10.409  13.156 -54.047  0.00  0.00    +0.000 A 
ATOM     11  C   UNL     1      -8.952  11.773 -55.372  0.00  0.00    +0.000 A 
ATOM     12  C   UNL     1     -11.344  11.702 -55.757  0.00  0.00    +0.000 A 
ATOM     13  C   UNL     1     -11.517  12.635 -54.728  0.00  0.00    +0.000 A 
ATOM     14  C   UNL     1     -10.053  11.268 -56.066  0.00  0.00    +0.000 A 
ATOM     15  C   UNL     1     -12.522  11.100 -56.464  0.00  0.00    +0.000 C 
ENDBRANCH   4   9
BRANCH   5  17
ATOM     16  N   UNL     1      -7.754  15.715 -55.736  0.00  0.00    +0.000 NA
ATOM     17  C   UNL     1      -6.894  14.809 -55.404  0.00  0.00    +0.000 C 
BRANCH  16  18
ATOM     18  O   UNL     1      -7.390  16.247 -56.985  0.00  0.00    +0.000 OA
BRANCH  18  19
ATOM     19  C   UNL     1      -8.583  16.530 -57.728  0.00  0.00    +0.000 C 
BRANCH  19  22
ATOM     20 CL   UNL     1      -6.742  14.638 -59.326  0.00  0.00    +0.000 Cl
ATOM     21 CL   UNL     1     -10.969  11.371 -59.777  0.00  0.00    +0.000 Cl
ATOM     22  C   UNL     1      -9.203  15.273 -58.301  0.00  0.00    +0.000 A 
ATOM     23  C   UNL     1      -8.416  14.346 -59.009  0.00  0.00    +0.000 A 
ATOM     24  C   UNL     1     -10.567  14.986 -58.124  0.00  0.00    +0.000 A 
ATOM     25  C   UNL     1      -8.962  13.148 -59.477  0.00  0.00    +0.000 A 
ATOM     26  C   UNL     1     -11.115  13.789 -58.593  0.00  0.00    +0.000 A 
ATOM     27  C   UNL     1     -10.306  12.868 -59.252  0.00  0.00    +0.000 A 
ENDBRANCH  19  22
ENDBRANCH  18  19
ENDBRANCH  16  18
ENDBRANCH   5  17
TORSDOF 5
ENDMDL
MODEL 2
REMARK VINA RESULT:      -4.8      3.952      6.405
REMARK  Name = 5901311
REMARK  6 active torsions:
REMARK  status: ('A' for Active; 'I' for Inactive)
REMARK    1  A    between atoms: O_4  and  N_7
REMARK    2  A    between atoms: O_4  and  C_22
REMARK    3  A    between atoms: C_8  and  C_10
REMARK    4  A    between atoms: C_9  and  C_15
REMARK    5  A    between atoms: C_16  and  C_20
REMARK    6  A    between atoms: C_21  and  C_22
REMARK                            x       y       z     vdW  Elec       q    Type
REMARK                         _______ _______ _______ _____ _____    ______ ____
ROOT
ATOM      1  S   UNL     1     -14.677  10.021 -58.421  0.00  0.00    +0.000 S 
ATOM      2  N   UNL     1     -12.431  11.156 -58.925  0.00  0.00    +0.000 N 
ATOM      3  N   UNL     1     -12.758  11.168 -56.717  0.00  0.00    +0.000 NA
ATOM      4  C   UNL     1     -11.565  11.800 -57.035  0.00  0.00    +0.000 A 
ATOM      5  C   UNL     1     -11.312  11.756 -58.410  0.00  0.00    +0.000 A 
ATOM      6  C   UNL     1     -13.233  10.820 -57.879  0.00  0.00    +0.000 A 
ATOM      7  C   UNL     1     -12.911  10.806 -60.170  0.00  0.00    +0.000 A 
ATOM      8  C   UNL     1     -14.104  10.194 -60.088  0.00  0.00    +0.000 A 
ENDROOT
BRANCH   4   9
ATOM      9  C   UNL     1     -10.741  12.449 -56.022  0.00  0.00    +0.000 A 
ATOM     10  C   UNL     1     -11.195  13.616 -55.395  0.00  0.00    +0.000 A 
ATOM     11  C   UNL     1      -9.466  11.968 -55.690  0.00  0.00    +0.000 A 
ATOM     12  C   UNL     1      -9.157  13.749 -54.075  0.00  0.00    +0.000 A 
ATOM     13  C   UNL     1     -10.408  14.264 -54.435  0.00  0.00    +0.000 A 
ATOM     14  C   UNL     1      -8.689  12.601 -54.718  0.00  0.00    +0.000 A 
ATOM     15  C   UNL     1      -8.283  14.457 -53.082  0.00  0.00    +0.000 C 
ENDBRANCH   4   9
BRANCH   5  17
ATOM     16  N   UNL     1     -10.159  13.418 -59.629  0.00  0.00    +0.000 NA
ATOM     17  C   UNL     1     -10.184  12.214 -59.164  0.00  0.00    +0.000 C 
BRANCH  16  18
ATOM     18  O   UNL     1      -8.923  13.633 -60.264  0.00  0.00    +0.000 OA
BRANCH  18  19
ATOM     19  C   UNL     1      -8.496  14.974 -59.995  0.00  0.00    +0.000 C 
BRANCH  19  22
ATOM     20 CL   UNL     1      -9.691  16.478 -57.580  0.00  0.00    +0.000 Cl
ATOM     21 CL   UNL     1      -5.271  15.078 -54.888  0.00  0.00    +0.000 Cl
ATOM     22  C   UNL     1      -7.653  15.059 -58.741  0.00  0.00    +0.000 A 
ATOM     23  C   UNL     1      -8.149  15.697 -57.588  0.00  0.00    +0.000 A 
ATOM     24  C   UNL     1      -6.371  14.488 -58.683  0.00  0.00    +0.000 A 
ATOM     25  C   UNL     1      -7.409  15.716 -56.403  0.00  0.00    +0.000 A 
ATOM     26  C   UNL     1      -5.630  14.507 -57.498  0.00  0.00    +0.000 A 
ATOM     27  C   UNL     1      -6.160  15.106 -56.360  0.00  0.00    +0.000 A 
ENDBRANCH  19  22
ENDBRANCH  18  19
ENDBRANCH  16  18
ENDBRANCH   5  17
TORSDOF 5
ENDMDL
MODEL 3
REMARK VINA RESULT:      -4.8     21.769     23.933
REMARK  Name = 5901311
REMARK  6 active torsions:
REMARK  status: ('A' for Active; 'I' for Inactive)
REMARK    1  A    between atoms: O_4  and  N_7
REMARK    2  A    between atoms: O_4  and  C_22
REMARK    3  A    between atoms: C_8  and  C_10
REMARK    4  A    between atoms: C_9  and  C_15
REMARK    5  A    between atoms: C_16  and  C_20
REMARK    6  A    between atoms: C_21  and  C_22
REMARK                            x       y       z     vdW  Elec       q    Type
REMARK                         _______ _______ _______ _____ _____    ______ ____
ROOT
ATOM      1  S   UNL     1     -15.798   6.552 -28.943  0.00  0.00    +0.000 S 
ATOM      2  N   UNL     1     -15.401   6.479 -31.478  0.00  0.00    +0.000 N 
ATOM      3  N   UNL     1     -17.258   7.652 -31.079  0.00  0.00    +0.000 NA
ATOM      4  C   UNL     1     -17.022   7.564 -32.443  0.00  0.00    +0.000 A 
ATOM      5  C   UNL     1     -15.833   6.880 -32.714  0.00  0.00    +0.000 A 
ATOM      6  C   UNL     1     -16.271   6.979 -30.559  0.00  0.00    +0.000 A 
ATOM      7  C   UNL     1     -14.348   5.756 -30.957  0.00  0.00    +0.000 A 
ATOM      8  C   UNL     1     -14.406   5.689 -29.616  0.00  0.00    +0.000 A 
ENDROOT
BRANCH   4   9
ATOM      9  C   UNL     1     -17.958   8.100 -33.425  0.00  0.00    +0.000 A 
ATOM     10  C   UNL     1     -19.305   7.721 -33.385  0.00  0.00    +0.000 A 
ATOM     11  C   UNL     1     -17.536   8.950 -34.457  0.00  0.00    +0.000 A 
ATOM     12  C   UNL     1     -19.793   9.097 -35.330  0.00  0.00    +0.000 A 
ATOM     13  C   UNL     1     -20.214   8.210 -34.332  0.00  0.00    +0.000 A 
ATOM     14  C   UNL     1     -18.444   9.456 -35.390  0.00  0.00    +0.000 A 
ATOM     15  C   UNL     1     -20.743   9.594 -36.378  0.00  0.00    +0.000 C 
ENDBRANCH   4   9
BRANCH   5  17
ATOM     16  N   UNL     1     -13.977   7.062 -34.165  0.00  0.00    +0.000 NA
ATOM     17  C   UNL     1     -15.172   6.618 -33.958  0.00  0.00    +0.000 C 
BRANCH  16  18
ATOM     18  O   UNL     1     -13.538   6.610 -35.422  0.00  0.00    +0.000 OA
BRANCH  18  19
ATOM     19  C   UNL     1     -12.334   7.307 -35.765  0.00  0.00    +0.000 C 
BRANCH  19  22
ATOM     20 CL   UNL     1      -9.446   7.980 -34.909  0.00  0.00    +0.000 Cl
ATOM     21 CL   UNL     1      -7.985   3.390 -37.262  0.00  0.00    +0.000 Cl
ATOM     22  C   UNL     1     -11.238   6.360 -36.204  0.00  0.00    +0.000 A 
ATOM     23  C   UNL     1      -9.903   6.583 -35.820  0.00  0.00    +0.000 A 
ATOM     24  C   UNL     1     -11.522   5.226 -36.984  0.00  0.00    +0.000 A 
ATOM     25  C   UNL     1      -8.896   5.675 -36.156  0.00  0.00    +0.000 A 
ATOM     26  C   UNL     1     -10.516   4.318 -37.323  0.00  0.00    +0.000 A 
ATOM     27  C   UNL     1      -9.211   4.538 -36.893  0.00  0.00    +0.000 A 
ENDBRANCH  19  22
ENDBRANCH  18  19
ENDBRANCH  16  18
ENDBRANCH   5  17
TORSDOF 5
ENDMDL
MODEL 4
REMARK VINA RESULT:      -4.5     10.819     12.933
REMARK  Name = 5901311
REMARK  6 active torsions:
REMARK  status: ('A' for Active; 'I' for Inactive)
REMARK    1  A    between atoms: O_4  and  N_7
REMARK    2  A    between atoms: O_4  and  C_22
REMARK    3  A    between atoms: C_8  and  C_10
REMARK    4  A    between atoms: C_9  and  C_15
REMARK    5  A    between atoms: C_16  and  C_20
REMARK    6  A    between atoms: C_21  and  C_22
REMARK                            x       y       z     vdW  Elec       q    Type
REMARK                         _______ _______ _______ _____ _____    ______ ____
ROOT
ATOM      1  S   UNL     1     -21.144  15.147 -43.989  0.00  0.00    +0.000 S 
ATOM      2  N   UNL     1     -19.450  15.467 -45.890  0.00  0.00    +0.000 N 
ATOM      3  N   UNL     1     -18.349  15.450 -43.948  0.00  0.00    +0.000 NA
ATOM      4  C   UNL     1     -17.471  15.650 -45.003  0.00  0.00    +0.000 A 
ATOM      5  C   UNL     1     -18.132  15.609 -46.235  0.00  0.00    +0.000 A 
ATOM      6  C   UNL     1     -19.510  15.362 -44.535  0.00  0.00    +0.000 A 
ATOM      7  C   UNL     1     -20.664  15.385 -46.540  0.00  0.00    +0.000 A 
ATOM      8  C   UNL     1     -21.680  15.218 -45.675  0.00  0.00    +0.000 A 
ENDROOT
BRANCH   4   9
ATOM      9  C   UNL     1     -16.052  15.908 -44.788  0.00  0.00    +0.000 A 
ATOM     10  C   UNL     1     -15.643  17.110 -44.201  0.00  0.00    +0.000 A 
ATOM     11  C   UNL     1     -15.067  15.002 -45.208  0.00  0.00    +0.000 A 
ATOM     12  C   UNL     1     -13.308  16.453 -44.383  0.00  0.00    +0.000 A 
ATOM     13  C   UNL     1     -14.283  17.384 -44.005  0.00  0.00    +0.000 A 
ATOM     14  C   UNL     1     -13.712  15.264 -44.994  0.00  0.00    +0.000 A 
ATOM     15  C   UNL     1     -11.847  16.750 -44.222  0.00  0.00    +0.000 C 
ENDBRANCH   4   9
BRANCH   5  17
ATOM     16  N   UNL     1     -17.573  16.837 -48.174  0.00  0.00    +0.000 NA
ATOM     17  C   UNL     1     -17.620  15.697 -47.570  0.00  0.00    +0.000 C 
BRANCH  16  18
ATOM     18  O   UNL     1     -16.970  16.659 -49.431  0.00  0.00    +0.000 OA
BRANCH  18  19
ATOM     19  C   UNL     1     -16.023  15.587 -49.337  0.00  0.00    +0.000 C 
BRANCH  19  22
ATOM     20 CL   UNL     1     -14.781  15.754 -52.157  0.00  0.00    +0.000 Cl
ATOM     21 CL   UNL     1     -10.432  17.827 -49.806  0.00  0.00    +0.000 Cl
ATOM     22  C   UNL     1     -14.596  16.081 -49.442  0.00  0.00    +0.000 A 
ATOM     23  C   UNL     1     -13.978  16.219 -50.698  0.00  0.00    +0.000 A 
ATOM     24  C   UNL     1     -13.861  16.437 -48.299  0.00  0.00    +0.000 A 
ATOM     25  C   UNL     1     -12.688  16.745 -50.812  0.00  0.00    +0.000 A 
ATOM     26  C   UNL     1     -12.570  16.961 -48.410  0.00  0.00    +0.000 A 
ATOM     27  C   UNL     1     -11.997  17.128 -49.667  0.00  0.00    +0.000 A 
ENDBRANCH  19  22
ENDBRANCH  18  19
ENDBRANCH  16  18
ENDBRANCH   5  17
TORSDOF 5
ENDMDL
MODEL 5
REMARK VINA RESULT:      -4.5     10.097     11.133
REMARK  Name = 5901311
REMARK  6 active torsions:
REMARK  status: ('A' for Active; 'I' for Inactive)
REMARK    1  A    between atoms: O_4  and  N_7
REMARK    2  A    between atoms: O_4  and  C_22
REMARK    3  A    between atoms: C_8  and  C_10
REMARK    4  A    between atoms: C_9  and  C_15
REMARK    5  A    between atoms: C_16  and  C_20
REMARK    6  A    between atoms: C_21  and  C_22
REMARK                            x       y       z     vdW  Elec       q    Type
REMARK                         _______ _______ _______ _____ _____    ______ ____
ROOT
ATOM      1  S   UNL     1       1.525   7.062 -58.688  0.00  0.00    +0.000 S 
ATOM      2  N   UNL     1      -0.906   6.500 -59.289  0.00  0.00    +0.000 N 
ATOM      3  N   UNL     1      -0.631   6.221 -57.091  0.00  0.00    +0.000 NA
ATOM      4  C   UNL     1      -1.928   5.900 -57.464  0.00  0.00    +0.000 A 
ATOM      5  C   UNL     1      -2.139   6.120 -58.828  0.00  0.00    +0.000 A 
ATOM      6  C   UNL     1      -0.069   6.558 -58.218  0.00  0.00    +0.000 A 
ATOM      7  C   UNL     1      -0.338   6.845 -60.498  0.00  0.00    +0.000 A 
ATOM      8  C   UNL     1       0.959   7.168 -60.363  0.00  0.00    +0.000 A 
ENDROOT
BRANCH   4   9
ATOM      9  C   UNL     1      -2.893   5.362 -56.511  0.00  0.00    +0.000 A 
ATOM     10  C   UNL     1      -3.464   6.200 -55.547  0.00  0.00    +0.000 A 
ATOM     11  C   UNL     1      -3.229   4.000 -56.494  0.00  0.00    +0.000 A 
ATOM     12  C   UNL     1      -4.744   4.346 -54.633  0.00  0.00    +0.000 A 
ATOM     13  C   UNL     1      -4.377   5.696 -54.612  0.00  0.00    +0.000 A 
ATOM     14  C   UNL     1      -4.155   3.500 -55.576  0.00  0.00    +0.000 A 
ATOM     15  C   UNL     1      -5.685   3.782 -53.610  0.00  0.00    +0.000 C 
ENDBRANCH   4   9
BRANCH   5  17
ATOM     16  N   UNL     1      -4.181   6.959 -59.671  0.00  0.00    +0.000 NA
ATOM     17  C   UNL     1      -3.326   5.992 -59.619  0.00  0.00    +0.000 C 
BRANCH  16  18
ATOM     18  O   UNL     1      -5.209   6.608 -60.563  0.00  0.00    +0.000 OA
BRANCH  18  19
ATOM     19  C   UNL     1      -5.584   5.247 -60.317  0.00  0.00    +0.000 C 
BRANCH  19  22
ATOM     20 CL   UNL     1      -5.984   2.197 -60.071  0.00  0.00    +0.000 Cl
ATOM     21 CL   UNL     1      -6.384   2.109 -65.417  0.00  0.00    +0.000 Cl
ATOM     22  C   UNL     1      -5.712   4.456 -61.601  0.00  0.00    +0.000 A 
ATOM     23  C   UNL     1      -5.934   3.066 -61.565  0.00  0.00    +0.000 A 
ATOM     24  C   UNL     1      -5.637   5.083 -62.856  0.00  0.00    +0.000 A 
ATOM     25  C   UNL     1      -6.128   2.338 -62.742  0.00  0.00    +0.000 A 
ATOM     26  C   UNL     1      -5.830   4.355 -64.034  0.00  0.00    +0.000 A 
ATOM     27  C   UNL     1      -6.091   2.990 -63.970  0.00  0.00    +0.000 A 
ENDBRANCH  19  22
ENDBRANCH  18  19
ENDBRANCH  16  18
ENDBRANCH   5  17
TORSDOF 5
ENDMDL
MODEL 6
REMARK VINA RESULT:      -4.5     24.287     27.499
REMARK  Name = 5901311
REMARK  6 active torsions:
REMARK  status: ('A' for Active; 'I' for Inactive)
REMARK    1  A    between atoms: O_4  and  N_7
REMARK    2  A    between atoms: O_4  and  C_22
REMARK    3  A    between atoms: C_8  and  C_10
REMARK    4  A    between atoms: C_9  and  C_15
REMARK    5  A    between atoms: C_16  and  C_20
REMARK    6  A    between atoms: C_21  and  C_22
REMARK                            x       y       z     vdW  Elec       q    Type
REMARK                         _______ _______ _______ _____ _____    ______ ____
ROOT
ATOM      1  S   UNL     1      -5.492   5.772 -24.538  0.00  0.00    +0.000 S 
ATOM      2  N   UNL     1      -6.602   7.142 -26.402  0.00  0.00    +0.000 N 
ATOM      3  N   UNL     1      -4.499   7.847 -26.153  0.00  0.00    +0.000 NA
ATOM      4  C   UNL     1      -5.145   8.583 -27.134  0.00  0.00    +0.000 A 
ATOM      5  C   UNL     1      -6.448   8.122 -27.346  0.00  0.00    +0.000 A 
ATOM      6  C   UNL     1      -5.417   7.017 -25.745  0.00  0.00    +0.000 A 
ATOM      7  C   UNL     1      -7.597   6.280 -25.988  0.00  0.00    +0.000 A 
ATOM      8  C   UNL     1      -7.178   5.479 -24.994  0.00  0.00    +0.000 A 
ENDROOT
BRANCH   4   9
ATOM      9  C   UNL     1      -4.507   9.715 -27.797  0.00  0.00    +0.000 A 
ATOM     10  C   UNL     1      -4.372   9.724 -29.190  0.00  0.00    +0.000 A 
ATOM     11  C   UNL     1      -3.963  10.784 -27.069  0.00  0.00    +0.000 A 
ATOM     12  C   UNL     1      -3.247  11.878 -29.110  0.00  0.00    +0.000 A 
ATOM     13  C   UNL     1      -3.742  10.792 -29.841  0.00  0.00    +0.000 A 
ATOM     14  C   UNL     1      -3.355  11.860 -27.717  0.00  0.00    +0.000 A 
ATOM     15  C   UNL     1      -2.530  13.008 -29.788  0.00  0.00    +0.000 C 
ENDBRANCH   4   9
BRANCH   5  17
ATOM     16  N   UNL     1      -8.317   9.425 -27.974  0.00  0.00    +0.000 NA
ATOM     17  C   UNL     1      -7.439   8.534 -28.296  0.00  0.00    +0.000 C 
BRANCH  16  18
ATOM     18  O   UNL     1      -9.118   9.696 -29.097  0.00  0.00    +0.000 OA
BRANCH  18  19
ATOM     19  C   UNL     1      -8.334   9.496 -30.279  0.00  0.00    +0.000 C 
BRANCH  19  22
ATOM     20 CL   UNL     1      -7.129  12.297 -29.802  0.00  0.00    +0.000 Cl
ATOM     21 CL   UNL     1      -9.159  13.666 -34.572  0.00  0.00    +0.000 Cl
ATOM     22  C   UNL     1      -8.604  10.558 -31.324  0.00  0.00    +0.000 A 
ATOM     23  C   UNL     1      -8.056  11.847 -31.191  0.00  0.00    +0.000 A 
ATOM     24  C   UNL     1      -9.385  10.283 -32.459  0.00  0.00    +0.000 A 
ATOM     25  C   UNL     1      -8.237  12.812 -32.186  0.00  0.00    +0.000 A 
ATOM     26  C   UNL     1      -9.569  11.247 -33.454  0.00  0.00    +0.000 A 
ATOM     27  C   UNL     1      -8.980  12.501 -33.320  0.00  0.00    +0.000 A 
ENDBRANCH  19  22
ENDBRANCH  18  19
ENDBRANCH  16  18
ENDBRANCH   5  17
TORSDOF 5
ENDMDL
MODEL 7
REMARK VINA RESULT:      -4.5     18.067     19.646
REMARK  Name = 5901311
REMARK  6 active torsions:
REMARK  status: ('A' for Active; 'I' for Inactive)
REMARK    1  A    between atoms: O_4  and  N_7
REMARK    2  A    between atoms: O_4  and  C_22
REMARK    3  A    between atoms: C_8  and  C_10
REMARK    4  A    between atoms: C_9  and  C_15
REMARK    5  A    between atoms: C_16  and  C_20
REMARK    6  A    between atoms: C_21  and  C_22
REMARK                            x       y       z     vdW  Elec       q    Type
REMARK                         _______ _______ _______ _____ _____    ______ ____
ROOT
ATOM      1  S   UNL     1     -24.531   4.952 -63.728  0.00  0.00    +0.000 S 
ATOM      2  N   UNL     1     -22.799   3.062 -63.855  0.00  0.00    +0.000 N 
ATOM      3  N   UNL     1     -22.135   4.730 -65.182  0.00  0.00    +0.000 NA
ATOM      4  C   UNL     1     -21.239   3.673 -65.243  0.00  0.00    +0.000 A 
ATOM      5  C   UNL     1     -21.605   2.639 -64.377  0.00  0.00    +0.000 A 
ATOM      6  C   UNL     1     -23.046   4.304 -64.353  0.00  0.00    +0.000 A 
ATOM      7  C   UNL     1     -23.749   2.581 -62.979  0.00  0.00    +0.000 A 
ATOM      8  C   UNL     1     -24.750   3.460 -62.800  0.00  0.00    +0.000 A 
ENDROOT
BRANCH   4   9
ATOM      9  C   UNL     1     -20.097   3.682 -66.151  0.00  0.00    +0.000 A 
ATOM     10  C   UNL     1     -20.233   3.175 -67.449  0.00  0.00    +0.000 A 
ATOM     11  C   UNL     1     -18.834   4.135 -65.742  0.00  0.00    +0.000 A 
ATOM     12  C   UNL     1     -17.897   3.656 -67.926  0.00  0.00    +0.000 A 
ATOM     13  C   UNL     1     -19.142   3.156 -68.327  0.00  0.00    +0.000 A 
ATOM     14  C   UNL     1     -17.751   4.137 -66.623  0.00  0.00    +0.000 A 
ATOM     15  C   UNL     1     -16.708   3.601 -68.839  0.00  0.00    +0.000 C 
ENDBRANCH   4   9
BRANCH   5  17
ATOM     16  N   UNL     1     -19.949   1.389 -63.247  0.00  0.00    +0.000 NA
ATOM     17  C   UNL     1     -20.946   1.406 -64.068  0.00  0.00    +0.000 C 
BRANCH  16  18
ATOM     18  O   UNL     1     -19.534   0.059 -63.065  0.00  0.00    +0.000 OA
BRANCH  18  19
ATOM     19  C   UNL     1     -18.112   0.043 -62.885  0.00  0.00    +0.000 C 
BRANCH  19  22
ATOM     20 CL   UNL     1     -17.854  -2.833 -63.975  0.00  0.00    +0.000 Cl
ATOM     21 CL   UNL     1     -15.439  -0.687 -68.253  0.00  0.00    +0.000 Cl
ATOM     22  C   UNL     1     -17.378  -0.142 -64.196  0.00  0.00    +0.000 A 
ATOM     23  C   UNL     1     -17.254  -1.420 -64.772  0.00  0.00    +0.000 A 
ATOM     24  C   UNL     1     -16.823   0.951 -64.883  0.00  0.00    +0.000 A 
ATOM     25  C   UNL     1     -16.644  -1.592 -66.017  0.00  0.00    +0.000 A 
ATOM     26  C   UNL     1     -16.211   0.780 -66.127  0.00  0.00    +0.000 A 
ATOM     27  C   UNL     1     -16.140  -0.488 -66.696  0.00  0.00    +0.000 A 
ENDBRANCH  19  22
ENDBRANCH  18  19
ENDBRANCH  16  18
ENDBRANCH   5  17
TORSDOF 5
ENDMDL
MODEL 8
REMARK VINA RESULT:      -4.5     11.712     13.106
REMARK  Name = 5901311
REMARK  6 active torsions:
REMARK  status: ('A' for Active; 'I' for Inactive)
REMARK    1  A    between atoms: O_4  and  N_7
REMARK    2  A    between atoms: O_4  and  C_22
REMARK    3  A    between atoms: C_8  and  C_10
REMARK    4  A    between atoms: C_9  and  C_15
REMARK    5  A    between atoms: C_16  and  C_20
REMARK    6  A    between atoms: C_21  and  C_22
REMARK                            x       y       z     vdW  Elec       q    Type
REMARK                         _______ _______ _______ _____ _____    ______ ____
ROOT
ATOM      1  S   UNL     1      -7.089  21.909 -44.847  0.00  0.00    +0.000 S 
ATOM      2  N   UNL     1      -8.468  19.748 -44.738  0.00  0.00    +0.000 N 
ATOM      3  N   UNL     1      -6.327  19.249 -44.349  0.00  0.00    +0.000 NA
ATOM      4  C   UNL     1      -7.106  18.101 -44.327  0.00  0.00    +0.000 A 
ATOM      5  C   UNL     1      -8.460  18.396 -44.514  0.00  0.00    +0.000 A 
ATOM      6  C   UNL     1      -7.188  20.192 -44.610  0.00  0.00    +0.000 A 
ATOM      7  C   UNL     1      -9.403  20.723 -45.021  0.00  0.00    +0.000 A 
ATOM      8  C   UNL     1      -8.838  21.938 -45.120  0.00  0.00    +0.000 A 
ENDROOT
BRANCH   4   9
ATOM      9  C   UNL     1      -6.521  16.774 -44.169  0.00  0.00    +0.000 A 
ATOM     10  C   UNL     1      -6.232  16.287 -42.889  0.00  0.00    +0.000 A 
ATOM     11  C   UNL     1      -6.180  15.983 -45.276  0.00  0.00    +0.000 A 
ATOM     12  C   UNL     1      -5.359  14.221 -43.828  0.00  0.00    +0.000 A 
ATOM     13  C   UNL     1      -5.650  15.024 -42.720  0.00  0.00    +0.000 A 
ATOM     14  C   UNL     1      -5.620  14.715 -45.108  0.00  0.00    +0.000 A 
ATOM     15  C   UNL     1      -4.695  12.886 -43.665  0.00  0.00    +0.000 C 
ENDBRANCH   4   9
BRANCH   5  17
ATOM     16  N   UNL     1     -10.170  17.230 -43.374  0.00  0.00    +0.000 NA
ATOM     17  C   UNL     1      -9.610  17.543 -44.496  0.00  0.00    +0.000 C 
BRANCH  16  18
ATOM     18  O   UNL     1     -11.308  16.449 -43.639  0.00  0.00    +0.000 OA
BRANCH  18  19
ATOM     19  C   UNL     1     -12.094  17.107 -44.640  0.00  0.00    +0.000 C 
BRANCH  19  22
ATOM     20 CL   UNL     1     -14.331  17.951 -42.688  0.00  0.00    +0.000 Cl
ATOM     21 CL   UNL     1     -17.588  14.742 -45.488  0.00  0.00    +0.000 Cl
ATOM     22  C   UNL     1     -13.450  16.458 -44.812  0.00  0.00    +0.000 A 
ATOM     23  C   UNL     1     -14.527  16.821 -43.982  0.00  0.00    +0.000 A 
ATOM     24  C   UNL     1     -13.679  15.497 -45.812  0.00  0.00    +0.000 A 
ATOM     25  C   UNL     1     -15.802  16.282 -44.180  0.00  0.00    +0.000 A 
ATOM     26  C   UNL     1     -14.952  14.957 -46.010  0.00  0.00    +0.000 A 
ATOM     27  C   UNL     1     -16.010  15.365 -45.205  0.00  0.00    +0.000 A 
ENDBRANCH  19  22
ENDBRANCH  18  19
ENDBRANCH  16  18
ENDBRANCH   5  17
TORSDOF 5
ENDMDL
MODEL 9
REMARK VINA RESULT:      -4.4     21.982     24.164
REMARK  Name = 5901311
REMARK  6 active torsions:
REMARK  status: ('A' for Active; 'I' for Inactive)
REMARK    1  A    between atoms: O_4  and  N_7
REMARK    2  A    between atoms: O_4  and  C_22
REMARK    3  A    between atoms: C_8  and  C_10
REMARK    4  A    between atoms: C_9  and  C_15
REMARK    5  A    between atoms: C_16  and  C_20
REMARK    6  A    between atoms: C_21  and  C_22
REMARK                            x       y       z     vdW  Elec       q    Type
REMARK                         _______ _______ _______ _____ _____    ______ ____
ROOT
ATOM      1  S   UNL     1     -10.628   8.456 -29.195  0.00  0.00    +0.000 S 
ATOM      2  N   UNL     1     -12.243   8.739 -31.169  0.00  0.00    +0.000 N 
ATOM      3  N   UNL     1     -10.796   7.110 -31.657  0.00  0.00    +0.000 NA
ATOM      4  C   UNL     1     -11.672   7.315 -32.713  0.00  0.00    +0.000 A 
ATOM      5  C   UNL     1     -12.623   8.293 -32.408  0.00  0.00    +0.000 A 
ATOM      6  C   UNL     1     -11.176   7.992 -30.776  0.00  0.00    +0.000 A 
ATOM      7  C   UNL     1     -12.665   9.686 -30.260  0.00  0.00    +0.000 A 
ATOM      8  C   UNL     1     -11.909   9.678 -29.148  0.00  0.00    +0.000 A 
ENDROOT
BRANCH   4   9
ATOM      9  C   UNL     1     -11.539   6.598 -33.976  0.00  0.00    +0.000 A 
ATOM     10  C   UNL     1     -12.146   5.347 -34.136  0.00  0.00    +0.000 A 
ATOM     11  C   UNL     1     -10.764   7.102 -35.031  0.00  0.00    +0.000 A 
ATOM     12  C   UNL     1     -11.276   5.168 -36.400  0.00  0.00    +0.000 A 
ATOM     13  C   UNL     1     -12.011   4.635 -35.335  0.00  0.00    +0.000 A 
ATOM     14  C   UNL     1     -10.647   6.404 -36.234  0.00  0.00    +0.000 A 
ATOM     15  C   UNL     1     -11.085   4.398 -37.673  0.00  0.00    +0.000 C 
ENDBRANCH   4   9
BRANCH   5  17
ATOM     16  N   UNL     1     -14.938   8.369 -32.877  0.00  0.00    +0.000 NA
ATOM     17  C   UNL     1     -13.744   8.771 -33.162  0.00  0.00    +0.000 C 
BRANCH  16  18
ATOM     18  O   UNL     1     -15.851   9.035 -33.712  0.00  0.00    +0.000 OA
BRANCH  18  19
ATOM     19  C   UNL     1     -16.464   8.074 -34.580  0.00  0.00    +0.000 C 
BRANCH  19  22
ATOM     20 CL   UNL     1     -18.169   6.593 -32.476  0.00  0.00    +0.000 Cl
ATOM     21 CL   UNL     1     -22.434   8.998 -34.660  0.00  0.00    +0.000 Cl
ATOM     22  C   UNL     1     -17.966   8.252 -34.649  0.00  0.00    +0.000 A 
ATOM     23  C   UNL     1     -18.803   7.637 -33.700  0.00  0.00    +0.000 A 
ATOM     24  C   UNL     1     -18.562   9.049 -35.642  0.00  0.00    +0.000 A 
ATOM     25  C   UNL     1     -20.184   7.855 -33.710  0.00  0.00    +0.000 A 
ATOM     26  C   UNL     1     -19.942   9.266 -35.653  0.00  0.00    +0.000 A 
ATOM     27  C   UNL     1     -20.744   8.682 -34.678  0.00  0.00    +0.000 A 
ENDBRANCH  19  22
ENDBRANCH  18  19
ENDBRANCH  16  18
ENDBRANCH   5  17
TORSDOF 5
ENDMDL
MODEL 10
REMARK VINA RESULT:      -4.4     11.658     13.783
REMARK  Name = 5901311
REMARK  6 active torsions:
REMARK  status: ('A' for Active; 'I' for Inactive)
REMARK    1  A    between atoms: O_4  and  N_7
REMARK    2  A    between atoms: O_4  and  C_22
REMARK    3  A    between atoms: C_8  and  C_10
REMARK    4  A    between atoms: C_9  and  C_15
REMARK    5  A    between atoms: C_16  and  C_20
REMARK    6  A    between atoms: C_21  and  C_22
REMARK                            x       y       z     vdW  Elec       q    Type
REMARK                         _______ _______ _______ _____ _____    ______ ____
ROOT
ATOM      1  S   UNL     1      -7.698   3.380 -61.447  0.00  0.00    +0.000 S 
ATOM      2  N   UNL     1      -5.859   2.384 -59.960  0.00  0.00    +0.000 N 
ATOM      3  N   UNL     1      -5.896   4.597 -59.666  0.00  0.00    +0.000 NA
ATOM      4  C   UNL     1      -4.894   4.021 -58.899  0.00  0.00    +0.000 A 
ATOM      5  C   UNL     1      -4.888   2.628 -59.025  0.00  0.00    +0.000 A 
ATOM      6  C   UNL     1      -6.426   3.579 -60.283  0.00  0.00    +0.000 A 
ATOM      7  C   UNL     1      -6.394   1.287 -60.603  0.00  0.00    +0.000 A 
ATOM      8  C   UNL     1      -7.385   1.637 -61.440  0.00  0.00    +0.000 A 
ENDROOT
BRANCH   4   9
ATOM      9  C   UNL     1      -3.965   4.825 -58.113  0.00  0.00    +0.000 A 
ATOM     10  C   UNL     1      -4.046   4.819 -56.716  0.00  0.00    +0.000 A 
ATOM     11  C   UNL     1      -3.017   5.661 -58.722  0.00  0.00    +0.000 A 
ATOM     12  C   UNL     1      -2.201   6.396 -56.561  0.00  0.00    +0.000 A 
ATOM     13  C   UNL     1      -3.176   5.602 -55.946  0.00  0.00    +0.000 A 
ATOM     14  C   UNL     1      -2.135   6.426 -57.956  0.00  0.00    +0.000 A 
ATOM     15  C   UNL     1      -1.292   7.274 -55.753  0.00  0.00    +0.000 C 
ENDBRANCH   4   9
BRANCH   5  17
ATOM     16  N   UNL     1      -4.644   0.679 -57.713  0.00  0.00    +0.000 NA
ATOM     17  C   UNL     1      -4.085   1.638 -58.373  0.00  0.00    +0.000 C 
BRANCH  16  18
ATOM     18  O   UNL     1      -3.644  -0.186 -57.236  0.00  0.00    +0.000 OA
BRANCH  18  19
ATOM     19  C   UNL     1      -3.594  -0.085 -55.807  0.00  0.00    +0.000 C 
BRANCH  19  22
ATOM     20 CL   UNL     1      -4.739   2.260 -54.160  0.00  0.00    +0.000 Cl
ATOM     21 CL   UNL     1      -9.156  -0.712 -53.533  0.00  0.00    +0.000 Cl
ATOM     22  C   UNL     1      -4.958  -0.275 -55.179  0.00  0.00    +0.000 A 
ATOM     23  C   UNL     1      -5.559   0.765 -54.446  0.00  0.00    +0.000 A 
ATOM     24  C   UNL     1      -5.671  -1.477 -55.328  0.00  0.00    +0.000 A 
ATOM     25  C   UNL     1      -6.849   0.628 -53.926  0.00  0.00    +0.000 A 
ATOM     26  C   UNL     1      -6.959  -1.617 -54.807  0.00  0.00    +0.000 A 
ATOM     27  C   UNL     1      -7.548  -0.558 -54.123  0.00  0.00    +0.000 A 
ENDBRANCH  19  22
ENDBRANCH  18  19
ENDBRANCH  16  18
ENDBRANCH   5  17
TORSDOF 5
ENDMDL
