MODEL 1
REMARK VINA RESULT:      -5.9      0.000      0.000
REMARK  Name = 5906202
REMARK  5 active torsions:
REMARK  status: ('A' for Active; 'I' for Inactive)
REMARK    1  A    between atoms: O_4  and  N_7
REMARK    2  A    between atoms: O_4  and  C_20
REMARK    3  A    between atoms: C_8  and  C_13
REMARK    4  A    between atoms: C_9  and  C_11
REMARK    5  A    between atoms: C_17  and  C_20
REMARK                            x       y       z     vdW  Elec       q    Type
REMARK                         _______ _______ _______ _____ _____    ______ ____
ROOT
ATOM      1  S   UNL     1      -0.967  -1.656 -52.706  0.00  0.00    +0.000 S 
ATOM      2  N   UNL     1      -2.728   0.057 -51.950  0.00  0.00    +0.000 N 
ATOM      3  N   UNL     1      -3.732  -1.511 -53.185  0.00  0.00    +0.000 NA
ATOM      4  C   UNL     1      -4.044   0.450 -52.006  0.00  0.00    +0.000 A 
ATOM      5  C   UNL     1      -4.651  -0.554 -52.771  0.00  0.00    +0.000 A 
ATOM      6  C   UNL     1      -2.606  -1.076 -52.695  0.00  0.00    +0.000 A 
ATOM      7  C   UNL     1      -1.563   0.474 -51.336  0.00  0.00    +0.000 A 
ATOM      8  C   UNL     1      -0.519  -0.309 -51.651  0.00  0.00    +0.000 A 
ENDROOT
BRANCH   5   9
ATOM      9  C   UNL     1      -6.070  -0.670 -53.085  0.00  0.00    +0.000 A 
ATOM     10  C   UNL     1      -6.882  -1.502 -52.300  0.00  0.00    +0.000 A 
ATOM     11  C   UNL     1      -6.662   0.039 -54.139  0.00  0.00    +0.000 A 
ATOM     12  C   UNL     1      -8.261  -1.565 -52.517  0.00  0.00    +0.000 A 
ATOM     13  C   UNL     1      -8.044  -0.009 -54.344  0.00  0.00    +0.000 A 
ATOM     14  C   UNL     1      -8.844  -0.799 -53.525  0.00  0.00    +0.000 A 
ENDBRANCH   5   9
BRANCH   4  16
ATOM     15  N   UNL     1      -4.804   2.779 -51.825  0.00  0.00    +0.000 NA
ATOM     16  C   UNL     1      -4.625   1.585 -51.339  0.00  0.00    +0.000 C 
BRANCH  15  17
ATOM     17  O   UNL     1      -4.466   2.845 -53.184  0.00  0.00    +0.000 OA
BRANCH  17  18
ATOM     18  C   UNL     1      -5.480   3.528 -53.918  0.00  0.00    +0.000 C 
BRANCH  18  21
ATOM     19 CL   UNL     1      -3.287   4.936 -58.392  0.00  0.00    +0.000 Cl
ATOM     20 CL   UNL     1      -2.488   7.763 -56.990  0.00  0.00    +0.000 Cl
ATOM     21  C   UNL     1      -4.816   4.610 -54.720  0.00  0.00    +0.000 A 
ATOM     22  C   UNL     1      -4.440   4.367 -56.045  0.00  0.00    +0.000 A 
ATOM     23  C   UNL     1      -4.472   5.830 -54.122  0.00  0.00    +0.000 A 
ATOM     24  C   UNL     1      -3.730   5.327 -56.770  0.00  0.00    +0.000 A 
ATOM     25  C   UNL     1      -3.762   6.792 -54.844  0.00  0.00    +0.000 A 
ATOM     26  C   UNL     1      -3.387   6.542 -56.167  0.00  0.00    +0.000 A 
ENDBRANCH  18  21
ENDBRANCH  17  18
ENDBRANCH  15  17
ENDBRANCH   4  16
TORSDOF 5
ENDMDL
MODEL 2
REMARK VINA RESULT:      -5.8      4.660      7.970
REMARK  Name = 5906202
REMARK  5 active torsions:
REMARK  status: ('A' for Active; 'I' for Inactive)
REMARK    1  A    between atoms: O_4  and  N_7
REMARK    2  A    between atoms: O_4  and  C_20
REMARK    3  A    between atoms: C_8  and  C_13
REMARK    4  A    between atoms: C_9  and  C_11
REMARK    5  A    between atoms: C_17  and  C_20
REMARK                            x       y       z     vdW  Elec       q    Type
REMARK                         _______ _______ _______ _____ _____    ______ ____
ROOT
ATOM      1  S   UNL     1      -6.684   2.756 -60.789  0.00  0.00    +0.000 S 
ATOM      2  N   UNL     1      -4.931   2.258 -58.977  0.00  0.00    +0.000 N 
ATOM      3  N   UNL     1      -5.532   4.404 -58.827  0.00  0.00    +0.000 NA
ATOM      4  C   UNL     1      -4.163   2.762 -57.954  0.00  0.00    +0.000 A 
ATOM      5  C   UNL     1      -4.569   4.100 -57.873  0.00  0.00    +0.000 A 
ATOM      6  C   UNL     1      -5.680   3.282 -59.471  0.00  0.00    +0.000 A 
ATOM      7  C   UNL     1      -5.153   1.035 -59.580  0.00  0.00    +0.000 A 
ATOM      8  C   UNL     1      -6.039   1.122 -60.584  0.00  0.00    +0.000 A 
ENDROOT
BRANCH   5   9
ATOM      9  C   UNL     1      -4.118   5.088 -56.899  0.00  0.00    +0.000 A 
ATOM     10  C   UNL     1      -3.278   6.131 -57.316  0.00  0.00    +0.000 A 
ATOM     11  C   UNL     1      -4.513   5.045 -55.554  0.00  0.00    +0.000 A 
ATOM     12  C   UNL     1      -2.903   7.144 -56.429  0.00  0.00    +0.000 A 
ATOM     13  C   UNL     1      -4.154   6.067 -54.672  0.00  0.00    +0.000 A 
ATOM     14  C   UNL     1      -3.361   7.123 -55.113  0.00  0.00    +0.000 A 
ENDBRANCH   5   9
BRANCH   4  16
ATOM     15  N   UNL     1      -3.475   1.489 -55.969  0.00  0.00    +0.000 NA
ATOM     16  C   UNL     1      -3.242   2.022 -57.133  0.00  0.00    +0.000 C 
BRANCH  15  17
ATOM     17  O   UNL     1      -4.824   1.603 -55.604  0.00  0.00    +0.000 OA
BRANCH  17  18
ATOM     18  C   UNL     1      -4.940   2.078 -54.264  0.00  0.00    +0.000 C 
BRANCH  18  21
ATOM     19 CL   UNL     1      -8.898  -1.233 -53.836  0.00  0.00    +0.000 Cl
ATOM     20 CL   UNL     1      -7.848  -1.938 -50.837  0.00  0.00    +0.000 Cl
ATOM     21  C   UNL     1      -5.618   1.010 -53.456  0.00  0.00    +0.000 A 
ATOM     22  C   UNL     1      -6.773   0.389 -53.946  0.00  0.00    +0.000 A 
ATOM     23  C   UNL     1      -5.169   0.700 -52.165  0.00  0.00    +0.000 A 
ATOM     24  C   UNL     1      -7.472  -0.530 -53.162  0.00  0.00    +0.000 A 
ATOM     25  C   UNL     1      -5.866  -0.219 -51.378  0.00  0.00    +0.000 A 
ATOM     26  C   UNL     1      -7.021  -0.834 -51.873  0.00  0.00    +0.000 A 
ENDBRANCH  18  21
ENDBRANCH  17  18
ENDBRANCH  15  17
ENDBRANCH   4  16
TORSDOF 5
ENDMDL
MODEL 3
REMARK VINA RESULT:      -5.8     20.779     22.340
REMARK  Name = 5906202
REMARK  5 active torsions:
REMARK  status: ('A' for Active; 'I' for Inactive)
REMARK    1  A    between atoms: O_4  and  N_7
REMARK    2  A    between atoms: O_4  and  C_20
REMARK    3  A    between atoms: C_8  and  C_13
REMARK    4  A    between atoms: C_9  and  C_11
REMARK    5  A    between atoms: C_17  and  C_20
REMARK                            x       y       z     vdW  Elec       q    Type
REMARK                         _______ _______ _______ _____ _____    ______ ____
ROOT
ATOM      1  S   UNL     1     -14.692   3.183 -32.072  0.00  0.00    +0.000 S 
ATOM      2  N   UNL     1     -14.327   5.676 -32.577  0.00  0.00    +0.000 N 
ATOM      3  N   UNL     1     -16.413   5.124 -33.152  0.00  0.00    +0.000 NA
ATOM      4  C   UNL     1     -14.863   6.834 -33.089  0.00  0.00    +0.000 A 
ATOM      5  C   UNL     1     -16.170   6.464 -33.427  0.00  0.00    +0.000 A 
ATOM      6  C   UNL     1     -15.273   4.704 -32.681  0.00  0.00    +0.000 A 
ATOM      7  C   UNL     1     -13.147   5.273 -31.982  0.00  0.00    +0.000 A 
ATOM      8  C   UNL     1     -13.158   3.967 -31.672  0.00  0.00    +0.000 A 
ENDROOT
BRANCH   5   9
ATOM      9  C   UNL     1     -17.213   7.337 -33.954  0.00  0.00    +0.000 A 
ATOM     10  C   UNL     1     -17.012   7.984 -35.182  0.00  0.00    +0.000 A 
ATOM     11  C   UNL     1     -18.427   7.541 -33.282  0.00  0.00    +0.000 A 
ATOM     12  C   UNL     1     -18.026   8.754 -35.758  0.00  0.00    +0.000 A 
ATOM     13  C   UNL     1     -19.447   8.295 -33.866  0.00  0.00    +0.000 A 
ATOM     14  C   UNL     1     -19.252   8.890 -35.109  0.00  0.00    +0.000 A 
ENDBRANCH   5   9
BRANCH   4  16
ATOM     15  N   UNL     1     -13.364   8.529 -34.046  0.00  0.00    +0.000 NA
ATOM     16  C   UNL     1     -14.217   8.118 -33.153  0.00  0.00    +0.000 C 
BRANCH  15  17
ATOM     17  O   UNL     1     -13.200   7.595 -35.078  0.00  0.00    +0.000 OA
BRANCH  17  18
ATOM     18  C   UNL     1     -12.171   8.014 -35.972  0.00  0.00    +0.000 C 
BRANCH  18  21
ATOM     19 CL   UNL     1      -7.320   6.210 -35.792  0.00  0.00    +0.000 Cl
ATOM     20 CL   UNL     1      -8.403   3.461 -37.158  0.00  0.00    +0.000 Cl
ATOM     21  C   UNL     1     -11.241   6.853 -36.178  0.00  0.00    +0.000 A 
ATOM     22  C   UNL     1      -9.879   6.988 -35.885  0.00  0.00    +0.000 A 
ATOM     23  C   UNL     1     -11.702   5.666 -36.763  0.00  0.00    +0.000 A 
ATOM     24  C   UNL     1      -8.986   5.952 -36.168  0.00  0.00    +0.000 A 
ATOM     25  C   UNL     1     -10.811   4.629 -37.048  0.00  0.00    +0.000 A 
ATOM     26  C   UNL     1      -9.451   4.771 -36.755  0.00  0.00    +0.000 A 
ENDBRANCH  18  21
ENDBRANCH  17  18
ENDBRANCH  15  17
ENDBRANCH   4  16
TORSDOF 5
ENDMDL
MODEL 4
REMARK VINA RESULT:      -5.6      4.346      7.025
REMARK  Name = 5906202
REMARK  5 active torsions:
REMARK  status: ('A' for Active; 'I' for Inactive)
REMARK    1  A    between atoms: O_4  and  N_7
REMARK    2  A    between atoms: O_4  and  C_20
REMARK    3  A    between atoms: C_8  and  C_13
REMARK    4  A    between atoms: C_9  and  C_11
REMARK    5  A    between atoms: C_17  and  C_20
REMARK                            x       y       z     vdW  Elec       q    Type
REMARK                         _______ _______ _______ _____ _____    ______ ____
ROOT
ATOM      1  S   UNL     1      -4.484   5.471 -54.266  0.00  0.00    +0.000 S 
ATOM      2  N   UNL     1      -4.472   3.119 -55.301  0.00  0.00    +0.000 N 
ATOM      3  N   UNL     1      -5.705   3.079 -53.440  0.00  0.00    +0.000 NA
ATOM      4  C   UNL     1      -4.879   1.811 -55.184  0.00  0.00    +0.000 A 
ATOM      5  C   UNL     1      -5.659   1.818 -54.021  0.00  0.00    +0.000 A 
ATOM      6  C   UNL     1      -4.956   3.798 -54.226  0.00  0.00    +0.000 A 
ATOM      7  C   UNL     1      -3.763   3.890 -56.202  0.00  0.00    +0.000 A 
ATOM      8  C   UNL     1      -3.650   5.165 -55.795  0.00  0.00    +0.000 A 
ENDROOT
BRANCH   5   9
ATOM      9  C   UNL     1      -6.401   0.692 -53.465  0.00  0.00    +0.000 A 
ATOM     10  C   UNL     1      -6.114   0.256 -52.162  0.00  0.00    +0.000 A 
ATOM     11  C   UNL     1      -7.411   0.036 -54.182  0.00  0.00    +0.000 A 
ATOM     12  C   UNL     1      -6.868  -0.759 -51.567  0.00  0.00    +0.000 A 
ATOM     13  C   UNL     1      -8.177  -0.966 -53.581  0.00  0.00    +0.000 A 
ATOM     14  C   UNL     1      -7.915  -1.354 -52.270  0.00  0.00    +0.000 A 
ENDBRANCH   5   9
BRANCH   4  16
ATOM     15  N   UNL     1      -3.818  -0.269 -55.948  0.00  0.00    +0.000 NA
ATOM     16  C   UNL     1      -4.614   0.748 -56.115  0.00  0.00    +0.000 C 
BRANCH  15  17
ATOM     17  O   UNL     1      -3.289  -0.308 -54.650  0.00  0.00    +0.000 OA
BRANCH  17  18
ATOM     18  C   UNL     1      -2.711  -1.584 -54.384  0.00  0.00    +0.000 C 
BRANCH  18  21
ATOM     19 CL   UNL     1      -4.097  -3.321 -49.708  0.00  0.00    +0.000 Cl
ATOM     20 CL   UNL     1      -6.443  -5.048 -51.160  0.00  0.00    +0.000 Cl
ATOM     21  C   UNL     1      -3.691  -2.371 -53.563  0.00  0.00    +0.000 A 
ATOM     22  C   UNL     1      -3.533  -2.452 -52.175  0.00  0.00    +0.000 A 
ATOM     23  C   UNL     1      -4.705  -3.114 -54.182  0.00  0.00    +0.000 A 
ATOM     24  C   UNL     1      -4.375  -3.263 -51.411  0.00  0.00    +0.000 A 
ATOM     25  C   UNL     1      -5.548  -3.926 -53.421  0.00  0.00    +0.000 A 
ATOM     26  C   UNL     1      -5.384  -4.005 -52.035  0.00  0.00    +0.000 A 
ENDBRANCH  18  21
ENDBRANCH  17  18
ENDBRANCH  15  17
ENDBRANCH   4  16
TORSDOF 5
ENDMDL
MODEL 5
REMARK VINA RESULT:      -5.6      4.081      5.350
REMARK  Name = 5906202
REMARK  5 active torsions:
REMARK  status: ('A' for Active; 'I' for Inactive)
REMARK    1  A    between atoms: O_4  and  N_7
REMARK    2  A    between atoms: O_4  and  C_20
REMARK    3  A    between atoms: C_8  and  C_13
REMARK    4  A    between atoms: C_9  and  C_11
REMARK    5  A    between atoms: C_17  and  C_20
REMARK                            x       y       z     vdW  Elec       q    Type
REMARK                         _______ _______ _______ _____ _____    ______ ____
ROOT
ATOM      1  S   UNL     1      -4.523   5.161 -54.783  0.00  0.00    +0.000 S 
ATOM      2  N   UNL     1      -4.119   2.657 -55.199  0.00  0.00    +0.000 N 
ATOM      3  N   UNL     1      -5.813   2.884 -53.761  0.00  0.00    +0.000 NA
ATOM      4  C   UNL     1      -4.483   1.369 -54.886  0.00  0.00    +0.000 A 
ATOM      5  C   UNL     1      -5.551   1.540 -53.997  0.00  0.00    +0.000 A 
ATOM      6  C   UNL     1      -4.911   3.495 -54.474  0.00  0.00    +0.000 A 
ATOM      7  C   UNL     1      -3.226   3.290 -56.042  0.00  0.00    +0.000 A 
ATOM      8  C   UNL     1      -3.288   4.626 -55.931  0.00  0.00    +0.000 A 
ENDROOT
BRANCH   5   9
ATOM      9  C   UNL     1      -6.365   0.486 -53.402  0.00  0.00    +0.000 A 
ATOM     10  C   UNL     1      -6.043   0.009 -52.123  0.00  0.00    +0.000 A 
ATOM     11  C   UNL     1      -7.478  -0.058 -54.057  0.00  0.00    +0.000 A 
ATOM     12  C   UNL     1      -6.855  -0.934 -51.487  0.00  0.00    +0.000 A 
ATOM     13  C   UNL     1      -8.301  -0.987 -53.415  0.00  0.00    +0.000 A 
ATOM     14  C   UNL     1      -7.997  -1.414 -52.126  0.00  0.00    +0.000 A 
ENDBRANCH   5   9
BRANCH   4  16
ATOM     15  N   UNL     1      -4.278  -0.437 -56.539  0.00  0.00    +0.000 NA
ATOM     16  C   UNL     1      -3.924   0.166 -55.441  0.00  0.00    +0.000 C 
BRANCH  15  17
ATOM     17  O   UNL     1      -5.242   0.296 -57.248  0.00  0.00    +0.000 OA
BRANCH  17  18
ATOM     18  C   UNL     1      -5.479  -0.295 -58.524  0.00  0.00    +0.000 C 
BRANCH  18  21
ATOM     19 CL   UNL     1      -8.145   1.182 -62.710  0.00  0.00    +0.000 Cl
ATOM     20 CL   UNL     1      -6.578   4.032 -62.574  0.00  0.00    +0.000 Cl
ATOM     21  C   UNL     1      -5.827   0.808 -59.482  0.00  0.00    +0.000 A 
ATOM     22  C   UNL     1      -6.751   0.576 -60.508  0.00  0.00    +0.000 A 
ATOM     23  C   UNL     1      -5.158   2.038 -59.426  0.00  0.00    +0.000 A 
ATOM     24  C   UNL     1      -7.007   1.558 -61.467  0.00  0.00    +0.000 A 
ATOM     25  C   UNL     1      -5.412   3.021 -60.384  0.00  0.00    +0.000 A 
ATOM     26  C   UNL     1      -6.333   2.783 -61.409  0.00  0.00    +0.000 A 
ENDBRANCH  18  21
ENDBRANCH  17  18
ENDBRANCH  15  17
ENDBRANCH   4  16
TORSDOF 5
ENDMDL
MODEL 6
REMARK VINA RESULT:      -5.6     17.474     19.852
REMARK  Name = 5906202
REMARK  5 active torsions:
REMARK  status: ('A' for Active; 'I' for Inactive)
REMARK    1  A    between atoms: O_4  and  N_7
REMARK    2  A    between atoms: O_4  and  C_20
REMARK    3  A    between atoms: C_8  and  C_13
REMARK    4  A    between atoms: C_9  and  C_11
REMARK    5  A    between atoms: C_17  and  C_20
REMARK                            x       y       z     vdW  Elec       q    Type
REMARK                         _______ _______ _______ _____ _____    ______ ____
ROOT
ATOM      1  S   UNL     1     -24.400   6.166 -61.436  0.00  0.00    +0.000 S 
ATOM      2  N   UNL     1     -23.225   4.945 -59.505  0.00  0.00    +0.000 N 
ATOM      3  N   UNL     1     -22.480   7.049 -59.585  0.00  0.00    +0.000 NA
ATOM      4  C   UNL     1     -22.292   5.021 -58.499  0.00  0.00    +0.000 A 
ATOM      5  C   UNL     1     -21.853   6.349 -58.562  0.00  0.00    +0.000 A 
ATOM      6  C   UNL     1     -23.257   6.155 -60.128  0.00  0.00    +0.000 A 
ATOM      7  C   UNL     1     -24.119   4.016 -60.001  0.00  0.00    +0.000 A 
ATOM      8  C   UNL     1     -24.810   4.490 -61.050  0.00  0.00    +0.000 A 
ENDROOT
BRANCH   5   9
ATOM      9  C   UNL     1     -20.902   6.995 -57.665  0.00  0.00    +0.000 A 
ATOM     10  C   UNL     1     -20.217   6.221 -56.717  0.00  0.00    +0.000 A 
ATOM     11  C   UNL     1     -20.629   8.369 -57.728  0.00  0.00    +0.000 A 
ATOM     12  C   UNL     1     -19.233   6.792 -55.905  0.00  0.00    +0.000 A 
ATOM     13  C   UNL     1     -19.633   8.936 -56.930  0.00  0.00    +0.000 A 
ATOM     14  C   UNL     1     -18.926   8.146 -56.029  0.00  0.00    +0.000 A 
ENDBRANCH   5   9
BRANCH   4  16
ATOM     15  N   UNL     1     -22.559   3.680 -56.457  0.00  0.00    +0.000 NA
ATOM     16  C   UNL     1     -21.952   3.976 -57.570  0.00  0.00    +0.000 C 
BRANCH  15  17
ATOM     17  O   UNL     1     -23.723   4.442 -56.281  0.00  0.00    +0.000 OA
BRANCH  17  18
ATOM     18  C   UNL     1     -23.807   4.922 -54.941  0.00  0.00    +0.000 C 
BRANCH  18  21
ATOM     19 CL   UNL     1     -24.768   9.468 -57.227  0.00  0.00    +0.000 Cl
ATOM     20 CL   UNL     1     -22.538  10.805 -55.270  0.00  0.00    +0.000 Cl
ATOM     21  C   UNL     1     -23.566   6.404 -54.969  0.00  0.00    +0.000 A 
ATOM     22  C   UNL     1     -24.221   7.201 -55.915  0.00  0.00    +0.000 A 
ATOM     23  C   UNL     1     -22.609   6.986 -54.127  0.00  0.00    +0.000 A 
ATOM     24  C   UNL     1     -23.929   8.563 -56.020  0.00  0.00    +0.000 A 
ATOM     25  C   UNL     1     -22.314   8.347 -54.230  0.00  0.00    +0.000 A 
ATOM     26  C   UNL     1     -22.970   9.137 -55.178  0.00  0.00    +0.000 A 
ENDBRANCH  18  21
ENDBRANCH  17  18
ENDBRANCH  15  17
ENDBRANCH   4  16
TORSDOF 5
ENDMDL
MODEL 7
REMARK VINA RESULT:      -5.5     17.828     20.005
REMARK  Name = 5906202
REMARK  5 active torsions:
REMARK  status: ('A' for Active; 'I' for Inactive)
REMARK    1  A    between atoms: O_4  and  N_7
REMARK    2  A    between atoms: O_4  and  C_20
REMARK    3  A    between atoms: C_8  and  C_13
REMARK    4  A    between atoms: C_9  and  C_11
REMARK    5  A    between atoms: C_17  and  C_20
REMARK                            x       y       z     vdW  Elec       q    Type
REMARK                         _______ _______ _______ _____ _____    ______ ____
ROOT
ATOM      1  S   UNL     1     -24.750  10.681 -60.506  0.00  0.00    +0.000 S 
ATOM      2  N   UNL     1     -23.101  11.108 -58.582  0.00  0.00    +0.000 N 
ATOM      3  N   UNL     1     -24.216   9.218 -58.168  0.00  0.00    +0.000 NA
ATOM      4  C   UNL     1     -22.622  10.682 -57.366  0.00  0.00    +0.000 A 
ATOM      5  C   UNL     1     -23.325   9.493 -57.138  0.00  0.00    +0.000 A 
ATOM      6  C   UNL     1     -24.061  10.227 -58.976  0.00  0.00    +0.000 A 
ATOM      7  C   UNL     1     -22.848  12.128 -59.478  0.00  0.00    +0.000 A 
ATOM      8  C   UNL     1     -23.655  12.070 -60.549  0.00  0.00    +0.000 A 
ENDROOT
BRANCH   5   9
ATOM      9  C   UNL     1     -23.153   8.583 -56.011  0.00  0.00    +0.000 A 
ATOM     10  C   UNL     1     -23.881   7.384 -55.978  0.00  0.00    +0.000 A 
ATOM     11  C   UNL     1     -22.265   8.854 -54.961  0.00  0.00    +0.000 A 
ATOM     12  C   UNL     1     -23.672   6.450 -54.961  0.00  0.00    +0.000 A 
ATOM     13  C   UNL     1     -22.042   7.912 -53.954  0.00  0.00    +0.000 A 
ATOM     14  C   UNL     1     -22.735   6.705 -53.961  0.00  0.00    +0.000 A 
ENDBRANCH   5   9
BRANCH   4  16
ATOM     15  N   UNL     1     -20.292  11.161 -56.749  0.00  0.00    +0.000 NA
ATOM     16  C   UNL     1     -21.577  11.302 -56.596  0.00  0.00    +0.000 C 
BRANCH  15  17
ATOM     17  O   UNL     1     -19.984  10.389 -57.878  0.00  0.00    +0.000 OA
BRANCH  17  18
ATOM     18  C   UNL     1     -18.870   9.539 -57.614  0.00  0.00    +0.000 C 
BRANCH  18  21
ATOM     19 CL   UNL     1     -22.230   5.848 -58.991  0.00  0.00    +0.000 Cl
ATOM     20 CL   UNL     1     -21.219   4.116 -56.427  0.00  0.00    +0.000 Cl
ATOM     21  C   UNL     1     -19.396   8.152 -57.381  0.00  0.00    +0.000 A 
ATOM     22  C   UNL     1     -20.406   7.640 -58.205  0.00  0.00    +0.000 A 
ATOM     23  C   UNL     1     -18.963   7.400 -56.281  0.00  0.00    +0.000 A 
ATOM     24  C   UNL     1     -20.976   6.394 -57.937  0.00  0.00    +0.000 A 
ATOM     25  C   UNL     1     -19.532   6.154 -56.010  0.00  0.00    +0.000 A 
ATOM     26  C   UNL     1     -20.542   5.650 -56.835  0.00  0.00    +0.000 A 
ENDBRANCH  18  21
ENDBRANCH  17  18
ENDBRANCH  15  17
ENDBRANCH   4  16
TORSDOF 5
ENDMDL
MODEL 8
REMARK VINA RESULT:      -5.4      3.730      5.298
REMARK  Name = 5906202
REMARK  5 active torsions:
REMARK  status: ('A' for Active; 'I' for Inactive)
REMARK    1  A    between atoms: O_4  and  N_7
REMARK    2  A    between atoms: O_4  and  C_20
REMARK    3  A    between atoms: C_8  and  C_13
REMARK    4  A    between atoms: C_9  and  C_11
REMARK    5  A    between atoms: C_17  and  C_20
REMARK                            x       y       z     vdW  Elec       q    Type
REMARK                         _______ _______ _______ _____ _____    ______ ____
ROOT
ATOM      1  S   UNL     1      -5.596  -6.662 -50.299  0.00  0.00    +0.000 S 
ATOM      2  N   UNL     1      -6.864  -4.427 -50.312  0.00  0.00    +0.000 N 
ATOM      3  N   UNL     1      -6.092  -4.828 -52.368  0.00  0.00    +0.000 NA
ATOM      4  C   UNL     1      -7.253  -3.333 -51.047  0.00  0.00    +0.000 A 
ATOM      5  C   UNL     1      -6.770  -3.616 -52.331  0.00  0.00    +0.000 A 
ATOM      6  C   UNL     1      -6.154  -5.244 -51.136  0.00  0.00    +0.000 A 
ATOM      7  C   UNL     1      -7.029  -4.904 -49.026  0.00  0.00    +0.000 A 
ATOM      8  C   UNL     1      -6.397  -6.072 -48.836  0.00  0.00    +0.000 A 
ENDROOT
BRANCH   5   9
ATOM      9  C   UNL     1      -6.966  -2.811 -53.531  0.00  0.00    +0.000 A 
ATOM     10  C   UNL     1      -7.889  -1.755 -53.508  0.00  0.00    +0.000 A 
ATOM     11  C   UNL     1      -6.245  -3.042 -54.711  0.00  0.00    +0.000 A 
ATOM     12  C   UNL     1      -8.034  -0.908 -54.610  0.00  0.00    +0.000 A 
ATOM     13  C   UNL     1      -6.376  -2.185 -55.807  0.00  0.00    +0.000 A 
ATOM     14  C   UNL     1      -7.259  -1.111 -55.751  0.00  0.00    +0.000 A 
ENDBRANCH   5   9
BRANCH   4  16
ATOM     15  N   UNL     1      -7.643  -1.019 -50.320  0.00  0.00    +0.000 NA
ATOM     16  C   UNL     1      -8.048  -2.228 -50.579  0.00  0.00    +0.000 C 
BRANCH  15  17
ATOM     17  O   UNL     1      -6.298  -0.833 -50.667  0.00  0.00    +0.000 OA
BRANCH  17  18
ATOM     18  C   UNL     1      -6.067   0.515 -51.070  0.00  0.00    +0.000 C 
BRANCH  18  21
ATOM     19 CL   UNL     1      -4.725   2.762 -55.538  0.00  0.00    +0.000 Cl
ATOM     20 CL   UNL     1      -2.835   0.184 -56.147  0.00  0.00    +0.000 Cl
ATOM     21  C   UNL     1      -5.197   0.485 -52.293  0.00  0.00    +0.000 A 
ATOM     22  C   UNL     1      -5.278   1.519 -53.234  0.00  0.00    +0.000 A 
ATOM     23  C   UNL     1      -4.379  -0.621 -52.560  0.00  0.00    +0.000 A 
ATOM     24  C   UNL     1      -4.551   1.454 -54.424  0.00  0.00    +0.000 A 
ATOM     25  C   UNL     1      -3.652  -0.689 -53.750  0.00  0.00    +0.000 A 
ATOM     26  C   UNL     1      -3.739   0.346 -54.686  0.00  0.00    +0.000 A 
ENDBRANCH  18  21
ENDBRANCH  17  18
ENDBRANCH  15  17
ENDBRANCH   4  16
TORSDOF 5
ENDMDL
MODEL 9
REMARK VINA RESULT:      -5.3      5.453      7.745
REMARK  Name = 5906202
REMARK  5 active torsions:
REMARK  status: ('A' for Active; 'I' for Inactive)
REMARK    1  A    between atoms: O_4  and  N_7
REMARK    2  A    between atoms: O_4  and  C_20
REMARK    3  A    between atoms: C_8  and  C_13
REMARK    4  A    between atoms: C_9  and  C_11
REMARK    5  A    between atoms: C_17  and  C_20
REMARK                            x       y       z     vdW  Elec       q    Type
REMARK                         _______ _______ _______ _____ _____    ______ ____
ROOT
ATOM      1  S   UNL     1      -2.196   1.653 -60.367  0.00  0.00    +0.000 S 
ATOM      2  N   UNL     1      -3.524   3.842 -60.145  0.00  0.00    +0.000 N 
ATOM      3  N   UNL     1      -2.977   3.122 -58.103  0.00  0.00    +0.000 NA
ATOM      4  C   UNL     1      -4.082   4.764 -59.292  0.00  0.00    +0.000 A 
ATOM      5  C   UNL     1      -3.713   4.298 -58.024  0.00  0.00    +0.000 A 
ATOM      6  C   UNL     1      -2.926   2.886 -59.383  0.00  0.00    +0.000 A 
ATOM      7  C   UNL     1      -3.390   3.662 -61.508  0.00  0.00    +0.000 A 
ATOM      8  C   UNL     1      -2.731   2.531 -61.806  0.00  0.00    +0.000 A 
ENDROOT
BRANCH   5   9
ATOM      9  C   UNL     1      -3.987   4.944 -56.746  0.00  0.00    +0.000 A 
ATOM     10  C   UNL     1      -4.787   4.287 -55.800  0.00  0.00    +0.000 A 
ATOM     11  C   UNL     1      -3.460   6.201 -56.417  0.00  0.00    +0.000 A 
ATOM     12  C   UNL     1      -4.993   4.837 -54.532  0.00  0.00    +0.000 A 
ATOM     13  C   UNL     1      -3.651   6.744 -55.143  0.00  0.00    +0.000 A 
ATOM     14  C   UNL     1      -4.405   6.056 -54.198  0.00  0.00    +0.000 A 
ENDBRANCH   5   9
BRANCH   4  16
ATOM     15  N   UNL     1      -4.286   7.133 -59.909  0.00  0.00    +0.000 NA
ATOM     16  C   UNL     1      -4.791   5.957 -59.670  0.00  0.00    +0.000 C 
BRANCH  15  17
ATOM     17  O   UNL     1      -2.884   7.114 -59.878  0.00  0.00    +0.000 OA
BRANCH  17  18
ATOM     18  C   UNL     1      -2.365   8.439 -59.971  0.00  0.00    +0.000 C 
BRANCH  18  21
ATOM     19 CL   UNL     1      -0.192   8.018 -55.290  0.00  0.00    +0.000 Cl
ATOM     20 CL   UNL     1       2.598   9.055 -56.607  0.00  0.00    +0.000 Cl
ATOM     21  C   UNL     1      -1.114   8.501 -59.143  0.00  0.00    +0.000 A 
ATOM     22  C   UNL     1      -1.167   8.217 -57.774  0.00  0.00    +0.000 A 
ATOM     23  C   UNL     1       0.091   8.944 -59.706  0.00  0.00    +0.000 A 
ATOM     24  C   UNL     1      -0.034   8.370 -56.973  0.00  0.00    +0.000 A 
ATOM     25  C   UNL     1       1.226   9.099 -58.907  0.00  0.00    +0.000 A 
ATOM     26  C   UNL     1       1.166   8.816 -57.539  0.00  0.00    +0.000 A 
ENDBRANCH  18  21
ENDBRANCH  17  18
ENDBRANCH  15  17
ENDBRANCH   4  16
TORSDOF 5
ENDMDL
MODEL 10
REMARK VINA RESULT:      -5.3     18.035     20.134
REMARK  Name = 5906202
REMARK  5 active torsions:
REMARK  status: ('A' for Active; 'I' for Inactive)
REMARK    1  A    between atoms: O_4  and  N_7
REMARK    2  A    between atoms: O_4  and  C_20
REMARK    3  A    between atoms: C_8  and  C_13
REMARK    4  A    between atoms: C_9  and  C_11
REMARK    5  A    between atoms: C_17  and  C_20
REMARK                            x       y       z     vdW  Elec       q    Type
REMARK                         _______ _______ _______ _____ _____    ______ ____
ROOT
ATOM      1  S   UNL     1     -23.466  13.762 -52.327  0.00  0.00    +0.000 S 
ATOM      2  N   UNL     1     -23.129  12.728 -54.656  0.00  0.00    +0.000 N 
ATOM      3  N   UNL     1     -23.370  11.083 -53.166  0.00  0.00    +0.000 NA
ATOM      4  C   UNL     1     -22.999  11.574 -55.390  0.00  0.00    +0.000 A 
ATOM      5  C   UNL     1     -23.168  10.562 -54.437  0.00  0.00    +0.000 A 
ATOM      6  C   UNL     1     -23.304  12.369 -53.355  0.00  0.00    +0.000 A 
ATOM      7  C   UNL     1     -23.162  14.089 -54.890  0.00  0.00    +0.000 A 
ATOM      8  C   UNL     1     -23.308  14.793 -53.756  0.00  0.00    +0.000 A 
ENDROOT
BRANCH   5   9
ATOM      9  C   UNL     1     -23.193   9.125 -54.689  0.00  0.00    +0.000 A 
ATOM     10  C   UNL     1     -22.521   8.262 -53.812  0.00  0.00    +0.000 A 
ATOM     11  C   UNL     1     -23.887   8.569 -55.773  0.00  0.00    +0.000 A 
ATOM     12  C   UNL     1     -22.602   6.876 -53.973  0.00  0.00    +0.000 A 
ATOM     13  C   UNL     1     -23.983   7.184 -55.924  0.00  0.00    +0.000 A 
ATOM     14  C   UNL     1     -23.353   6.338 -55.016  0.00  0.00    +0.000 A 
ENDBRANCH   5   9
BRANCH   4  16
ATOM     15  N   UNL     1     -21.727  11.205 -57.460  0.00  0.00    +0.000 NA
ATOM     16  C   UNL     1     -22.823  11.485 -56.815  0.00  0.00    +0.000 C 
BRANCH  15  17
ATOM     17  O   UNL     1     -20.684  10.860 -56.589  0.00  0.00    +0.000 OA
BRANCH  17  18
ATOM     18  C   UNL     1     -19.629  10.217 -57.302  0.00  0.00    +0.000 C 
BRANCH  18  21
ATOM     19 CL   UNL     1     -22.036   5.899 -58.843  0.00  0.00    +0.000 Cl
ATOM     20 CL   UNL     1     -20.583   4.337 -56.384  0.00  0.00    +0.000 Cl
ATOM     21  C   UNL     1     -19.803   8.735 -57.138  0.00  0.00    +0.000 A 
ATOM     22  C   UNL     1     -20.678   8.037 -57.978  0.00  0.00    +0.000 A 
ATOM     23  C   UNL     1     -19.177   8.056 -56.084  0.00  0.00    +0.000 A 
ATOM     24  C   UNL     1     -20.927   6.678 -57.773  0.00  0.00    +0.000 A 
ATOM     25  C   UNL     1     -19.425   6.698 -55.875  0.00  0.00    +0.000 A 
ATOM     26  C   UNL     1     -20.302   6.007 -56.716  0.00  0.00    +0.000 A 
ENDBRANCH  18  21
ENDBRANCH  17  18
ENDBRANCH  15  17
ENDBRANCH   4  16
TORSDOF 5
ENDMDL
