REMARK  Name = 5906202
REMARK  5 active torsions:
REMARK  status: ('A' for Active; 'I' for Inactive)
REMARK    1  A    between atoms: O_4  and  N_7
REMARK    2  A    between atoms: O_4  and  C_20
REMARK    3  A    between atoms: C_8  and  C_13
REMARK    4  A    between atoms: C_9  and  C_11
REMARK    5  A    between atoms: C_17  and  C_20
REMARK                            x       y       z     vdW  Elec       q    Type
REMARK                         _______ _______ _______ _____ _____    ______ ____
ROOT
ATOM      1  S   UNL     1      -8.722  -2.406  -4.309  0.00  0.00    +0.000 S 
ATOM      2  N   UNL     1      -6.622  -0.966  -3.963  0.00  0.00    +0.000 N 
ATOM      3  N   UNL     1      -8.285  -0.120  -2.736  0.00  0.00    +0.000 NA
ATOM      4  C   UNL     1      -6.078   0.143  -3.360  0.00  0.00    +0.000 A 
ATOM      5  C   UNL     1      -7.134   0.644  -2.589  0.00  0.00    +0.000 A 
ATOM      6  C   UNL     1      -7.928  -1.039  -3.587  0.00  0.00    +0.000 A 
ATOM      7  C   UNL     1      -6.198  -1.994  -4.783  0.00  0.00    +0.000 A 
ATOM      8  C   UNL     1      -7.195  -2.839  -5.089  0.00  0.00    +0.000 A 
ENDROOT
BRANCH   5   9
ATOM      9  C   UNL     1      -7.084   1.786  -1.683  0.00  0.00    +0.000 A 
ATOM     10  C   UNL     1      -7.856   1.769  -0.512  0.00  0.00    +0.000 A 
ATOM     11  C   UNL     1      -6.271   2.901  -1.931  0.00  0.00    +0.000 A 
ATOM     12  C   UNL     1      -7.761   2.805   0.421  0.00  0.00    +0.000 A 
ATOM     13  C   UNL     1      -6.162   3.928  -0.990  0.00  0.00    +0.000 A 
ATOM     14  C   UNL     1      -6.896   3.873   0.191  0.00  0.00    +0.000 A 
ENDBRANCH   5   9
BRANCH   4  16
ATOM     15  N   UNL     1      -3.965   0.603  -4.526  0.00  0.00    +0.000 NA
ATOM     16  C   UNL     1      -4.713   0.586  -3.461  0.00  0.00    +0.000 C 
BRANCH  15  17
ATOM     17  O   UNL     1      -4.683   0.236  -5.673  0.00  0.00    +0.000 OA
BRANCH  17  18
ATOM     18  C   UNL     1      -3.810   0.126  -6.795  0.00  0.00    +0.000 C 
BRANCH  18  21
ATOM     19 CL   UNL     1      -2.212   4.983  -7.612  0.00  0.00    +0.000 Cl
ATOM     20 CL   UNL     1      -4.601   5.290  -9.801  0.00  0.00    +0.000 Cl
ATOM     21  C   UNL     1      -3.940   1.385  -7.603  0.00  0.00    +0.000 A 
ATOM     22  C   UNL     1      -3.101   2.474  -7.340  0.00  0.00    +0.000 A 
ATOM     23  C   UNL     1      -4.965   1.522  -8.549  0.00  0.00    +0.000 A 
ATOM     24  C   UNL     1      -3.278   3.685  -8.012  0.00  0.00    +0.000 A 
ATOM     25  C   UNL     1      -5.145   2.732  -9.222  0.00  0.00    +0.000 A 
ATOM     26  C   UNL     1      -4.305   3.817  -8.953  0.00  0.00    +0.000 A 
ENDBRANCH  18  21
ENDBRANCH  17  18
ENDBRANCH  15  17
ENDBRANCH   4  16
TORSDOF 5
