MODEL 1
REMARK VINA RESULT:      -6.8      0.000      0.000
REMARK  Name = 5906202
REMARK  5 active torsions:
REMARK  status: ('A' for Active; 'I' for Inactive)
REMARK    1  A    between atoms: O_4  and  N_7
REMARK    2  A    between atoms: O_4  and  C_20
REMARK    3  A    between atoms: C_8  and  C_13
REMARK    4  A    between atoms: C_9  and  C_11
REMARK    5  A    between atoms: C_17  and  C_20
REMARK                            x       y       z     vdW  Elec       q    Type
REMARK                         _______ _______ _______ _____ _____    ______ ____
ROOT
ATOM      1  S   UNL     1      -2.949 -15.411  12.143  0.00  0.00    +0.000 S 
ATOM      2  N   UNL     1      -2.159 -13.037  12.729  0.00  0.00    +0.000 N 
ATOM      3  N   UNL     1      -3.840 -12.896  11.265  0.00  0.00    +0.000 NA
ATOM      4  C   UNL     1      -2.307 -11.689  12.500  0.00  0.00    +0.000 A 
ATOM      5  C   UNL     1      -3.373 -11.629  11.594  0.00  0.00    +0.000 A 
ATOM      6  C   UNL     1      -3.060 -13.688  11.943  0.00  0.00    +0.000 A 
ATOM      7  C   UNL     1      -1.395 -13.858  13.535  0.00  0.00    +0.000 A 
ATOM      8  C   UNL     1      -1.666 -15.157  13.333  0.00  0.00    +0.000 A 
ENDROOT
BRANCH   5   9
ATOM      9  C   UNL     1      -3.996 -10.422  11.064  0.00  0.00    +0.000 A 
ATOM     10  C   UNL     1      -3.573  -9.916   9.826  0.00  0.00    +0.000 A 
ATOM     11  C   UNL     1      -5.026  -9.754  11.742  0.00  0.00    +0.000 A 
ATOM     12  C   UNL     1      -4.212  -8.815   9.248  0.00  0.00    +0.000 A 
ATOM     13  C   UNL     1      -5.677  -8.666  11.156  0.00  0.00    +0.000 A 
ATOM     14  C   UNL     1      -5.280  -8.205   9.904  0.00  0.00    +0.000 A 
ENDBRANCH   5   9
BRANCH   4  16
ATOM     15  N   UNL     1      -1.839 -10.064  14.282  0.00  0.00    +0.000 NA
ATOM     16  C   UNL     1      -1.574 -10.630  13.140  0.00  0.00    +0.000 C 
BRANCH  15  17
ATOM     17  O   UNL     1      -2.906 -10.691  14.940  0.00  0.00    +0.000 OA
BRANCH  17  18
ATOM     18  C   UNL     1      -2.641 -10.792  16.337  0.00  0.00    +0.000 C 
BRANCH  18  21
ATOM     19 CL   UNL     1      -7.568  -9.235  16.674  0.00  0.00    +0.000 Cl
ATOM     20 CL   UNL     1      -7.815 -10.957  19.424  0.00  0.00    +0.000 Cl
ATOM     21  C   UNL     1      -3.960 -10.900  17.048  0.00  0.00    +0.000 A 
ATOM     22  C   UNL     1      -5.062 -10.170  16.589  0.00  0.00    +0.000 A 
ATOM     23  C   UNL     1      -4.073 -11.642  18.231  0.00  0.00    +0.000 A 
ATOM     24  C   UNL     1      -6.265 -10.179  17.298  0.00  0.00    +0.000 A 
ATOM     25  C   UNL     1      -5.274 -11.653  18.943  0.00  0.00    +0.000 A 
ATOM     26  C   UNL     1      -6.371 -10.920  18.481  0.00  0.00    +0.000 A 
ENDBRANCH  18  21
ENDBRANCH  17  18
ENDBRANCH  15  17
ENDBRANCH   4  16
TORSDOF 5
ENDMDL
MODEL 2
REMARK VINA RESULT:      -6.1     24.332     26.922
REMARK  Name = 5906202
REMARK  5 active torsions:
REMARK  status: ('A' for Active; 'I' for Inactive)
REMARK    1  A    between atoms: O_4  and  N_7
REMARK    2  A    between atoms: O_4  and  C_20
REMARK    3  A    between atoms: C_8  and  C_13
REMARK    4  A    between atoms: C_9  and  C_11
REMARK    5  A    between atoms: C_17  and  C_20
REMARK                            x       y       z     vdW  Elec       q    Type
REMARK                         _______ _______ _______ _____ _____    ______ ____
ROOT
ATOM      1  S   UNL     1      15.541   7.796   4.484  0.00  0.00    +0.000 S 
ATOM      2  N   UNL     1      13.176   7.102   3.757  0.00  0.00    +0.000 N 
ATOM      3  N   UNL     1      13.198   7.370   5.974  0.00  0.00    +0.000 NA
ATOM      4  C   UNL     1      11.900   6.786   4.157  0.00  0.00    +0.000 A 
ATOM      5  C   UNL     1      11.938   6.976   5.544  0.00  0.00    +0.000 A 
ATOM      6  C   UNL     1      13.896   7.395   4.875  0.00  0.00    +0.000 A 
ATOM      7  C   UNL     1      13.874   7.225   2.571  0.00  0.00    +0.000 A 
ATOM      8  C   UNL     1      15.157   7.564   2.774  0.00  0.00    +0.000 A 
ENDROOT
BRANCH   5   9
ATOM      9  C   UNL     1      10.819   6.847   6.470  0.00  0.00    +0.000 A 
ATOM     10  C   UNL     1      10.494   5.582   6.984  0.00  0.00    +0.000 A 
ATOM     11  C   UNL     1      10.062   7.951   6.886  0.00  0.00    +0.000 A 
ATOM     12  C   UNL     1       9.487   5.438   7.943  0.00  0.00    +0.000 A 
ATOM     13  C   UNL     1       9.068   7.810   7.858  0.00  0.00    +0.000 A 
ATOM     14  C   UNL     1       8.791   6.556   8.396  0.00  0.00    +0.000 A 
ENDBRANCH   5   9
BRANCH   4  16
ATOM     15  N   UNL     1      10.610   5.312   2.674  0.00  0.00    +0.000 NA
ATOM     16  C   UNL     1      10.798   6.438   3.299  0.00  0.00    +0.000 C 
BRANCH  15  17
ATOM     17  O   UNL     1      11.576   4.357   3.019  0.00  0.00    +0.000 OA
BRANCH  17  18
ATOM     18  C   UNL     1      11.683   3.365   1.999  0.00  0.00    +0.000 C 
BRANCH  18  21
ATOM     19 CL   UNL     1      13.843   4.159  -2.639  0.00  0.00    +0.000 Cl
ATOM     20 CL   UNL     1      16.749   4.133  -1.175  0.00  0.00    +0.000 Cl
ATOM     21  C   UNL     1      12.931   3.649   1.213  0.00  0.00    +0.000 A 
ATOM     22  C   UNL     1      12.859   3.817  -0.175  0.00  0.00    +0.000 A 
ATOM     23  C   UNL     1      14.185   3.642   1.839  0.00  0.00    +0.000 A 
ATOM     24  C   UNL     1      14.021   3.978  -0.932  0.00  0.00    +0.000 A 
ATOM     25  C   UNL     1      15.349   3.803   1.084  0.00  0.00    +0.000 A 
ATOM     26  C   UNL     1      15.270   3.967  -0.302  0.00  0.00    +0.000 A 
ENDBRANCH  18  21
ENDBRANCH  17  18
ENDBRANCH  15  17
ENDBRANCH   4  16
TORSDOF 5
ENDMDL
MODEL 3
REMARK VINA RESULT:      -6.0     27.231     28.909
REMARK  Name = 5906202
REMARK  5 active torsions:
REMARK  status: ('A' for Active; 'I' for Inactive)
REMARK    1  A    between atoms: O_4  and  N_7
REMARK    2  A    between atoms: O_4  and  C_20
REMARK    3  A    between atoms: C_8  and  C_13
REMARK    4  A    between atoms: C_9  and  C_11
REMARK    5  A    between atoms: C_17  and  C_20
REMARK                            x       y       z     vdW  Elec       q    Type
REMARK                         _______ _______ _______ _____ _____    ______ ____
ROOT
ATOM      1  S   UNL     1      14.671  14.063  19.924  0.00  0.00    +0.000 S 
ATOM      2  N   UNL     1      14.514  11.841  18.643  0.00  0.00    +0.000 N 
ATOM      3  N   UNL     1      15.546  11.478  20.589  0.00  0.00    +0.000 NA
ATOM      4  C   UNL     1      14.826  10.503  18.625  0.00  0.00    +0.000 A 
ATOM      5  C   UNL     1      15.457  10.300  19.858  0.00  0.00    +0.000 A 
ATOM      6  C   UNL     1      14.999  12.361  19.803  0.00  0.00    +0.000 A 
ATOM      7  C   UNL     1      13.837  12.743  17.844  0.00  0.00    +0.000 A 
ATOM      8  C   UNL     1      13.846  13.981  18.362  0.00  0.00    +0.000 A 
ENDROOT
BRANCH   5   9
ATOM      9  C   UNL     1      15.936   9.030  20.392  0.00  0.00    +0.000 A 
ATOM     10  C   UNL     1      15.030   7.974  20.569  0.00  0.00    +0.000 A 
ATOM     11  C   UNL     1      17.282   8.817  20.719  0.00  0.00    +0.000 A 
ATOM     12  C   UNL     1      15.472   6.717  20.991  0.00  0.00    +0.000 A 
ATOM     13  C   UNL     1      17.728   7.556  21.124  0.00  0.00    +0.000 A 
ATOM     14  C   UNL     1      16.826   6.504  21.246  0.00  0.00    +0.000 A 
ENDBRANCH   5   9
BRANCH   4  16
ATOM     15  N   UNL     1      13.318   9.012  17.383  0.00  0.00    +0.000 NA
ATOM     16  C   UNL     1      14.480   9.560  17.595  0.00  0.00    +0.000 C 
BRANCH  15  17
ATOM     17  O   UNL     1      12.332   9.540  18.229  0.00  0.00    +0.000 OA
BRANCH  17  18
ATOM     18  C   UNL     1      11.793   8.520  19.066  0.00  0.00    +0.000 C 
BRANCH  18  21
ATOM     19 CL   UNL     1      12.077  12.686  22.128  0.00  0.00    +0.000 Cl
ATOM     20 CL   UNL     1      10.914  10.854  24.553  0.00  0.00    +0.000 Cl
ATOM     21  C   UNL     1      11.492   9.134  20.403  0.00  0.00    +0.000 A 
ATOM     22  C   UNL     1      11.814  10.475  20.644  0.00  0.00    +0.000 A 
ATOM     23  C   UNL     1      10.989   8.351  21.451  0.00  0.00    +0.000 A 
ATOM     24  C   UNL     1      11.635  11.031  21.912  0.00  0.00    +0.000 A 
ATOM     25  C   UNL     1      10.810   8.904  22.720  0.00  0.00    +0.000 A 
ATOM     26  C   UNL     1      11.135  10.243  22.955  0.00  0.00    +0.000 A 
ENDBRANCH  18  21
ENDBRANCH  17  18
ENDBRANCH  15  17
ENDBRANCH   4  16
TORSDOF 5
ENDMDL
MODEL 4
REMARK VINA RESULT:      -6.0     28.636     30.012
REMARK  Name = 5906202
REMARK  5 active torsions:
REMARK  status: ('A' for Active; 'I' for Inactive)
REMARK    1  A    between atoms: O_4  and  N_7
REMARK    2  A    between atoms: O_4  and  C_20
REMARK    3  A    between atoms: C_8  and  C_13
REMARK    4  A    between atoms: C_9  and  C_11
REMARK    5  A    between atoms: C_17  and  C_20
REMARK                            x       y       z     vdW  Elec       q    Type
REMARK                         _______ _______ _______ _____ _____    ______ ____
ROOT
ATOM      1  S   UNL     1       2.927  20.440  24.028  0.00  0.00    +0.000 S 
ATOM      2  N   UNL     1       3.324  17.903  23.922  0.00  0.00    +0.000 N 
ATOM      3  N   UNL     1       3.211  18.701  21.839  0.00  0.00    +0.000 NA
ATOM      4  C   UNL     1       3.468  16.797  23.118  0.00  0.00    +0.000 A 
ATOM      5  C   UNL     1       3.407  17.326  21.823  0.00  0.00    +0.000 A 
ATOM      6  C   UNL     1       3.137  18.979  23.110  0.00  0.00    +0.000 A 
ATOM      7  C   UNL     1       3.354  18.195  25.272  0.00  0.00    +0.000 A 
ATOM      8  C   UNL     1       3.134  19.498  25.510  0.00  0.00    +0.000 A 
ENDROOT
BRANCH   5   9
ATOM      9  C   UNL     1       3.576  16.591  20.575  0.00  0.00    +0.000 A 
ATOM     10  C   UNL     1       4.852  16.137  20.211  0.00  0.00    +0.000 A 
ATOM     11  C   UNL     1       2.497  16.303  19.726  0.00  0.00    +0.000 A 
ATOM     12  C   UNL     1       5.032  15.352  19.069  0.00  0.00    +0.000 A 
ATOM     13  C   UNL     1       2.674  15.503  18.594  0.00  0.00    +0.000 A 
ATOM     14  C   UNL     1       3.938  15.017  18.274  0.00  0.00    +0.000 A 
ENDBRANCH   5   9
BRANCH   4  16
ATOM     15  N   UNL     1       2.830  14.572  23.944  0.00  0.00    +0.000 NA
ATOM     16  C   UNL     1       3.712  15.449  23.558  0.00  0.00    +0.000 C 
BRANCH  15  17
ATOM     17  O   UNL     1       1.520  15.042  23.776  0.00  0.00    +0.000 OA
BRANCH  17  18
ATOM     18  C   UNL     1       0.931  14.474  22.609  0.00  0.00    +0.000 C 
BRANCH  18  21
ATOM     19 CL   UNL     1      -2.477  15.660  18.895  0.00  0.00    +0.000 Cl
ATOM     20 CL   UNL     1      -2.651  18.655  20.157  0.00  0.00    +0.000 Cl
ATOM     21  C   UNL     1      -0.033  15.478  22.045  0.00  0.00    +0.000 A 
ATOM     22  C   UNL     1      -0.781  15.165  20.905  0.00  0.00    +0.000 A 
ATOM     23  C   UNL     1      -0.114  16.769  22.586  0.00  0.00    +0.000 A 
ATOM     24  C   UNL     1      -1.604  16.124  20.310  0.00  0.00    +0.000 A 
ATOM     25  C   UNL     1      -0.935  17.730  21.994  0.00  0.00    +0.000 A 
ATOM     26  C   UNL     1      -1.679  17.412  20.853  0.00  0.00    +0.000 A 
ENDBRANCH  18  21
ENDBRANCH  17  18
ENDBRANCH  15  17
ENDBRANCH   4  16
TORSDOF 5
ENDMDL
MODEL 5
REMARK VINA RESULT:      -5.8     28.877     30.428
REMARK  Name = 5906202
REMARK  5 active torsions:
REMARK  status: ('A' for Active; 'I' for Inactive)
REMARK    1  A    between atoms: O_4  and  N_7
REMARK    2  A    between atoms: O_4  and  C_20
REMARK    3  A    between atoms: C_8  and  C_13
REMARK    4  A    between atoms: C_9  and  C_11
REMARK    5  A    between atoms: C_17  and  C_20
REMARK                            x       y       z     vdW  Elec       q    Type
REMARK                         _______ _______ _______ _____ _____    ______ ____
ROOT
ATOM      1  S   UNL     1       2.201  19.551  20.098  0.00  0.00    +0.000 S 
ATOM      2  N   UNL     1       2.527  18.209  22.265  0.00  0.00    +0.000 N 
ATOM      3  N   UNL     1       4.448  18.214  21.126  0.00  0.00    +0.000 NA
ATOM      4  C   UNL     1       3.384  17.450  23.026  0.00  0.00    +0.000 A 
ATOM      5  C   UNL     1       4.579  17.481  22.298  0.00  0.00    +0.000 A 
ATOM      6  C   UNL     1       3.201  18.592  21.146  0.00  0.00    +0.000 A 
ATOM      7  C   UNL     1       1.235  18.689  22.354  0.00  0.00    +0.000 A 
ATOM      8  C   UNL     1       0.886  19.403  21.272  0.00  0.00    +0.000 A 
ENDROOT
BRANCH   5   9
ATOM      9  C   UNL     1       5.852  16.887  22.691  0.00  0.00    +0.000 A 
ATOM     10  C   UNL     1       6.196  15.616  22.208  0.00  0.00    +0.000 A 
ATOM     11  C   UNL     1       6.762  17.554  23.524  0.00  0.00    +0.000 A 
ATOM     12  C   UNL     1       7.446  15.059  22.490  0.00  0.00    +0.000 A 
ATOM     13  C   UNL     1       8.019  17.005  23.792  0.00  0.00    +0.000 A 
ATOM     14  C   UNL     1       8.365  15.765  23.264  0.00  0.00    +0.000 A 
ENDBRANCH   5   9
BRANCH   4  16
ATOM     15  N   UNL     1       2.572  15.691  24.538  0.00  0.00    +0.000 NA
ATOM     16  C   UNL     1       3.093  16.861  24.306  0.00  0.00    +0.000 C 
BRANCH  15  17
ATOM     17  O   UNL     1       2.410  14.950  23.358  0.00  0.00    +0.000 OA
BRANCH  17  18
ATOM     18  C   UNL     1       1.047  14.567  23.193  0.00  0.00    +0.000 C 
BRANCH  18  21
ATOM     19 CL   UNL     1       2.260  15.932  18.347  0.00  0.00    +0.000 Cl
ATOM     20 CL   UNL     1      -0.775  17.059  18.015  0.00  0.00    +0.000 Cl
ATOM     21  C   UNL     1       0.577  15.102  21.870  0.00  0.00    +0.000 A 
ATOM     22  C   UNL     1       1.477  15.219  20.804  0.00  0.00    +0.000 A 
ATOM     23  C   UNL     1      -0.729  15.586  21.720  0.00  0.00    +0.000 A 
ATOM     24  C   UNL     1       1.081  15.809  19.603  0.00  0.00    +0.000 A 
ATOM     25  C   UNL     1      -1.128  16.177  20.520  0.00  0.00    +0.000 A 
ATOM     26  C   UNL     1      -0.224  16.293  19.460  0.00  0.00    +0.000 A 
ENDBRANCH  18  21
ENDBRANCH  17  18
ENDBRANCH  15  17
ENDBRANCH   4  16
TORSDOF 5
ENDMDL
MODEL 6
REMARK VINA RESULT:      -5.6     29.246     30.788
REMARK  Name = 5906202
REMARK  5 active torsions:
REMARK  status: ('A' for Active; 'I' for Inactive)
REMARK    1  A    between atoms: O_4  and  N_7
REMARK    2  A    between atoms: O_4  and  C_20
REMARK    3  A    between atoms: C_8  and  C_13
REMARK    4  A    between atoms: C_9  and  C_11
REMARK    5  A    between atoms: C_17  and  C_20
REMARK                            x       y       z     vdW  Elec       q    Type
REMARK                         _______ _______ _______ _____ _____    ______ ____
ROOT
ATOM      1  S   UNL     1       6.239  19.911  25.825  0.00  0.00    +0.000 S 
ATOM      2  N   UNL     1       6.098  17.852  24.294  0.00  0.00    +0.000 N 
ATOM      3  N   UNL     1       4.056  18.313  25.070  0.00  0.00    +0.000 NA
ATOM      4  C   UNL     1       5.296  16.872  23.761  0.00  0.00    +0.000 A 
ATOM      5  C   UNL     1       4.024  17.191  24.250  0.00  0.00    +0.000 A 
ATOM      6  C   UNL     1       5.317  18.638  25.083  0.00  0.00    +0.000 A 
ATOM      7  C   UNL     1       7.420  18.246  24.213  0.00  0.00    +0.000 A 
ATOM      8  C   UNL     1       7.676  19.313  24.987  0.00  0.00    +0.000 A 
ENDROOT
BRANCH   5   9
ATOM      9  C   UNL     1       2.773  16.509  23.935  0.00  0.00    +0.000 A 
ATOM     10  C   UNL     1       1.572  17.233  23.952  0.00  0.00    +0.000 A 
ATOM     11  C   UNL     1       2.730  15.150  23.594  0.00  0.00    +0.000 A 
ATOM     12  C   UNL     1       0.371  16.632  23.566  0.00  0.00    +0.000 A 
ATOM     13  C   UNL     1       1.532  14.554  23.191  0.00  0.00    +0.000 A 
ATOM     14  C   UNL     1       0.357  15.298  23.164  0.00  0.00    +0.000 A 
ENDBRANCH   5   9
BRANCH   4  16
ATOM     15  N   UNL     1       5.519  15.805  21.559  0.00  0.00    +0.000 NA
ATOM     16  C   UNL     1       5.704  15.838  22.847  0.00  0.00    +0.000 C 
BRANCH  15  17
ATOM     17  O   UNL     1       4.950  16.995  21.083  0.00  0.00    +0.000 OA
BRANCH  17  18
ATOM     18  C   UNL     1       4.558  16.851  19.720  0.00  0.00    +0.000 C 
BRANCH  18  21
ATOM     19 CL   UNL     1      -0.215  18.675  20.560  0.00  0.00    +0.000 Cl
ATOM     20 CL   UNL     1      -1.351  15.684  19.962  0.00  0.00    +0.000 Cl
ATOM     21  C   UNL     1       3.078  16.593  19.693  0.00  0.00    +0.000 A 
ATOM     22  C   UNL     1       2.185  17.616  20.034  0.00  0.00    +0.000 A 
ATOM     23  C   UNL     1       2.583  15.308  19.434  0.00  0.00    +0.000 A 
ATOM     24  C   UNL     1       0.814  17.363  20.113  0.00  0.00    +0.000 A 
ATOM     25  C   UNL     1       1.213  15.052  19.513  0.00  0.00    +0.000 A 
ATOM     26  C   UNL     1       0.326  16.077  19.856  0.00  0.00    +0.000 A 
ENDBRANCH  18  21
ENDBRANCH  17  18
ENDBRANCH  15  17
ENDBRANCH   4  16
TORSDOF 5
ENDMDL
MODEL 7
REMARK VINA RESULT:      -5.5     29.742     31.057
REMARK  Name = 5906202
REMARK  5 active torsions:
REMARK  status: ('A' for Active; 'I' for Inactive)
REMARK    1  A    between atoms: O_4  and  N_7
REMARK    2  A    between atoms: O_4  and  C_20
REMARK    3  A    between atoms: C_8  and  C_13
REMARK    4  A    between atoms: C_9  and  C_11
REMARK    5  A    between atoms: C_17  and  C_20
REMARK                            x       y       z     vdW  Elec       q    Type
REMARK                         _______ _______ _______ _____ _____    ______ ____
ROOT
ATOM      1  S   UNL     1       5.816  18.984  20.238  0.00  0.00    +0.000 S 
ATOM      2  N   UNL     1       3.584  19.143  21.502  0.00  0.00    +0.000 N 
ATOM      3  N   UNL     1       3.487  17.421  20.082  0.00  0.00    +0.000 NA
ATOM      4  C   UNL     1       2.317  18.634  21.661  0.00  0.00    +0.000 A 
ATOM      5  C   UNL     1       2.289  17.551  20.773  0.00  0.00    +0.000 A 
ATOM      6  C   UNL     1       4.202  18.412  20.533  0.00  0.00    +0.000 A 
ATOM      7  C   UNL     1       4.366  20.132  22.066  0.00  0.00    +0.000 A 
ATOM      8  C   UNL     1       5.578  20.205  21.495  0.00  0.00    +0.000 A 
ENDROOT
BRANCH   5   9
ATOM      9  C   UNL     1       1.192  16.607  20.587  0.00  0.00    +0.000 A 
ATOM     10  C   UNL     1       1.271  15.337  21.177  0.00  0.00    +0.000 A 
ATOM     11  C   UNL     1       0.043  16.933  19.852  0.00  0.00    +0.000 A 
ATOM     12  C   UNL     1       0.200  14.444  21.095  0.00  0.00    +0.000 A 
ATOM     13  C   UNL     1      -1.035  16.047  19.786  0.00  0.00    +0.000 A 
ATOM     14  C   UNL     1      -0.962  14.810  20.419  0.00  0.00    +0.000 A 
ENDBRANCH   5   9
BRANCH   4  16
ATOM     15  N   UNL     1       0.972  18.516  23.713  0.00  0.00    +0.000 NA
ATOM     16  C   UNL     1       1.327  19.089  22.600  0.00  0.00    +0.000 C 
BRANCH  15  17
ATOM     17  O   UNL     1       1.770  17.400  24.002  0.00  0.00    +0.000 OA
BRANCH  17  18
ATOM     18  C   UNL     1       2.785  17.742  24.944  0.00  0.00    +0.000 C 
BRANCH  18  21
ATOM     19 CL   UNL     1       7.885  18.464  24.411  0.00  0.00    +0.000 Cl
ATOM     20 CL   UNL     1       7.956  15.818  22.517  0.00  0.00    +0.000 Cl
ATOM     21  C   UNL     1       4.092  17.220  24.420  0.00  0.00    +0.000 A 
ATOM     22  C   UNL     1       5.274  17.933  24.655  0.00  0.00    +0.000 A 
ATOM     23  C   UNL     1       4.129  16.080  23.607  0.00  0.00    +0.000 A 
ATOM     24  C   UNL     1       6.479  17.515  24.088  0.00  0.00    +0.000 A 
ATOM     25  C   UNL     1       5.333  15.660  23.037  0.00  0.00    +0.000 A 
ATOM     26  C   UNL     1       6.510  16.378  23.273  0.00  0.00    +0.000 A 
ENDBRANCH  18  21
ENDBRANCH  17  18
ENDBRANCH  15  17
ENDBRANCH   4  16
TORSDOF 5
ENDMDL
MODEL 8
REMARK VINA RESULT:      -5.5     29.281     30.555
REMARK  Name = 5906202
REMARK  5 active torsions:
REMARK  status: ('A' for Active; 'I' for Inactive)
REMARK    1  A    between atoms: O_4  and  N_7
REMARK    2  A    between atoms: O_4  and  C_20
REMARK    3  A    between atoms: C_8  and  C_13
REMARK    4  A    between atoms: C_9  and  C_11
REMARK    5  A    between atoms: C_17  and  C_20
REMARK                            x       y       z     vdW  Elec       q    Type
REMARK                         _______ _______ _______ _____ _____    ______ ____
ROOT
ATOM      1  S   UNL     1       4.769  19.310  16.823  0.00  0.00    +0.000 S 
ATOM      2  N   UNL     1       5.305  17.115  18.046  0.00  0.00    +0.000 N 
ATOM      3  N   UNL     1       3.267  17.797  18.653  0.00  0.00    +0.000 NA
ATOM      4  C   UNL     1       4.882  16.176  18.957  0.00  0.00    +0.000 A 
ATOM      5  C   UNL     1       3.601  16.619  19.309  0.00  0.00    +0.000 A 
ATOM      6  C   UNL     1       4.329  18.058  17.945  0.00  0.00    +0.000 A 
ATOM      7  C   UNL     1       6.395  17.320  17.222  0.00  0.00    +0.000 A 
ATOM      8  C   UNL     1       6.288  18.458  16.518  0.00  0.00    +0.000 A 
ENDROOT
BRANCH   5   9
ATOM      9  C   UNL     1       2.664  15.948  20.202  0.00  0.00    +0.000 A 
ATOM     10  C   UNL     1       2.811  16.094  21.589  0.00  0.00    +0.000 A 
ATOM     11  C   UNL     1       1.599  15.173  19.721  0.00  0.00    +0.000 A 
ATOM     12  C   UNL     1       1.877  15.541  22.469  0.00  0.00    +0.000 A 
ATOM     13  C   UNL     1       0.655  14.635  20.599  0.00  0.00    +0.000 A 
ATOM     14  C   UNL     1       0.786  14.830  21.971  0.00  0.00    +0.000 A 
ENDBRANCH   5   9
BRANCH   4  16
ATOM     15  N   UNL     1       6.451  14.866  20.320  0.00  0.00    +0.000 NA
ATOM     16  C   UNL     1       5.592  14.988  19.350  0.00  0.00    +0.000 C 
BRANCH  15  17
ATOM     17  O   UNL     1       6.551  16.042  21.078  0.00  0.00    +0.000 OA
BRANCH  17  18
ATOM     18  C   UNL     1       7.301  15.806  22.268  0.00  0.00    +0.000 C 
BRANCH  18  21
ATOM     19 CL   UNL     1       3.307  17.700  24.965  0.00  0.00    +0.000 Cl
ATOM     20 CL   UNL     1       5.329  19.938  26.188  0.00  0.00    +0.000 Cl
ATOM     21  C   UNL     1       6.820  16.772  23.312  0.00  0.00    +0.000 A 
ATOM     22  C   UNL     1       5.471  16.785  23.684  0.00  0.00    +0.000 A 
ATOM     23  C   UNL     1       7.687  17.736  23.845  0.00  0.00    +0.000 A 
ATOM     24  C   UNL     1       4.989  17.744  24.577  0.00  0.00    +0.000 A 
ATOM     25  C   UNL     1       7.208  18.697  24.737  0.00  0.00    +0.000 A 
ATOM     26  C   UNL     1       5.858  18.706  25.103  0.00  0.00    +0.000 A 
ENDBRANCH  18  21
ENDBRANCH  17  18
ENDBRANCH  15  17
ENDBRANCH   4  16
TORSDOF 5
ENDMDL
MODEL 9
REMARK VINA RESULT:      -5.4     26.587     28.004
REMARK  Name = 5906202
REMARK  5 active torsions:
REMARK  status: ('A' for Active; 'I' for Inactive)
REMARK    1  A    between atoms: O_4  and  N_7
REMARK    2  A    between atoms: O_4  and  C_20
REMARK    3  A    between atoms: C_8  and  C_13
REMARK    4  A    between atoms: C_9  and  C_11
REMARK    5  A    between atoms: C_17  and  C_20
REMARK                            x       y       z     vdW  Elec       q    Type
REMARK                         _______ _______ _______ _____ _____    ______ ____
ROOT
ATOM      1  S   UNL     1      -7.416 -10.231  39.947  0.00  0.00    +0.000 S 
ATOM      2  N   UNL     1      -7.892  -8.355  41.638  0.00  0.00    +0.000 N 
ATOM      3  N   UNL     1      -8.429  -7.636  39.593  0.00  0.00    +0.000 NA
ATOM      4  C   UNL     1      -8.314  -7.061  41.826  0.00  0.00    +0.000 A 
ATOM      5  C   UNL     1      -8.657  -6.640  40.535  0.00  0.00    +0.000 A 
ATOM      6  C   UNL     1      -7.946  -8.615  40.303  0.00  0.00    +0.000 A 
ATOM      7  C   UNL     1      -7.480  -9.419  42.417  0.00  0.00    +0.000 A 
ATOM      8  C   UNL     1      -7.161 -10.493  41.678  0.00  0.00    +0.000 A 
ENDROOT
BRANCH   5   9
ATOM      9  C   UNL     1      -9.235  -5.354  40.165  0.00  0.00    +0.000 A 
ATOM     10  C   UNL     1      -8.392  -4.247  39.983  0.00  0.00    +0.000 A 
ATOM     11  C   UNL     1     -10.612  -5.184  39.962  0.00  0.00    +0.000 A 
ATOM     12  C   UNL     1      -8.903  -3.025  39.539  0.00  0.00    +0.000 A 
ATOM     13  C   UNL     1     -11.121  -3.968  39.501  0.00  0.00    +0.000 A 
ATOM     14  C   UNL     1     -10.265  -2.893  39.276  0.00  0.00    +0.000 A 
ENDBRANCH   5   9
BRANCH   4  16
ATOM     15  N   UNL     1      -7.633  -5.489  43.587  0.00  0.00    +0.000 NA
ATOM     16  C   UNL     1      -8.440  -6.379  43.087  0.00  0.00    +0.000 C 
BRANCH  15  17
ATOM     17  O   UNL     1      -6.619  -5.139  42.685  0.00  0.00    +0.000 OA
BRANCH  17  18
ATOM     18  C   UNL     1      -5.348  -5.569  43.168  0.00  0.00    +0.000 C 
BRANCH  18  21
ATOM     19 CL   UNL     1      -0.878  -4.006  41.075  0.00  0.00    +0.000 Cl
ATOM     20 CL   UNL     1      -1.761  -5.507  38.326  0.00  0.00    +0.000 Cl
ATOM     21  C   UNL     1      -4.407  -5.625  42.000  0.00  0.00    +0.000 A 
ATOM     22  C   UNL     1      -3.190  -4.937  42.050  0.00  0.00    +0.000 A 
ATOM     23  C   UNL     1      -4.780  -6.273  40.814  0.00  0.00    +0.000 A 
ATOM     24  C   UNL     1      -2.352  -4.895  40.934  0.00  0.00    +0.000 A 
ATOM     25  C   UNL     1      -3.945  -6.232  39.696  0.00  0.00    +0.000 A 
ATOM     26  C   UNL     1      -2.731  -5.540  39.752  0.00  0.00    +0.000 A 
ENDBRANCH  18  21
ENDBRANCH  17  18
ENDBRANCH  15  17
ENDBRANCH   4  16
TORSDOF 5
ENDMDL
MODEL 10
REMARK VINA RESULT:      -5.4     24.722     26.081
REMARK  Name = 5906202
REMARK  5 active torsions:
REMARK  status: ('A' for Active; 'I' for Inactive)
REMARK    1  A    between atoms: O_4  and  N_7
REMARK    2  A    between atoms: O_4  and  C_20
REMARK    3  A    between atoms: C_8  and  C_13
REMARK    4  A    between atoms: C_9  and  C_11
REMARK    5  A    between atoms: C_17  and  C_20
REMARK                            x       y       z     vdW  Elec       q    Type
REMARK                         _______ _______ _______ _____ _____    ______ ____
ROOT
ATOM      1  S   UNL     1      22.425  -5.609  26.710  0.00  0.00    +0.000 S 
ATOM      2  N   UNL     1      19.966  -5.968  26.055  0.00  0.00    +0.000 N 
ATOM      3  N   UNL     1      20.579  -3.908  25.450  0.00  0.00    +0.000 NA
ATOM      4  C   UNL     1      18.832  -5.416  25.510  0.00  0.00    +0.000 A 
ATOM      5  C   UNL     1      19.246  -4.134  25.128  0.00  0.00    +0.000 A 
ATOM      6  C   UNL     1      20.941  -5.018  26.026  0.00  0.00    +0.000 A 
ATOM      7  C   UNL     1      20.364  -7.188  26.567  0.00  0.00    +0.000 A 
ATOM      8  C   UNL     1      21.638  -7.168  26.988  0.00  0.00    +0.000 A 
ENDROOT
BRANCH   5   9
ATOM      9  C   UNL     1      18.448  -3.134  24.427  0.00  0.00    +0.000 A 
ATOM     10  C   UNL     1      17.786  -2.143  25.166  0.00  0.00    +0.000 A 
ATOM     11  C   UNL     1      18.332  -3.116  23.030  0.00  0.00    +0.000 A 
ATOM     12  C   UNL     1      17.089  -1.117  24.521  0.00  0.00    +0.000 A 
ATOM     13  C   UNL     1      17.651  -2.081  22.385  0.00  0.00    +0.000 A 
ATOM     14  C   UNL     1      17.041  -1.075  23.129  0.00  0.00    +0.000 A 
ENDBRANCH   5   9
BRANCH   4  16
ATOM     15  N   UNL     1      16.627  -6.250  26.200  0.00  0.00    +0.000 NA
ATOM     16  C   UNL     1      17.568  -6.077  25.318  0.00  0.00    +0.000 C 
BRANCH  15  17
ATOM     17  O   UNL     1      16.914  -5.596  27.406  0.00  0.00    +0.000 OA
BRANCH  17  18
ATOM     18  C   UNL     1      16.850  -6.509  28.498  0.00  0.00    +0.000 C 
BRANCH  18  21
ATOM     19 CL   UNL     1      15.077  -3.388  32.230  0.00  0.00    +0.000 Cl
ATOM     20 CL   UNL     1      12.332  -5.136  32.244  0.00  0.00    +0.000 Cl
ATOM     21  C   UNL     1      15.697  -6.102  29.370  0.00  0.00    +0.000 A 
ATOM     22  C   UNL     1      15.838  -5.033  30.262  0.00  0.00    +0.000 A 
ATOM     23  C   UNL     1      14.511  -6.850  29.378  0.00  0.00    +0.000 A 
ATOM     24  C   UNL     1      14.811  -4.709  31.150  0.00  0.00    +0.000 A 
ATOM     25  C   UNL     1      13.483  -6.528  30.266  0.00  0.00    +0.000 A 
ATOM     26  C   UNL     1      13.631  -5.460  31.156  0.00  0.00    +0.000 A 
ENDBRANCH  18  21
ENDBRANCH  17  18
ENDBRANCH  15  17
ENDBRANCH   4  16
TORSDOF 5
ENDMDL
