MODEL 1
REMARK VINA RESULT:      -5.0      0.000      0.000
REMARK  Name = 5912745
REMARK  5 active torsions:
REMARK  status: ('A' for Active; 'I' for Inactive)
REMARK    1  A    between atoms: O_5  and  N_8
REMARK    2  A    between atoms: O_5  and  C_21
REMARK    3  A    between atoms: C_9  and  C_14
REMARK    4  A    between atoms: C_10  and  C_12
REMARK    5  A    between atoms: C_20  and  C_21
REMARK                            x       y       z     vdW  Elec       q    Type
REMARK                         _______ _______ _______ _____ _____    ______ ____
ROOT
ATOM      1  S   UNL     1      -4.202  -0.633 -32.127  0.00  0.00    +0.000 S 
ATOM      2  N   UNL     1      -6.531   0.340 -32.611  0.00  0.00    +0.000 N 
ATOM      3  N   UNL     1      -4.997   1.566 -33.677  0.00  0.00    +0.000 NA
ATOM      4  C   UNL     1      -7.253   1.287 -33.293  0.00  0.00    +0.000 A 
ATOM      5  C   UNL     1      -6.269   2.065 -33.913  0.00  0.00    +0.000 A 
ATOM      6  C   UNL     1      -5.214   0.551 -32.893  0.00  0.00    +0.000 A 
ATOM      7  C   UNL     1      -6.785  -0.741 -31.795  0.00  0.00    +0.000 A 
ATOM      8  C   UNL     1      -5.653  -1.376 -31.439  0.00  0.00    +0.000 A 
ENDROOT
BRANCH   5  10
ATOM      9 CL   UNL     1      -7.060   6.926 -37.309  0.00  0.00    +0.000 Cl
ATOM     10  C   UNL     1      -6.477   3.257 -34.723  0.00  0.00    +0.000 A 
ATOM     11  C   UNL     1      -5.776   3.399 -35.930  0.00  0.00    +0.000 A 
ATOM     12  C   UNL     1      -7.327   4.295 -34.313  0.00  0.00    +0.000 A 
ATOM     13  C   UNL     1      -5.954   4.533 -36.731  0.00  0.00    +0.000 A 
ATOM     14  C   UNL     1      -7.514   5.424 -35.117  0.00  0.00    +0.000 A 
ATOM     15  C   UNL     1      -6.830   5.535 -36.324  0.00  0.00    +0.000 A 
ENDBRANCH   5  10
BRANCH   4  17
ATOM     16  N   UNL     1      -9.350   2.139 -32.546  0.00  0.00    +0.000 NA
ATOM     17  C   UNL     1      -8.681   1.385 -33.356  0.00  0.00    +0.000 C 
BRANCH  16  18
ATOM     18  O   UNL     1     -10.715   2.045 -32.878  0.00  0.00    +0.000 OA
BRANCH  18  19
ATOM     19  C   UNL     1     -11.407   3.186 -32.364  0.00  0.00    +0.000 C 
BRANCH  19  22
ATOM     20 CL   UNL     1     -11.225   4.700 -37.346  0.00  0.00    +0.000 Cl
ATOM     21 CL   UNL     1     -10.997   7.770 -36.294  0.00  0.00    +0.000 Cl
ATOM     22  C   UNL     1     -11.306   4.314 -33.363  0.00  0.00    +0.000 A 
ATOM     23  C   UNL     1     -11.312   4.057 -34.742  0.00  0.00    +0.000 A 
ATOM     24  C   UNL     1     -11.197   5.640 -32.923  0.00  0.00    +0.000 A 
ATOM     25  C   UNL     1     -11.215   5.106 -35.665  0.00  0.00    +0.000 A 
ATOM     26  C   UNL     1     -11.102   6.689 -33.843  0.00  0.00    +0.000 A 
ATOM     27  C   UNL     1     -11.112   6.426 -35.215  0.00  0.00    +0.000 A 
ENDBRANCH  19  22
ENDBRANCH  18  19
ENDBRANCH  16  18
ENDBRANCH   4  17
TORSDOF 5
ENDMDL
MODEL 2
REMARK VINA RESULT:      -5.0     20.338     22.627
REMARK  Name = 5912745
REMARK  5 active torsions:
REMARK  status: ('A' for Active; 'I' for Inactive)
REMARK    1  A    between atoms: O_5  and  N_8
REMARK    2  A    between atoms: O_5  and  C_21
REMARK    3  A    between atoms: C_9  and  C_14
REMARK    4  A    between atoms: C_10  and  C_12
REMARK    5  A    between atoms: C_20  and  C_21
REMARK                            x       y       z     vdW  Elec       q    Type
REMARK                         _______ _______ _______ _____ _____    ______ ____
ROOT
ATOM      1  S   UNL     1      -4.385   5.212 -59.490  0.00  0.00    +0.000 S 
ATOM      2  N   UNL     1      -4.193   2.862 -58.464  0.00  0.00    +0.000 N 
ATOM      3  N   UNL     1      -4.745   4.313 -56.857  0.00  0.00    +0.000 NA
ATOM      4  C   UNL     1      -4.329   2.096 -57.334  0.00  0.00    +0.000 A 
ATOM      5  C   UNL     1      -4.629   3.032 -56.339  0.00  0.00    +0.000 A 
ATOM      6  C   UNL     1      -4.467   4.152 -58.118  0.00  0.00    +0.000 A 
ATOM      7  C   UNL     1      -3.912   2.667 -59.800  0.00  0.00    +0.000 A 
ATOM      8  C   UNL     1      -3.968   3.817 -60.496  0.00  0.00    +0.000 A 
ENDROOT
BRANCH   5  10
ATOM      9 CL   UNL     1      -5.446   1.868 -50.528  0.00  0.00    +0.000 Cl
ATOM     10  C   UNL     1      -4.817   2.769 -54.918  0.00  0.00    +0.000 A 
ATOM     11  C   UNL     1      -5.496   1.609 -54.518  0.00  0.00    +0.000 A 
ATOM     12  C   UNL     1      -4.377   3.666 -53.933  0.00  0.00    +0.000 A 
ATOM     13  C   UNL     1      -5.693   1.329 -53.161  0.00  0.00    +0.000 A 
ATOM     14  C   UNL     1      -4.564   3.382 -52.576  0.00  0.00    +0.000 A 
ATOM     15  C   UNL     1      -5.216   2.213 -52.197  0.00  0.00    +0.000 A 
ENDBRANCH   5  10
BRANCH   4  17
ATOM     16  N   UNL     1      -5.136  -0.111 -57.729  0.00  0.00    +0.000 NA
ATOM     17  C   UNL     1      -4.220   0.670 -57.257  0.00  0.00    +0.000 C 
BRANCH  16  18
ATOM     18  O   UNL     1      -4.726  -1.444 -57.530  0.00  0.00    +0.000 OA
BRANCH  18  19
ATOM     19  C   UNL     1      -5.878  -2.269 -57.338  0.00  0.00    +0.000 C 
BRANCH  19  22
ATOM     20 CL   UNL     1      -9.302  -0.312 -53.935  0.00  0.00    +0.000 Cl
ATOM     21 CL   UNL     1      -7.656  -1.823 -51.570  0.00  0.00    +0.000 Cl
ATOM     22  C   UNL     1      -6.340  -2.144 -55.906  0.00  0.00    +0.000 A 
ATOM     23  C   UNL     1      -7.474  -1.386 -55.579  0.00  0.00    +0.000 A 
ATOM     24  C   UNL     1      -5.633  -2.781 -54.877  0.00  0.00    +0.000 A 
ATOM     25  C   UNL     1      -7.898  -1.269 -54.249  0.00  0.00    +0.000 A 
ATOM     26  C   UNL     1      -6.056  -2.668 -53.549  0.00  0.00    +0.000 A 
ATOM     27  C   UNL     1      -7.189  -1.914 -53.231  0.00  0.00    +0.000 A 
ENDBRANCH  19  22
ENDBRANCH  18  19
ENDBRANCH  16  18
ENDBRANCH   4  17
TORSDOF 5
ENDMDL
MODEL 3
REMARK VINA RESULT:      -4.8     24.629     27.101
REMARK  Name = 5912745
REMARK  5 active torsions:
REMARK  status: ('A' for Active; 'I' for Inactive)
REMARK    1  A    between atoms: O_5  and  N_8
REMARK    2  A    between atoms: O_5  and  C_21
REMARK    3  A    between atoms: C_9  and  C_14
REMARK    4  A    between atoms: C_10  and  C_12
REMARK    5  A    between atoms: C_20  and  C_21
REMARK                            x       y       z     vdW  Elec       q    Type
REMARK                         _______ _______ _______ _____ _____    ______ ____
ROOT
ATOM      1  S   UNL     1     -24.402   6.806 -51.047  0.00  0.00    +0.000 S 
ATOM      2  N   UNL     1     -22.766   7.314 -52.964  0.00  0.00    +0.000 N 
ATOM      3  N   UNL     1     -24.167   5.700 -53.615  0.00  0.00    +0.000 NA
ATOM      4  C   UNL     1     -22.404   7.040 -54.259  0.00  0.00    +0.000 A 
ATOM      5  C   UNL     1     -23.265   5.999 -54.624  0.00  0.00    +0.000 A 
ATOM      6  C   UNL     1     -23.817   6.504 -52.653  0.00  0.00    +0.000 A 
ATOM      7  C   UNL     1     -22.389   8.185 -51.964  0.00  0.00    +0.000 A 
ATOM      8  C   UNL     1     -23.156   8.049 -50.867  0.00  0.00    +0.000 A 
ENDROOT
BRANCH   5  10
ATOM      9 CL   UNL     1     -23.230   2.986 -59.793  0.00  0.00    +0.000 Cl
ATOM     10  C   UNL     1     -23.277   5.277 -55.890  0.00  0.00    +0.000 A 
ATOM     11  C   UNL     1     -22.234   4.385 -56.182  0.00  0.00    +0.000 A 
ATOM     12  C   UNL     1     -24.280   5.477 -56.850  0.00  0.00    +0.000 A 
ATOM     13  C   UNL     1     -22.216   3.677 -57.389  0.00  0.00    +0.000 A 
ATOM     14  C   UNL     1     -24.270   4.763 -58.052  0.00  0.00    +0.000 A 
ATOM     15  C   UNL     1     -23.240   3.863 -58.313  0.00  0.00    +0.000 A 
ENDBRANCH   5  10
BRANCH   4  17
ATOM     16  N   UNL     1     -20.256   7.177 -55.282  0.00  0.00    +0.000 NA
ATOM     17  C   UNL     1     -21.402   7.719 -55.023  0.00  0.00    +0.000 C 
BRANCH  16  18
ATOM     18  O   UNL     1     -19.511   8.074 -56.072  0.00  0.00    +0.000 OA
BRANCH  18  19
ATOM     19  C   UNL     1     -19.341   7.524 -57.380  0.00  0.00    +0.000 C 
BRANCH  19  22
ATOM     20 CL   UNL     1     -21.598  11.492 -59.888  0.00  0.00    +0.000 Cl
ATOM     21 CL   UNL     1     -23.854   9.402 -60.948  0.00  0.00    +0.000 Cl
ATOM     22  C   UNL     1     -20.458   8.014 -58.269  0.00  0.00    +0.000 A 
ATOM     23  C   UNL     1     -20.536   9.362 -58.650  0.00  0.00    +0.000 A 
ATOM     24  C   UNL     1     -21.442   7.126 -58.724  0.00  0.00    +0.000 A 
ATOM     25  C   UNL     1     -21.575   9.815 -59.473  0.00  0.00    +0.000 A 
ATOM     26  C   UNL     1     -22.479   7.575 -59.547  0.00  0.00    +0.000 A 
ATOM     27  C   UNL     1     -22.549   8.918 -59.925  0.00  0.00    +0.000 A 
ENDBRANCH  19  22
ENDBRANCH  18  19
ENDBRANCH  16  18
ENDBRANCH   4  17
TORSDOF 5
ENDMDL
MODEL 4
REMARK VINA RESULT:      -4.8     22.222     24.017
REMARK  Name = 5912745
REMARK  5 active torsions:
REMARK  status: ('A' for Active; 'I' for Inactive)
REMARK    1  A    between atoms: O_5  and  N_8
REMARK    2  A    between atoms: O_5  and  C_21
REMARK    3  A    between atoms: C_9  and  C_14
REMARK    4  A    between atoms: C_10  and  C_12
REMARK    5  A    between atoms: C_20  and  C_21
REMARK                            x       y       z     vdW  Elec       q    Type
REMARK                         _______ _______ _______ _____ _____    ______ ____
ROOT
ATOM      1  S   UNL     1     -26.369   1.930 -46.275  0.00  0.00    +0.000 S 
ATOM      2  N   UNL     1     -25.853   2.608 -48.700  0.00  0.00    +0.000 N 
ATOM      3  N   UNL     1     -25.633   4.400 -47.384  0.00  0.00    +0.000 NA
ATOM      4  C   UNL     1     -25.451   3.613 -49.543  0.00  0.00    +0.000 A 
ATOM      5  C   UNL     1     -25.365   4.729 -48.704  0.00  0.00    +0.000 A 
ATOM      6  C   UNL     1     -25.924   3.134 -47.444  0.00  0.00    +0.000 A 
ATOM      7  C   UNL     1     -26.142   1.263 -48.784  0.00  0.00    +0.000 A 
ATOM      8  C   UNL     1     -26.442   0.740 -47.581  0.00  0.00    +0.000 A 
ENDROOT
BRANCH   5  10
ATOM      9 CL   UNL     1     -24.101  10.343 -50.339  0.00  0.00    +0.000 Cl
ATOM     10  C   UNL     1     -25.035   6.094 -49.093  0.00  0.00    +0.000 A 
ATOM     11  C   UNL     1     -25.986   6.862 -49.781  0.00  0.00    +0.000 A 
ATOM     12  C   UNL     1     -23.774   6.654 -48.839  0.00  0.00    +0.000 A 
ATOM     13  C   UNL     1     -25.700   8.175 -50.169  0.00  0.00    +0.000 A 
ATOM     14  C   UNL     1     -23.489   7.970 -49.216  0.00  0.00    +0.000 A 
ATOM     15  C   UNL     1     -24.455   8.726 -49.875  0.00  0.00    +0.000 A 
ENDBRANCH   5  10
BRANCH   4  17
ATOM     16  N   UNL     1     -26.098   3.405 -51.828  0.00  0.00    +0.000 NA
ATOM     17  C   UNL     1     -25.161   3.485 -50.940  0.00  0.00    +0.000 C 
BRANCH  16  18
ATOM     18  O   UNL     1     -25.498   3.320 -53.099  0.00  0.00    +0.000 OA
BRANCH  18  19
ATOM     19  C   UNL     1     -25.792   4.507 -53.840  0.00  0.00    +0.000 C 
BRANCH  19  22
ATOM     20 CL   UNL     1     -22.372   8.310 -52.849  0.00  0.00    +0.000 Cl
ATOM     21 CL   UNL     1     -20.592   7.215 -55.342  0.00  0.00    +0.000 Cl
ATOM     22  C   UNL     1     -24.498   5.198 -54.197  0.00  0.00    +0.000 A 
ATOM     23  C   UNL     1     -24.048   6.307 -53.465  0.00  0.00    +0.000 A 
ATOM     24  C   UNL     1     -23.727   4.743 -55.275  0.00  0.00    +0.000 A 
ATOM     25  C   UNL     1     -22.849   6.948 -53.800  0.00  0.00    +0.000 A 
ATOM     26  C   UNL     1     -22.528   5.380 -55.611  0.00  0.00    +0.000 A 
ATOM     27  C   UNL     1     -22.085   6.482 -54.875  0.00  0.00    +0.000 A 
ENDBRANCH  19  22
ENDBRANCH  18  19
ENDBRANCH  16  18
ENDBRANCH   4  17
TORSDOF 5
ENDMDL
MODEL 5
REMARK VINA RESULT:      -4.8     18.322     20.764
REMARK  Name = 5912745
REMARK  5 active torsions:
REMARK  status: ('A' for Active; 'I' for Inactive)
REMARK    1  A    between atoms: O_5  and  N_8
REMARK    2  A    between atoms: O_5  and  C_21
REMARK    3  A    between atoms: C_9  and  C_14
REMARK    4  A    between atoms: C_10  and  C_12
REMARK    5  A    between atoms: C_20  and  C_21
REMARK                            x       y       z     vdW  Elec       q    Type
REMARK                         _______ _______ _______ _____ _____    ______ ____
ROOT
ATOM      1  S   UNL     1     -21.017  15.630 -42.519  0.00  0.00    +0.000 S 
ATOM      2  N   UNL     1     -20.028  15.802 -44.885  0.00  0.00    +0.000 N 
ATOM      3  N   UNL     1     -18.364  15.877 -43.396  0.00  0.00    +0.000 NA
ATOM      4  C   UNL     1     -18.886  15.881 -45.642  0.00  0.00    +0.000 A 
ATOM      5  C   UNL     1     -17.868  15.971 -44.687  0.00  0.00    +0.000 A 
ATOM      6  C   UNL     1     -19.650  15.788 -43.576  0.00  0.00    +0.000 A 
ATOM      7  C   UNL     1     -21.386  15.693 -45.099  0.00  0.00    +0.000 A 
ATOM      8  C   UNL     1     -22.067  15.593 -43.943  0.00  0.00    +0.000 A 
ENDROOT
BRANCH   5  10
ATOM      9 CL   UNL     1     -12.028  16.752 -45.729  0.00  0.00    +0.000 Cl
ATOM     10  C   UNL     1     -16.442  16.137 -44.941  0.00  0.00    +0.000 A 
ATOM     11  C   UNL     1     -15.920  17.428 -45.108  0.00  0.00    +0.000 A 
ATOM     12  C   UNL     1     -15.578  15.039 -45.067  0.00  0.00    +0.000 A 
ATOM     13  C   UNL     1     -14.556  17.621 -45.354  0.00  0.00    +0.000 A 
ATOM     14  C   UNL     1     -14.212  15.230 -45.302  0.00  0.00    +0.000 A 
ATOM     15  C   UNL     1     -13.708  16.520 -45.439  0.00  0.00    +0.000 A 
ENDBRANCH   5  10
BRANCH   4  17
ATOM     16  N   UNL     1     -18.690  16.906 -47.784  0.00  0.00    +0.000 NA
ATOM     17  C   UNL     1     -18.809  15.834 -47.071  0.00  0.00    +0.000 C 
BRANCH  16  18
ATOM     18  O   UNL     1     -18.609  16.531 -49.139  0.00  0.00    +0.000 OA
BRANCH  18  19
ATOM     19  C   UNL     1     -17.880  15.306 -49.247  0.00  0.00    +0.000 C 
BRANCH  19  22
ATOM     20 CL   UNL     1     -14.553  16.056 -53.185  0.00  0.00    +0.000 Cl
ATOM     21 CL   UNL     1     -12.210  16.525 -50.976  0.00  0.00    +0.000 Cl
ATOM     22  C   UNL     1     -16.472  15.609 -49.701  0.00  0.00    +0.000 A 
ATOM     23  C   UNL     1     -16.159  15.695 -51.066  0.00  0.00    +0.000 A 
ATOM     24  C   UNL     1     -15.452  15.803 -48.760  0.00  0.00    +0.000 A 
ATOM     25  C   UNL     1     -14.852  15.974 -51.484  0.00  0.00    +0.000 A 
ATOM     26  C   UNL     1     -14.146  16.083 -49.176  0.00  0.00    +0.000 A 
ATOM     27  C   UNL     1     -13.842  16.170 -50.536  0.00  0.00    +0.000 A 
ENDBRANCH  19  22
ENDBRANCH  18  19
ENDBRANCH  16  18
ENDBRANCH   4  17
TORSDOF 5
ENDMDL
MODEL 6
REMARK VINA RESULT:      -4.8      3.753      6.648
REMARK  Name = 5912745
REMARK  5 active torsions:
REMARK  status: ('A' for Active; 'I' for Inactive)
REMARK    1  A    between atoms: O_5  and  N_8
REMARK    2  A    between atoms: O_5  and  C_21
REMARK    3  A    between atoms: C_9  and  C_14
REMARK    4  A    between atoms: C_10  and  C_12
REMARK    5  A    between atoms: C_20  and  C_21
REMARK                            x       y       z     vdW  Elec       q    Type
REMARK                         _______ _______ _______ _____ _____    ______ ____
ROOT
ATOM      1  S   UNL     1     -12.345  -0.776 -33.596  0.00  0.00    +0.000 S 
ATOM      2  N   UNL     1     -10.353   0.753 -34.143  0.00  0.00    +0.000 N 
ATOM      3  N   UNL     1     -12.247   1.911 -34.399  0.00  0.00    +0.000 NA
ATOM      4  C   UNL     1      -9.945   2.016 -34.493  0.00  0.00    +0.000 A 
ATOM      5  C   UNL     1     -11.148   2.704 -34.689  0.00  0.00    +0.000 A 
ATOM      6  C   UNL     1     -11.714   0.764 -34.090  0.00  0.00    +0.000 A 
ATOM      7  C   UNL     1      -9.767  -0.448 -33.804  0.00  0.00    +0.000 A 
ATOM      8  C   UNL     1     -10.685  -1.379 -33.485  0.00  0.00    +0.000 A 
ENDROOT
BRANCH   5  10
ATOM      9 CL   UNL     1     -11.801   8.392 -36.426  0.00  0.00    +0.000 Cl
ATOM     10  C   UNL     1     -11.305   4.082 -35.136  0.00  0.00    +0.000 A 
ATOM     11  C   UNL     1     -11.517   5.092 -34.186  0.00  0.00    +0.000 A 
ATOM     12  C   UNL     1     -11.294   4.428 -36.495  0.00  0.00    +0.000 A 
ATOM     13  C   UNL     1     -11.672   6.425 -34.582  0.00  0.00    +0.000 A 
ATOM     14  C   UNL     1     -11.439   5.761 -36.893  0.00  0.00    +0.000 A 
ATOM     15  C   UNL     1     -11.622   6.754 -35.934  0.00  0.00    +0.000 A 
ENDBRANCH   5  10
BRANCH   4  17
ATOM     16  N   UNL     1      -7.772   2.027 -35.471  0.00  0.00    +0.000 NA
ATOM     17  C   UNL     1      -8.593   2.479 -34.580  0.00  0.00    +0.000 C 
BRANCH  16  18
ATOM     18  O   UNL     1      -6.541   2.695 -35.319  0.00  0.00    +0.000 OA
BRANCH  18  19
ATOM     19  C   UNL     1      -6.409   3.141 -33.967  0.00  0.00    +0.000 C 
BRANCH  19  22
ATOM     20 CL   UNL     1      -3.094  -0.873 -34.163  0.00  0.00    +0.000 Cl
ATOM     21 CL   UNL     1      -2.463  -0.369 -31.011  0.00  0.00    +0.000 Cl
ATOM     22  C   UNL     1      -5.421   2.253 -33.250  0.00  0.00    +0.000 A 
ATOM     23  C   UNL     1      -4.766   1.212 -33.926  0.00  0.00    +0.000 A 
ATOM     24  C   UNL     1      -5.148   2.453 -31.890  0.00  0.00    +0.000 A 
ATOM     25  C   UNL     1      -3.852   0.389 -33.256  0.00  0.00    +0.000 A 
ATOM     26  C   UNL     1      -4.234   1.633 -31.221  0.00  0.00    +0.000 A 
ATOM     27  C   UNL     1      -3.583   0.601 -31.900  0.00  0.00    +0.000 A 
ENDBRANCH  19  22
ENDBRANCH  18  19
ENDBRANCH  16  18
ENDBRANCH   4  17
TORSDOF 5
ENDMDL
MODEL 7
REMARK VINA RESULT:      -4.7      5.941      8.464
REMARK  Name = 5912745
REMARK  5 active torsions:
REMARK  status: ('A' for Active; 'I' for Inactive)
REMARK    1  A    between atoms: O_5  and  N_8
REMARK    2  A    between atoms: O_5  and  C_21
REMARK    3  A    between atoms: C_9  and  C_14
REMARK    4  A    between atoms: C_10  and  C_12
REMARK    5  A    between atoms: C_20  and  C_21
REMARK                            x       y       z     vdW  Elec       q    Type
REMARK                         _______ _______ _______ _____ _____    ______ ____
ROOT
ATOM      1  S   UNL     1      -6.309  11.146 -28.932  0.00  0.00    +0.000 S 
ATOM      2  N   UNL     1      -7.838  10.068 -30.695  0.00  0.00    +0.000 N 
ATOM      3  N   UNL     1      -8.068  12.288 -30.795  0.00  0.00    +0.000 NA
ATOM      4  C   UNL     1      -8.724  10.281 -31.721  0.00  0.00    +0.000 A 
ATOM      5  C   UNL     1      -8.882  11.671 -31.732  0.00  0.00    +0.000 A 
ATOM      6  C   UNL     1      -7.480  11.289 -30.205  0.00  0.00    +0.000 A 
ATOM      7  C   UNL     1      -7.215   8.995 -30.093  0.00  0.00    +0.000 A 
ATOM      8  C   UNL     1      -6.365   9.388 -29.127  0.00  0.00    +0.000 A 
ENDROOT
BRANCH   5  10
ATOM      9 CL   UNL     1     -12.583  14.849 -35.196  0.00  0.00    +0.000 Cl
ATOM     10  C   UNL     1      -9.767  12.444 -32.593  0.00  0.00    +0.000 A 
ATOM     11  C   UNL     1     -11.030  12.827 -32.116  0.00  0.00    +0.000 A 
ATOM     12  C   UNL     1      -9.413  12.784 -33.908  0.00  0.00    +0.000 A 
ATOM     13  C   UNL     1     -11.903  13.569 -32.919  0.00  0.00    +0.000 A 
ATOM     14  C   UNL     1     -10.280  13.535 -34.708  0.00  0.00    +0.000 A 
ATOM     15  C   UNL     1     -11.519  13.927 -34.208  0.00  0.00    +0.000 A 
ENDBRANCH   5  10
BRANCH   4  17
ATOM     16  N   UNL     1      -9.744   8.163 -32.113  0.00  0.00    +0.000 NA
ATOM     17  C   UNL     1      -9.289   9.282 -32.577  0.00  0.00    +0.000 C 
BRANCH  16  18
ATOM     18  O   UNL     1     -10.258   7.414 -33.188  0.00  0.00    +0.000 OA
BRANCH  18  19
ATOM     19  C   UNL     1      -9.801   7.979 -34.419  0.00  0.00    +0.000 C 
BRANCH  19  22
ATOM     20 CL   UNL     1      -5.971   6.127 -37.426  0.00  0.00    +0.000 Cl
ATOM     21 CL   UNL     1      -7.809   3.497 -37.965  0.00  0.00    +0.000 Cl
ATOM     22  C   UNL     1      -9.284   6.873 -35.307  0.00  0.00    +0.000 A 
ATOM     23  C   UNL     1      -8.016   6.961 -35.903  0.00  0.00    +0.000 A 
ATOM     24  C   UNL     1     -10.070   5.740 -35.555  0.00  0.00    +0.000 A 
ATOM     25  C   UNL     1      -7.541   5.934 -36.729  0.00  0.00    +0.000 A 
ATOM     26  C   UNL     1      -9.596   4.713 -36.378  0.00  0.00    +0.000 A 
ATOM     27  C   UNL     1      -8.332   4.805 -36.965  0.00  0.00    +0.000 A 
ENDBRANCH  19  22
ENDBRANCH  18  19
ENDBRANCH  16  18
ENDBRANCH   4  17
TORSDOF 5
ENDMDL
MODEL 8
REMARK VINA RESULT:      -4.7      7.214      8.086
REMARK  Name = 5912745
REMARK  5 active torsions:
REMARK  status: ('A' for Active; 'I' for Inactive)
REMARK    1  A    between atoms: O_5  and  N_8
REMARK    2  A    between atoms: O_5  and  C_21
REMARK    3  A    between atoms: C_9  and  C_14
REMARK    4  A    between atoms: C_10  and  C_12
REMARK    5  A    between atoms: C_20  and  C_21
REMARK                            x       y       z     vdW  Elec       q    Type
REMARK                         _______ _______ _______ _____ _____    ______ ____
ROOT
ATOM      1  S   UNL     1      -6.661   6.177 -25.546  0.00  0.00    +0.000 S 
ATOM      2  N   UNL     1      -7.324   7.751 -27.466  0.00  0.00    +0.000 N 
ATOM      3  N   UNL     1      -5.311   8.347 -26.704  0.00  0.00    +0.000 NA
ATOM      4  C   UNL     1      -6.944   8.798 -28.268  0.00  0.00    +0.000 A 
ATOM      5  C   UNL     1      -5.705   9.178 -27.741  0.00  0.00    +0.000 A 
ATOM      6  C   UNL     1      -6.314   7.527 -26.580  0.00  0.00    +0.000 A 
ATOM      7  C   UNL     1      -8.391   6.883 -27.363  0.00  0.00    +0.000 A 
ATOM      8  C   UNL     1      -8.205   5.977 -26.386  0.00  0.00    +0.000 A 
ENDROOT
BRANCH   5  10
ATOM      9 CL   UNL     1      -2.221  13.682 -29.576  0.00  0.00    +0.000 Cl
ATOM     10  C   UNL     1      -4.872  10.291 -28.178  0.00  0.00    +0.000 A 
ATOM     11  C   UNL     1      -3.668  10.027 -28.848  0.00  0.00    +0.000 A 
ATOM     12  C   UNL     1      -5.216  11.624 -27.911  0.00  0.00    +0.000 A 
ATOM     13  C   UNL     1      -2.846  11.073 -29.280  0.00  0.00    +0.000 A 
ATOM     14  C   UNL     1      -4.400  12.672 -28.352  0.00  0.00    +0.000 A 
ATOM     15  C   UNL     1      -3.222  12.392 -29.038  0.00  0.00    +0.000 A 
ENDBRANCH   5  10
BRANCH   4  17
ATOM     16  N   UNL     1      -7.480   8.855 -30.589  0.00  0.00    +0.000 NA
ATOM     17  C   UNL     1      -7.665   9.312 -29.393  0.00  0.00    +0.000 C 
BRANCH  16  18
ATOM     18  O   UNL     1      -8.351   9.536 -31.462  0.00  0.00    +0.000 OA
BRANCH  18  19
ATOM     19  C   UNL     1      -9.677   9.030 -31.297  0.00  0.00    +0.000 C 
BRANCH  19  22
ATOM     20 CL   UNL     1     -13.249   6.234 -33.859  0.00  0.00    +0.000 Cl
ATOM     21 CL   UNL     1     -11.393   6.497 -36.519  0.00  0.00    +0.000 Cl
ATOM     22  C   UNL     1     -10.125   8.390 -32.588  0.00  0.00    +0.000 A 
ATOM     23  C   UNL     1     -11.336   7.684 -32.661  0.00  0.00    +0.000 A 
ATOM     24  C   UNL     1      -9.330   8.487 -33.739  0.00  0.00    +0.000 A 
ATOM     25  C   UNL     1     -11.747   7.089 -33.860  0.00  0.00    +0.000 A 
ATOM     26  C   UNL     1      -9.740   7.896 -34.938  0.00  0.00    +0.000 A 
ATOM     27  C   UNL     1     -10.948   7.197 -35.003  0.00  0.00    +0.000 A 
ENDBRANCH  19  22
ENDBRANCH  18  19
ENDBRANCH  16  18
ENDBRANCH   4  17
TORSDOF 5
ENDMDL
MODEL 9
REMARK VINA RESULT:      -4.6      5.612      9.309
REMARK  Name = 5912745
REMARK  5 active torsions:
REMARK  status: ('A' for Active; 'I' for Inactive)
REMARK    1  A    between atoms: O_5  and  N_8
REMARK    2  A    between atoms: O_5  and  C_21
REMARK    3  A    between atoms: C_9  and  C_14
REMARK    4  A    between atoms: C_10  and  C_12
REMARK    5  A    between atoms: C_20  and  C_21
REMARK                            x       y       z     vdW  Elec       q    Type
REMARK                         _______ _______ _______ _____ _____    ______ ____
ROOT
ATOM      1  S   UNL     1     -11.857  10.998 -30.801  0.00  0.00    +0.000 S 
ATOM      2  N   UNL     1     -12.440   9.094 -32.427  0.00  0.00    +0.000 N 
ATOM      3  N   UNL     1     -14.333   9.965 -31.622  0.00  0.00    +0.000 NA
ATOM      4  C   UNL     1     -13.440   8.397 -33.057  0.00  0.00    +0.000 A 
ATOM      5  C   UNL     1     -14.609   8.931 -32.502  0.00  0.00    +0.000 A 
ATOM      6  C   UNL     1     -13.033  10.010 -31.610  0.00  0.00    +0.000 A 
ATOM      7  C   UNL     1     -11.062   9.136 -32.443  0.00  0.00    +0.000 A 
ATOM      8  C   UNL     1     -10.581  10.093 -31.629  0.00  0.00    +0.000 A 
ENDROOT
BRANCH   5  10
ATOM      9 CL   UNL     1     -20.230   7.259 -33.688  0.00  0.00    +0.000 Cl
ATOM     10  C   UNL     1     -15.977   8.509 -32.772  0.00  0.00    +0.000 A 
ATOM     11  C   UNL     1     -16.668   9.070 -33.856  0.00  0.00    +0.000 A 
ATOM     12  C   UNL     1     -16.645   7.588 -31.951  0.00  0.00    +0.000 A 
ATOM     13  C   UNL     1     -17.984   8.686 -34.141  0.00  0.00    +0.000 A 
ATOM     14  C   UNL     1     -17.956   7.195 -32.241  0.00  0.00    +0.000 A 
ATOM     15  C   UNL     1     -18.617   7.743 -33.336  0.00  0.00    +0.000 A 
ENDBRANCH   5  10
BRANCH   4  17
ATOM     16  N   UNL     1     -12.679   6.274 -33.826  0.00  0.00    +0.000 NA
ATOM     17  C   UNL     1     -13.272   7.397 -34.068  0.00  0.00    +0.000 C 
BRANCH  16  18
ATOM     18  O   UNL     1     -12.701   5.499 -35.002  0.00  0.00    +0.000 OA
BRANCH  18  19
ATOM     19  C   UNL     1     -12.221   6.286 -36.095  0.00  0.00    +0.000 C 
BRANCH  19  22
ATOM     20 CL   UNL     1      -8.034   3.388 -37.195  0.00  0.00    +0.000 Cl
ATOM     21 CL   UNL     1      -6.185   5.921 -36.327  0.00  0.00    +0.000 Cl
ATOM     22  C   UNL     1     -10.717   6.172 -36.161  0.00  0.00    +0.000 A 
ATOM     23  C   UNL     1     -10.103   4.988 -36.596  0.00  0.00    +0.000 A 
ATOM     24  C   UNL     1      -9.909   7.252 -35.780  0.00  0.00    +0.000 A 
ATOM     25  C   UNL     1      -8.708   4.885 -36.653  0.00  0.00    +0.000 A 
ATOM     26  C   UNL     1      -8.516   7.152 -35.838  0.00  0.00    +0.000 A 
ATOM     27  C   UNL     1      -7.911   5.971 -36.275  0.00  0.00    +0.000 A 
ENDBRANCH  19  22
ENDBRANCH  18  19
ENDBRANCH  16  18
ENDBRANCH   4  17
TORSDOF 5
ENDMDL
MODEL 10
REMARK VINA RESULT:      -4.5     26.995     29.204
REMARK  Name = 5912745
REMARK  5 active torsions:
REMARK  status: ('A' for Active; 'I' for Inactive)
REMARK    1  A    between atoms: O_5  and  N_8
REMARK    2  A    between atoms: O_5  and  C_21
REMARK    3  A    between atoms: C_9  and  C_14
REMARK    4  A    between atoms: C_10  and  C_12
REMARK    5  A    between atoms: C_20  and  C_21
REMARK                            x       y       z     vdW  Elec       q    Type
REMARK                         _______ _______ _______ _____ _____    ______ ____
ROOT
ATOM      1  S   UNL     1     -21.124  11.582 -58.719  0.00  0.00    +0.000 S 
ATOM      2  N   UNL     1     -19.127  12.432 -60.097  0.00  0.00    +0.000 N 
ATOM      3  N   UNL     1     -18.360  11.274 -58.348  0.00  0.00    +0.000 NA
ATOM      4  C   UNL     1     -17.763  12.444 -60.243  0.00  0.00    +0.000 A 
ATOM      5  C   UNL     1     -17.309  11.752 -59.114  0.00  0.00    +0.000 A 
ATOM      6  C   UNL     1     -19.412  11.715 -58.974  0.00  0.00    +0.000 A 
ATOM      7  C   UNL     1     -20.229  12.896 -60.785  0.00  0.00    +0.000 A 
ATOM      8  C   UNL     1     -21.380  12.536 -60.188  0.00  0.00    +0.000 A 
ENDROOT
BRANCH   5  10
ATOM      9 CL   UNL     1     -11.608  10.890 -57.519  0.00  0.00    +0.000 Cl
ATOM     10  C   UNL     1     -15.923  11.518 -58.730  0.00  0.00    +0.000 A 
ATOM     11  C   UNL     1     -15.117  12.608 -58.369  0.00  0.00    +0.000 A 
ATOM     12  C   UNL     1     -15.353  10.237 -58.752  0.00  0.00    +0.000 A 
ATOM     13  C   UNL     1     -13.782  12.417 -57.996  0.00  0.00    +0.000 A 
ATOM     14  C   UNL     1     -14.022  10.042 -58.369  0.00  0.00    +0.000 A 
ATOM     15  C   UNL     1     -13.245  11.132 -57.988  0.00  0.00    +0.000 A 
ENDBRANCH   5  10
BRANCH   4  17
ATOM     16  N   UNL     1     -16.641  12.292 -62.340  0.00  0.00    +0.000 NA
ATOM     17  C   UNL     1     -17.030  13.008 -61.336  0.00  0.00    +0.000 C 
BRANCH  16  18
ATOM     18  O   UNL     1     -15.979  13.133 -63.255  0.00  0.00    +0.000 OA
BRANCH  18  19
ATOM     19  C   UNL     1     -14.834  12.456 -63.777  0.00  0.00    +0.000 C 
BRANCH  19  22
ATOM     20 CL   UNL     1     -11.765  15.545 -60.916  0.00  0.00    +0.000 Cl
ATOM     21 CL   UNL     1     -10.262  12.871 -59.833  0.00  0.00    +0.000 Cl
ATOM     22  C   UNL     1     -13.696  12.583 -62.793  0.00  0.00    +0.000 A 
ATOM     23  C   UNL     1     -13.278  13.841 -62.335  0.00  0.00    +0.000 A 
ATOM     24  C   UNL     1     -13.033  11.440 -62.327  0.00  0.00    +0.000 A 
ATOM     25  C   UNL     1     -12.219  13.956 -61.424  0.00  0.00    +0.000 A 
ATOM     26  C   UNL     1     -11.977  11.552 -61.416  0.00  0.00    +0.000 A 
ATOM     27  C   UNL     1     -11.568  12.808 -60.962  0.00  0.00    +0.000 A 
ENDBRANCH  19  22
ENDBRANCH  18  19
ENDBRANCH  16  18
ENDBRANCH   4  17
TORSDOF 5
ENDMDL
