REMARK  Name = 5912745
REMARK  5 active torsions:
REMARK  status: ('A' for Active; 'I' for Inactive)
REMARK    1  A    between atoms: O_5  and  N_8
REMARK    2  A    between atoms: O_5  and  C_21
REMARK    3  A    between atoms: C_9  and  C_14
REMARK    4  A    between atoms: C_10  and  C_12
REMARK    5  A    between atoms: C_20  and  C_21
REMARK                            x       y       z     vdW  Elec       q    Type
REMARK                         _______ _______ _______ _____ _____    ______ ____
ROOT
ATOM      1  S   UNL     1       0.019  -2.634  -4.613  0.00  0.00    +0.000 S 
ATOM      2  N   UNL     1       2.273  -1.984  -3.562  0.00  0.00    +0.000 N 
ATOM      3  N   UNL     1       0.623  -1.296  -2.222  0.00  0.00    +0.000 NA
ATOM      4  C   UNL     1       2.910  -1.419  -2.486  0.00  0.00    +0.000 A 
ATOM      5  C   UNL     1       1.857  -0.959  -1.688  0.00  0.00    +0.000 A 
ATOM      6  C   UNL     1       0.932  -1.893  -3.336  0.00  0.00    +0.000 A 
ATOM      7  C   UNL     1       2.623  -2.628  -4.730  0.00  0.00    +0.000 A 
ATOM      8  C   UNL     1       1.542  -3.040  -5.417  0.00  0.00    +0.000 A 
ENDROOT
BRANCH   5  10
ATOM      9 CL   UNL     1       2.219   2.037   3.478  0.00  0.00    +0.000 Cl
ATOM     10  C   UNL     1       1.965  -0.218  -0.438  0.00  0.00    +0.000 A 
ATOM     11  C   UNL     1       0.998  -0.409   0.560  0.00  0.00    +0.000 A 
ATOM     12  C   UNL     1       2.986   0.718  -0.216  0.00  0.00    +0.000 A 
ATOM     13  C   UNL     1       1.073   0.288   1.771  0.00  0.00    +0.000 A 
ATOM     14  C   UNL     1       3.069   1.408   0.998  0.00  0.00    +0.000 A 
ATOM     15  C   UNL     1       2.115   1.186   1.987  0.00  0.00    +0.000 A 
ENDBRANCH   5  10
BRANCH   4  17
ATOM     16  N   UNL     1       5.169  -1.328  -3.240  0.00  0.00    +0.000 NA
ATOM     17  C   UNL     1       4.324  -1.376  -2.262  0.00  0.00    +0.000 C 
BRANCH  16  18
ATOM     18  O   UNL     1       6.468  -1.263  -2.700  0.00  0.00    +0.000 OA
BRANCH  18  19
ATOM     19  C   UNL     1       7.340  -0.632  -3.641  0.00  0.00    +0.000 C 
BRANCH  19  22
ATOM     20 CL   UNL     1      11.562   1.935  -1.991  0.00  0.00    +0.000 Cl
ATOM     21 CL   UNL     1      13.006  -0.945  -1.537  0.00  0.00    +0.000 Cl
ATOM     22  C   UNL     1       8.754  -0.686  -3.115  0.00  0.00    +0.000 A 
ATOM     23  C   UNL     1       9.456   0.491  -2.815  0.00  0.00    +0.000 A 
ATOM     24  C   UNL     1       9.391  -1.920  -2.925  0.00  0.00    +0.000 A 
ATOM     25  C   UNL     1      10.769   0.437  -2.330  0.00  0.00    +0.000 A 
ATOM     26  C   UNL     1      10.701  -1.976  -2.439  0.00  0.00    +0.000 A 
ATOM     27  C   UNL     1      11.393  -0.800  -2.139  0.00  0.00    +0.000 A 
ENDBRANCH  19  22
ENDBRANCH  18  19
ENDBRANCH  16  18
ENDBRANCH   4  17
TORSDOF 5
