MODEL 1
REMARK VINA RESULT:      -5.2      0.000      0.000
REMARK  Name = 5912745
REMARK  5 active torsions:
REMARK  status: ('A' for Active; 'I' for Inactive)
REMARK    1  A    between atoms: O_5  and  N_8
REMARK    2  A    between atoms: O_5  and  C_21
REMARK    3  A    between atoms: C_9  and  C_14
REMARK    4  A    between atoms: C_10  and  C_12
REMARK    5  A    between atoms: C_20  and  C_21
REMARK                            x       y       z     vdW  Elec       q    Type
REMARK                         _______ _______ _______ _____ _____    ______ ____
ROOT
ATOM      1  S   UNL     1       8.374  15.665  21.390  0.00  0.00    +0.000 S 
ATOM      2  N   UNL     1       5.912  16.052  22.017  0.00  0.00    +0.000 N 
ATOM      3  N   UNL     1       6.056  15.726  19.812  0.00  0.00    +0.000 NA
ATOM      4  C   UNL     1       4.615  16.104  21.572  0.00  0.00    +0.000 A 
ATOM      5  C   UNL     1       4.739  15.942  20.188  0.00  0.00    +0.000 A 
ATOM      6  C   UNL     1       6.706  15.812  20.936  0.00  0.00    +0.000 A 
ATOM      7  C   UNL     1       6.579  16.130  23.222  0.00  0.00    +0.000 A 
ATOM      8  C   UNL     1       7.904  15.949  23.072  0.00  0.00    +0.000 A 
ENDROOT
BRANCH   5  10
ATOM      9 CL   UNL     1       0.311  16.180  16.171  0.00  0.00    +0.000 Cl
ATOM     10  C   UNL     1       3.666  15.978  19.203  0.00  0.00    +0.000 A 
ATOM     11  C   UNL     1       2.865  17.125  19.099  0.00  0.00    +0.000 A 
ATOM     12  C   UNL     1       3.378  14.879  18.379  0.00  0.00    +0.000 A 
ATOM     13  C   UNL     1       1.826  17.190  18.164  0.00  0.00    +0.000 A 
ATOM     14  C   UNL     1       2.346  14.946  17.437  0.00  0.00    +0.000 A 
ATOM     15  C   UNL     1       1.579  16.102  17.331  0.00  0.00    +0.000 A 
ENDBRANCH   5  10
BRANCH   4  17
ATOM     16  N   UNL     1       3.059  15.323  23.199  0.00  0.00    +0.000 NA
ATOM     17  C   UNL     1       3.443  16.249  22.382  0.00  0.00    +0.000 C 
BRANCH  16  18
ATOM     18  O   UNL     1       1.904  15.773  23.868  0.00  0.00    +0.000 OA
BRANCH  18  19
ATOM     19  C   UNL     1       0.817  14.890  23.580  0.00  0.00    +0.000 C 
BRANCH  19  22
ATOM     20 CL   UNL     1      -2.070  18.613  21.358  0.00  0.00    +0.000 Cl
ATOM     21 CL   UNL     1      -2.095  16.824  18.640  0.00  0.00    +0.000 Cl
ATOM     22  C   UNL     1       0.084  15.393  22.360  0.00  0.00    +0.000 A 
ATOM     23  C   UNL     1      -0.586  16.625  22.379  0.00  0.00    +0.000 A 
ATOM     24  C   UNL     1       0.057  14.627  21.186  0.00  0.00    +0.000 A 
ATOM     25  C   UNL     1      -1.267  17.086  21.246  0.00  0.00    +0.000 A 
ATOM     26  C   UNL     1      -0.621  15.087  20.053  0.00  0.00    +0.000 A 
ATOM     27  C   UNL     1      -1.283  16.317  20.078  0.00  0.00    +0.000 A 
ENDBRANCH  19  22
ENDBRANCH  18  19
ENDBRANCH  16  18
ENDBRANCH   4  17
TORSDOF 5
ENDMDL
MODEL 2
REMARK VINA RESULT:      -5.2     12.803     15.246
REMARK  Name = 5912745
REMARK  5 active torsions:
REMARK  status: ('A' for Active; 'I' for Inactive)
REMARK    1  A    between atoms: O_5  and  N_8
REMARK    2  A    between atoms: O_5  and  C_21
REMARK    3  A    between atoms: C_9  and  C_14
REMARK    4  A    between atoms: C_10  and  C_12
REMARK    5  A    between atoms: C_20  and  C_21
REMARK                            x       y       z     vdW  Elec       q    Type
REMARK                         _______ _______ _______ _____ _____    ______ ____
ROOT
ATOM      1  S   UNL     1     -12.019  13.047  12.669  0.00  0.00    +0.000 S 
ATOM      2  N   UNL     1     -11.061  12.007  14.815  0.00  0.00    +0.000 N 
ATOM      3  N   UNL     1      -9.844  13.800  14.272  0.00  0.00    +0.000 NA
ATOM      4  C   UNL     1     -10.125  12.110  15.814  0.00  0.00    +0.000 A 
ATOM      5  C   UNL     1      -9.353  13.209  15.426  0.00  0.00    +0.000 A 
ATOM      6  C   UNL     1     -10.849  13.039  13.951  0.00  0.00    +0.000 A 
ATOM      7  C   UNL     1     -12.132  11.197  14.502  0.00  0.00    +0.000 A 
ATOM      8  C   UNL     1     -12.758  11.606  13.384  0.00  0.00    +0.000 A 
ENDROOT
BRANCH   5  10
ATOM      9 CL   UNL     1      -4.446  15.310  18.128  0.00  0.00    +0.000 Cl
ATOM     10  C   UNL     1      -8.172  13.732  16.101  0.00  0.00    +0.000 A 
ATOM     11  C   UNL     1      -6.900  13.429  15.593  0.00  0.00    +0.000 A 
ATOM     12  C   UNL     1      -8.264  14.495  17.274  0.00  0.00    +0.000 A 
ATOM     13  C   UNL     1      -5.746  13.914  16.218  0.00  0.00    +0.000 A 
ATOM     14  C   UNL     1      -7.113  14.990  17.895  0.00  0.00    +0.000 A 
ATOM     15  C   UNL     1      -5.860  14.701  17.361  0.00  0.00    +0.000 A 
ENDBRANCH   5  10
BRANCH   4  17
ATOM     16  N   UNL     1     -10.802  11.462  18.005  0.00  0.00    +0.000 NA
ATOM     17  C   UNL     1     -10.033  11.284  16.980  0.00  0.00    +0.000 C 
BRANCH  16  18
ATOM     18  O   UNL     1     -10.492  10.481  18.967  0.00  0.00    +0.000 OA
BRANCH  18  19
ATOM     19  C   UNL     1     -11.305  10.682  20.126  0.00  0.00    +0.000 C 
BRANCH  19  22
ATOM     20 CL   UNL     1     -14.956   8.113  22.810  0.00  0.00    +0.000 Cl
ATOM     21 CL   UNL     1     -13.631   5.336  21.751  0.00  0.00    +0.000 Cl
ATOM     22  C   UNL     1     -11.902   9.360  20.544  0.00  0.00    +0.000 A 
ATOM     23  C   UNL     1     -13.025   9.311  21.383  0.00  0.00    +0.000 A 
ATOM     24  C   UNL     1     -11.334   8.157  20.103  0.00  0.00    +0.000 A 
ATOM     25  C   UNL     1     -13.575   8.082  21.771  0.00  0.00    +0.000 A 
ATOM     26  C   UNL     1     -11.883   6.929  20.488  0.00  0.00    +0.000 A 
ATOM     27  C   UNL     1     -13.004   6.888  21.321  0.00  0.00    +0.000 A 
ENDBRANCH  19  22
ENDBRANCH  18  19
ENDBRANCH  16  18
ENDBRANCH   4  17
TORSDOF 5
ENDMDL
MODEL 3
REMARK VINA RESULT:      -5.1     26.340     27.777
REMARK  Name = 5912745
REMARK  5 active torsions:
REMARK  status: ('A' for Active; 'I' for Inactive)
REMARK    1  A    between atoms: O_5  and  N_8
REMARK    2  A    between atoms: O_5  and  C_21
REMARK    3  A    between atoms: C_9  and  C_14
REMARK    4  A    between atoms: C_10  and  C_12
REMARK    5  A    between atoms: C_20  and  C_21
REMARK                            x       y       z     vdW  Elec       q    Type
REMARK                         _______ _______ _______ _____ _____    ______ ____
ROOT
ATOM      1  S   UNL     1       9.072  -3.436  37.788  0.00  0.00    +0.000 S 
ATOM      2  N   UNL     1       8.194  -5.007  35.952  0.00  0.00    +0.000 N 
ATOM      3  N   UNL     1      10.340  -4.541  35.542  0.00  0.00    +0.000 NA
ATOM      4  C   UNL     1       8.499  -5.730  34.827  0.00  0.00    +0.000 A 
ATOM      5  C   UNL     1       9.830  -5.386  34.568  0.00  0.00    +0.000 A 
ATOM      6  C   UNL     1       9.323  -4.344  36.330  0.00  0.00    +0.000 A 
ATOM      7  C   UNL     1       7.108  -4.826  36.783  0.00  0.00    +0.000 A 
ATOM      8  C   UNL     1       7.399  -4.012  37.815  0.00  0.00    +0.000 A 
ENDROOT
BRANCH   5  10
ATOM      9 CL   UNL     1      13.213  -7.092  29.939  0.00  0.00    +0.000 Cl
ATOM     10  C   UNL     1      10.645  -5.824  33.443  0.00  0.00    +0.000 A 
ATOM     11  C   UNL     1      11.470  -4.896  32.789  0.00  0.00    +0.000 A 
ATOM     12  C   UNL     1      10.598  -7.140  32.961  0.00  0.00    +0.000 A 
ATOM     13  C   UNL     1      12.264  -5.285  31.705  0.00  0.00    +0.000 A 
ATOM     14  C   UNL     1      11.399  -7.534  31.883  0.00  0.00    +0.000 A 
ATOM     15  C   UNL     1      12.231  -6.606  31.264  0.00  0.00    +0.000 A 
ENDBRANCH   5  10
BRANCH   4  17
ATOM     16  N   UNL     1       6.860  -6.257  33.178  0.00  0.00    +0.000 NA
ATOM     17  C   UNL     1       7.632  -6.642  34.142  0.00  0.00    +0.000 C 
BRANCH  16  18
ATOM     18  O   UNL     1       6.163  -7.381  32.693  0.00  0.00    +0.000 OA
BRANCH  18  19
ATOM     19  C   UNL     1       6.809  -7.864  31.513  0.00  0.00    +0.000 C 
BRANCH  19  22
ATOM     20 CL   UNL     1       6.236 -12.325  34.142  0.00  0.00    +0.000 Cl
ATOM     21 CL   UNL     1       6.468 -13.903  31.307  0.00  0.00    +0.000 Cl
ATOM     22  C   UNL     1       6.721  -9.371  31.485  0.00  0.00    +0.000 A 
ATOM     23  C   UNL     1       6.537 -10.103  32.668  0.00  0.00    +0.000 A 
ATOM     24  C   UNL     1       6.830 -10.064  30.271  0.00  0.00    +0.000 A 
ATOM     25  C   UNL     1       6.458 -11.502  32.639  0.00  0.00    +0.000 A 
ATOM     26  C   UNL     1       6.750 -11.459  30.240  0.00  0.00    +0.000 A 
ATOM     27  C   UNL     1       6.563 -12.182  31.421  0.00  0.00    +0.000 A 
ENDBRANCH  19  22
ENDBRANCH  18  19
ENDBRANCH  16  18
ENDBRANCH   4  17
TORSDOF 5
ENDMDL
MODEL 4
REMARK VINA RESULT:      -4.9     28.984     30.220
REMARK  Name = 5912745
REMARK  5 active torsions:
REMARK  status: ('A' for Active; 'I' for Inactive)
REMARK    1  A    between atoms: O_5  and  N_8
REMARK    2  A    between atoms: O_5  and  C_21
REMARK    3  A    between atoms: C_9  and  C_14
REMARK    4  A    between atoms: C_10  and  C_12
REMARK    5  A    between atoms: C_20  and  C_21
REMARK                            x       y       z     vdW  Elec       q    Type
REMARK                         _______ _______ _______ _____ _____    ______ ____
ROOT
ATOM      1  S   UNL     1      -1.405 -17.155  13.189  0.00  0.00    +0.000 S 
ATOM      2  N   UNL     1      -2.479 -15.036  14.173  0.00  0.00    +0.000 N 
ATOM      3  N   UNL     1      -2.167 -14.740  11.980  0.00  0.00    +0.000 NA
ATOM      4  C   UNL     1      -2.991 -13.790  13.913  0.00  0.00    +0.000 A 
ATOM      5  C   UNL     1      -2.743 -13.614  12.547  0.00  0.00    +0.000 A 
ATOM      6  C   UNL     1      -2.026 -15.545  12.992  0.00  0.00    +0.000 A 
ATOM      7  C   UNL     1      -2.353 -15.880  15.256  0.00  0.00    +0.000 A 
ATOM      8  C   UNL     1      -1.797 -17.056  14.912  0.00  0.00    +0.000 A 
ENDROOT
BRANCH   5  10
ATOM      9 CL   UNL     1      -3.851  -8.696   9.325  0.00  0.00    +0.000 Cl
ATOM     10  C   UNL     1      -3.031 -12.428  11.751  0.00  0.00    +0.000 A 
ATOM     11  C   UNL     1      -2.276 -11.263  11.955  0.00  0.00    +0.000 A 
ATOM     12  C   UNL     1      -4.073 -12.399  10.813  0.00  0.00    +0.000 A 
ATOM     13  C   UNL     1      -2.529 -10.107  11.208  0.00  0.00    +0.000 A 
ATOM     14  C   UNL     1      -4.320 -11.248  10.057  0.00  0.00    +0.000 A 
ATOM     15  C   UNL     1      -3.544 -10.110  10.255  0.00  0.00    +0.000 A 
ENDBRANCH   5  10
BRANCH   4  17
ATOM     16  N   UNL     1      -3.081 -11.874  15.328  0.00  0.00    +0.000 NA
ATOM     17  C   UNL     1      -3.652 -12.931  14.849  0.00  0.00    +0.000 C 
BRANCH  16  18
ATOM     18  O   UNL     1      -3.991 -11.230  16.188  0.00  0.00    +0.000 OA
BRANCH  18  19
ATOM     19  C   UNL     1      -4.401 -12.141  17.210  0.00  0.00    +0.000 C 
BRANCH  19  22
ATOM     20 CL   UNL     1      -8.530 -13.201  20.204  0.00  0.00    +0.000 Cl
ATOM     21 CL   UNL     1      -9.816 -10.369  19.250  0.00  0.00    +0.000 Cl
ATOM     22  C   UNL     1      -5.753 -11.719  17.732  0.00  0.00    +0.000 A 
ATOM     23  C   UNL     1      -6.465 -12.532  18.628  0.00  0.00    +0.000 A 
ATOM     24  C   UNL     1      -6.323 -10.507  17.321  0.00  0.00    +0.000 A 
ATOM     25  C   UNL     1      -7.720 -12.138  19.108  0.00  0.00    +0.000 A 
ATOM     26  C   UNL     1      -7.576 -10.111  17.800  0.00  0.00    +0.000 A 
ATOM     27  C   UNL     1      -8.277 -10.923  18.695  0.00  0.00    +0.000 A 
ENDBRANCH  19  22
ENDBRANCH  18  19
ENDBRANCH  16  18
ENDBRANCH   4  17
TORSDOF 5
ENDMDL
MODEL 5
REMARK VINA RESULT:      -4.9     19.821     22.370
REMARK  Name = 5912745
REMARK  5 active torsions:
REMARK  status: ('A' for Active; 'I' for Inactive)
REMARK    1  A    between atoms: O_5  and  N_8
REMARK    2  A    between atoms: O_5  and  C_21
REMARK    3  A    between atoms: C_9  and  C_14
REMARK    4  A    between atoms: C_10  and  C_12
REMARK    5  A    between atoms: C_20  and  C_21
REMARK                            x       y       z     vdW  Elec       q    Type
REMARK                         _______ _______ _______ _____ _____    ______ ____
ROOT
ATOM      1  S   UNL     1      -9.902   9.906  37.212  0.00  0.00    +0.000 S 
ATOM      2  N   UNL     1     -11.813   8.729  35.960  0.00  0.00    +0.000 N 
ATOM      3  N   UNL     1     -10.825  10.178  34.577  0.00  0.00    +0.000 NA
ATOM      4  C   UNL     1     -12.473   8.578  34.767  0.00  0.00    +0.000 A 
ATOM      5  C   UNL     1     -11.866   9.525  33.936  0.00  0.00    +0.000 A 
ATOM      6  C   UNL     1     -10.847   9.672  35.775  0.00  0.00    +0.000 A 
ATOM      7  C   UNL     1     -11.844   8.167  37.219  0.00  0.00    +0.000 A 
ATOM      8  C   UNL     1     -10.892   8.681  38.019  0.00  0.00    +0.000 A 
ENDROOT
BRANCH   5  10
ATOM      9 CL   UNL     1     -13.249  10.760  28.247  0.00  0.00    +0.000 Cl
ATOM     10  C   UNL     1     -12.222   9.838  32.558  0.00  0.00    +0.000 A 
ATOM     11  C   UNL     1     -11.378   9.421  31.518  0.00  0.00    +0.000 A 
ATOM     12  C   UNL     1     -13.366  10.584  32.238  0.00  0.00    +0.000 A 
ATOM     13  C   UNL     1     -11.692   9.706  30.184  0.00  0.00    +0.000 A 
ATOM     14  C   UNL     1     -13.688  10.861  30.905  0.00  0.00    +0.000 A 
ATOM     15  C   UNL     1     -12.852  10.417  29.885  0.00  0.00    +0.000 A 
ENDBRANCH   5  10
BRANCH   4  17
ATOM     16  N   UNL     1     -13.422   6.393  34.859  0.00  0.00    +0.000 NA
ATOM     17  C   UNL     1     -13.506   7.627  34.481  0.00  0.00    +0.000 C 
BRANCH  16  18
ATOM     18  O   UNL     1     -14.596   5.726  34.460  0.00  0.00    +0.000 OA
BRANCH  18  19
ATOM     19  C   UNL     1     -14.518   4.354  34.854  0.00  0.00    +0.000 C 
BRANCH  19  22
ATOM     20 CL   UNL     1     -15.204   4.013  29.701  0.00  0.00    +0.000 Cl
ATOM     21 CL   UNL     1     -15.159   0.775  30.016  0.00  0.00    +0.000 Cl
ATOM     22  C   UNL     1     -14.680   3.481  33.633  0.00  0.00    +0.000 A 
ATOM     23  C   UNL     1     -14.846   4.047  32.360  0.00  0.00    +0.000 A 
ATOM     24  C   UNL     1     -14.673   2.085  33.757  0.00  0.00    +0.000 A 
ATOM     25  C   UNL     1     -14.999   3.233  31.230  0.00  0.00    +0.000 A 
ATOM     26  C   UNL     1     -14.823   1.271  32.630  0.00  0.00    +0.000 A 
ATOM     27  C   UNL     1     -14.985   1.841  31.364  0.00  0.00    +0.000 A 
ENDBRANCH  19  22
ENDBRANCH  18  19
ENDBRANCH  16  18
ENDBRANCH   4  17
TORSDOF 5
ENDMDL
MODEL 6
REMARK VINA RESULT:      -4.7     15.707     18.784
REMARK  Name = 5912745
REMARK  5 active torsions:
REMARK  status: ('A' for Active; 'I' for Inactive)
REMARK    1  A    between atoms: O_5  and  N_8
REMARK    2  A    between atoms: O_5  and  C_21
REMARK    3  A    between atoms: C_9  and  C_14
REMARK    4  A    between atoms: C_10  and  C_12
REMARK    5  A    between atoms: C_20  and  C_21
REMARK                            x       y       z     vdW  Elec       q    Type
REMARK                         _______ _______ _______ _____ _____    ______ ____
ROOT
ATOM      1  S   UNL     1      23.970   3.990  20.831  0.00  0.00    +0.000 S 
ATOM      2  N   UNL     1      21.630   5.053  20.850  0.00  0.00    +0.000 N 
ATOM      3  N   UNL     1      23.153   6.658  20.541  0.00  0.00    +0.000 NA
ATOM      4  C   UNL     1      20.899   6.205  20.708  0.00  0.00    +0.000 A 
ATOM      5  C   UNL     1      21.876   7.196  20.561  0.00  0.00    +0.000 A 
ATOM      6  C   UNL     1      22.946   5.387  20.726  0.00  0.00    +0.000 A 
ATOM      7  C   UNL     1      21.386   3.708  21.031  0.00  0.00    +0.000 A 
ATOM      8  C   UNL     1      22.525   2.992  21.048  0.00  0.00    +0.000 A 
ENDROOT
BRANCH   5  10
ATOM      9 CL   UNL     1      21.043  13.090  19.965  0.00  0.00    +0.000 Cl
ATOM     10  C   UNL     1      21.656   8.631  20.432  0.00  0.00    +0.000 A 
ATOM     11  C   UNL     1      22.448   9.371  19.543  0.00  0.00    +0.000 A 
ATOM     12  C   UNL     1      20.701   9.307  21.206  0.00  0.00    +0.000 A 
ATOM     13  C   UNL     1      22.262  10.750  19.397  0.00  0.00    +0.000 A 
ATOM     14  C   UNL     1      20.506  10.684  21.055  0.00  0.00    +0.000 A 
ATOM     15  C   UNL     1      21.284  11.397  20.148  0.00  0.00    +0.000 A 
ENDBRANCH   5  10
BRANCH   4  17
ATOM     16  N   UNL     1      18.771   6.399  21.764  0.00  0.00    +0.000 NA
ATOM     17  C   UNL     1      19.470   6.308  20.680  0.00  0.00    +0.000 C 
BRANCH  16  18
ATOM     18  O   UNL     1      17.414   6.516  21.407  0.00  0.00    +0.000 OA
BRANCH  18  19
ATOM     19  C   UNL     1      17.298   7.358  20.258  0.00  0.00    +0.000 C 
BRANCH  19  22
ATOM     20 CL   UNL     1      13.655  10.967  19.343  0.00  0.00    +0.000 Cl
ATOM     21 CL   UNL     1      11.439   8.585  19.368  0.00  0.00    +0.000 Cl
ATOM     22  C   UNL     1      15.842   7.687  20.033  0.00  0.00    +0.000 A 
ATOM     23  C   UNL     1      15.429   9.009  19.810  0.00  0.00    +0.000 A 
ATOM     24  C   UNL     1      14.876   6.671  20.052  0.00  0.00    +0.000 A 
ATOM     25  C   UNL     1      14.077   9.312  19.605  0.00  0.00    +0.000 A 
ATOM     26  C   UNL     1      13.526   6.971  19.846  0.00  0.00    +0.000 A 
ATOM     27  C   UNL     1      13.122   8.289  19.621  0.00  0.00    +0.000 A 
ENDBRANCH  19  22
ENDBRANCH  18  19
ENDBRANCH  16  18
ENDBRANCH   4  17
TORSDOF 5
ENDMDL
MODEL 7
REMARK VINA RESULT:      -4.7     29.901     31.811
REMARK  Name = 5912745
REMARK  5 active torsions:
REMARK  status: ('A' for Active; 'I' for Inactive)
REMARK    1  A    between atoms: O_5  and  N_8
REMARK    2  A    between atoms: O_5  and  C_21
REMARK    3  A    between atoms: C_9  and  C_14
REMARK    4  A    between atoms: C_10  and  C_12
REMARK    5  A    between atoms: C_20  and  C_21
REMARK                            x       y       z     vdW  Elec       q    Type
REMARK                         _______ _______ _______ _____ _____    ______ ____
ROOT
ATOM      1  S   UNL     1      -4.345 -11.779  42.093  0.00  0.00    +0.000 S 
ATOM      2  N   UNL     1      -5.450  -9.596  41.305  0.00  0.00    +0.000 N 
ATOM      3  N   UNL     1      -3.340  -9.167  41.899  0.00  0.00    +0.000 NA
ATOM      4  C   UNL     1      -5.281  -8.259  41.050  0.00  0.00    +0.000 A 
ATOM      5  C   UNL     1      -3.971  -8.009  41.471  0.00  0.00    +0.000 A 
ATOM      6  C   UNL     1      -4.268 -10.072  41.787  0.00  0.00    +0.000 A 
ATOM      7  C   UNL     1      -6.443 -10.543  41.163  0.00  0.00    +0.000 A 
ATOM      8  C   UNL     1      -6.026 -11.765  41.540  0.00  0.00    +0.000 A 
ENDROOT
BRANCH   5  10
ATOM      9 CL   UNL     1      -1.196  -2.710  41.605  0.00  0.00    +0.000 Cl
ATOM     10  C   UNL     1      -3.285  -6.724  41.482  0.00  0.00    +0.000 A 
ATOM     11  C   UNL     1      -3.501  -5.839  42.549  0.00  0.00    +0.000 A 
ATOM     12  C   UNL     1      -2.444  -6.322  40.434  0.00  0.00    +0.000 A 
ATOM     13  C   UNL     1      -2.858  -4.596  42.588  0.00  0.00    +0.000 A 
ATOM     14  C   UNL     1      -1.792  -5.085  40.477  0.00  0.00    +0.000 A 
ATOM     15  C   UNL     1      -1.998  -4.231  41.556  0.00  0.00    +0.000 A 
ENDBRANCH   5  10
BRANCH   4  17
ATOM     16  N   UNL     1      -6.420  -7.336  39.170  0.00  0.00    +0.000 NA
ATOM     17  C   UNL     1      -6.241  -7.380  40.451  0.00  0.00    +0.000 C 
BRANCH  16  18
ATOM     18  O   UNL     1      -7.443  -6.407  38.898  0.00  0.00    +0.000 OA
BRANCH  18  19
ATOM     19  C   UNL     1      -8.682  -6.906  39.406  0.00  0.00    +0.000 C 
BRANCH  19  22
ATOM     20 CL   UNL     1      -9.182  -1.774  40.147  0.00  0.00    +0.000 Cl
ATOM     21 CL   UNL     1     -12.294  -2.298  40.939  0.00  0.00    +0.000 Cl
ATOM     22  C   UNL     1      -9.565  -5.742  39.785  0.00  0.00    +0.000 A 
ATOM     23  C   UNL     1      -9.062  -4.432  39.798  0.00  0.00    +0.000 A 
ATOM     24  C   UNL     1     -10.904  -5.955  40.138  0.00  0.00    +0.000 A 
ATOM     25  C   UNL     1      -9.883  -3.354  40.153  0.00  0.00    +0.000 A 
ATOM     26  C   UNL     1     -11.726  -4.880  40.491  0.00  0.00    +0.000 A 
ATOM     27  C   UNL     1     -11.220  -3.578  40.498  0.00  0.00    +0.000 A 
ENDBRANCH  19  22
ENDBRANCH  18  19
ENDBRANCH  16  18
ENDBRANCH   4  17
TORSDOF 5
ENDMDL
MODEL 8
REMARK VINA RESULT:      -4.6      4.183      6.628
REMARK  Name = 5912745
REMARK  5 active torsions:
REMARK  status: ('A' for Active; 'I' for Inactive)
REMARK    1  A    between atoms: O_5  and  N_8
REMARK    2  A    between atoms: O_5  and  C_21
REMARK    3  A    between atoms: C_9  and  C_14
REMARK    4  A    between atoms: C_10  and  C_12
REMARK    5  A    between atoms: C_20  and  C_21
REMARK                            x       y       z     vdW  Elec       q    Type
REMARK                         _______ _______ _______ _____ _____    ______ ____
ROOT
ATOM      1  S   UNL     1      10.744  19.285  20.407  0.00  0.00    +0.000 S 
ATOM      2  N   UNL     1       8.948  17.873  21.585  0.00  0.00    +0.000 N 
ATOM      3  N   UNL     1      10.934  16.882  21.843  0.00  0.00    +0.000 NA
ATOM      4  C   UNL     1       8.689  16.768  22.356  0.00  0.00    +0.000 A 
ATOM      5  C   UNL     1       9.938  16.145  22.464  0.00  0.00    +0.000 A 
ATOM      6  C   UNL     1      10.288  17.889  21.332  0.00  0.00    +0.000 A 
ATOM      7  C   UNL     1       8.246  18.940  21.066  0.00  0.00    +0.000 A 
ATOM      8  C   UNL     1       9.049  19.793  20.404  0.00  0.00    +0.000 A 
ENDROOT
BRANCH   5  10
ATOM      9 CL   UNL     1      11.163  10.928  25.123  0.00  0.00    +0.000 Cl
ATOM     10  C   UNL     1      10.232  14.885  23.133  0.00  0.00    +0.000 A 
ATOM     11  C   UNL     1      10.525  13.750  22.363  0.00  0.00    +0.000 A 
ATOM     12  C   UNL     1      10.190  14.759  24.530  0.00  0.00    +0.000 A 
ATOM     13  C   UNL     1      10.811  12.525  22.975  0.00  0.00    +0.000 A 
ATOM     14  C   UNL     1      10.487  13.538  25.144  0.00  0.00    +0.000 A 
ATOM     15  C   UNL     1      10.800  12.428  24.364  0.00  0.00    +0.000 A 
ENDBRANCH   5  10
BRANCH   4  17
ATOM     16  N   UNL     1       6.695  15.466  22.427  0.00  0.00    +0.000 NA
ATOM     17  C   UNL     1       7.426  16.407  22.927  0.00  0.00    +0.000 C 
BRANCH  16  18
ATOM     18  O   UNL     1       5.541  15.330  23.223  0.00  0.00    +0.000 OA
BRANCH  18  19
ATOM     19  C   UNL     1       4.696  16.467  23.028  0.00  0.00    +0.000 C 
BRANCH  19  22
ATOM     20 CL   UNL     1       1.620  16.086  18.841  0.00  0.00    +0.000 Cl
ATOM     21 CL   UNL     1      -0.581  14.604  20.724  0.00  0.00    +0.000 Cl
ATOM     22  C   UNL     1       3.387  16.011  22.432  0.00  0.00    +0.000 A 
ATOM     23  C   UNL     1       3.105  16.214  21.073  0.00  0.00    +0.000 A 
ATOM     24  C   UNL     1       2.426  15.380  23.235  0.00  0.00    +0.000 A 
ATOM     25  C   UNL     1       1.888  15.792  20.524  0.00  0.00    +0.000 A 
ATOM     26  C   UNL     1       1.211  14.956  22.688  0.00  0.00    +0.000 A 
ATOM     27  C   UNL     1       0.938  15.159  21.332  0.00  0.00    +0.000 A 
ENDBRANCH  19  22
ENDBRANCH  18  19
ENDBRANCH  16  18
ENDBRANCH   4  17
TORSDOF 5
ENDMDL
MODEL 9
REMARK VINA RESULT:      -4.6      3.755      6.007
REMARK  Name = 5912745
REMARK  5 active torsions:
REMARK  status: ('A' for Active; 'I' for Inactive)
REMARK    1  A    between atoms: O_5  and  N_8
REMARK    2  A    between atoms: O_5  and  C_21
REMARK    3  A    between atoms: C_9  and  C_14
REMARK    4  A    between atoms: C_10  and  C_12
REMARK    5  A    between atoms: C_20  and  C_21
REMARK                            x       y       z     vdW  Elec       q    Type
REMARK                         _______ _______ _______ _____ _____    ______ ____
ROOT
ATOM      1  S   UNL     1      -0.161  19.945  26.598  0.00  0.00    +0.000 S 
ATOM      2  N   UNL     1      -0.254  18.535  24.450  0.00  0.00    +0.000 N 
ATOM      3  N   UNL     1       1.852  18.582  25.197  0.00  0.00    +0.000 NA
ATOM      4  C   UNL     1       0.446  17.748  23.571  0.00  0.00    +0.000 A 
ATOM      5  C   UNL     1       1.763  17.832  24.035  0.00  0.00    +0.000 A 
ATOM      6  C   UNL     1       0.628  18.981  25.390  0.00  0.00    +0.000 A 
ATOM      7  C   UNL     1      -1.560  18.933  24.645  0.00  0.00    +0.000 A 
ATOM      8  C   UNL     1      -1.692  19.695  25.746  0.00  0.00    +0.000 A 
ENDROOT
BRANCH   5  10
ATOM      9 CL   UNL     1       6.606  15.280  21.619  0.00  0.00    +0.000 Cl
ATOM     10  C   UNL     1       2.944  17.229  23.430  0.00  0.00    +0.000 A 
ATOM     11  C   UNL     1       3.454  16.035  23.962  0.00  0.00    +0.000 A 
ATOM     12  C   UNL     1       3.617  17.829  22.356  0.00  0.00    +0.000 A 
ATOM     13  C   UNL     1       4.587  15.431  23.405  0.00  0.00    +0.000 A 
ATOM     14  C   UNL     1       4.743  17.222  21.791  0.00  0.00    +0.000 A 
ATOM     15  C   UNL     1       5.220  16.024  22.315  0.00  0.00    +0.000 A 
ENDBRANCH   5  10
BRANCH   4  17
ATOM     16  N   UNL     1      -0.432  15.759  22.595  0.00  0.00    +0.000 NA
ATOM     17  C   UNL     1      -0.101  17.004  22.476  0.00  0.00    +0.000 C 
BRANCH  16  18
ATOM     18  O   UNL     1      -0.963  15.323  21.366  0.00  0.00    +0.000 OA
BRANCH  18  19
ATOM     19  C   UNL     1      -1.770  16.361  20.805  0.00  0.00    +0.000 C 
BRANCH  19  22
ATOM     20 CL   UNL     1      -4.080  15.832  16.166  0.00  0.00    +0.000 Cl
ATOM     21 CL   UNL     1      -1.162  16.234  14.785  0.00  0.00    +0.000 Cl
ATOM     22  C   UNL     1      -1.642  16.326  19.301  0.00  0.00    +0.000 A 
ATOM     23  C   UNL     1      -2.767  16.125  18.487  0.00  0.00    +0.000 A 
ATOM     24  C   UNL     1      -0.389  16.487  18.694  0.00  0.00    +0.000 A 
ATOM     25  C   UNL     1      -2.644  16.090  17.092  0.00  0.00    +0.000 A 
ATOM     26  C   UNL     1      -0.265  16.455  17.302  0.00  0.00    +0.000 A 
ATOM     27  C   UNL     1      -1.390  16.257  16.497  0.00  0.00    +0.000 A 
ENDBRANCH  19  22
ENDBRANCH  18  19
ENDBRANCH  16  18
ENDBRANCH   4  17
TORSDOF 5
ENDMDL
MODEL 10
REMARK VINA RESULT:      -4.5     30.278     32.030
REMARK  Name = 5912745
REMARK  5 active torsions:
REMARK  status: ('A' for Active; 'I' for Inactive)
REMARK    1  A    between atoms: O_5  and  N_8
REMARK    2  A    between atoms: O_5  and  C_21
REMARK    3  A    between atoms: C_9  and  C_14
REMARK    4  A    between atoms: C_10  and  C_12
REMARK    5  A    between atoms: C_20  and  C_21
REMARK                            x       y       z     vdW  Elec       q    Type
REMARK                         _______ _______ _______ _____ _____    ______ ____
ROOT
ATOM      1  S   UNL     1      -4.763 -12.382  40.704  0.00  0.00    +0.000 S 
ATOM      2  N   UNL     1      -6.018 -10.145  40.526  0.00  0.00    +0.000 N 
ATOM      3  N   UNL     1      -3.882  -9.739  41.039  0.00  0.00    +0.000 NA
ATOM      4  C   UNL     1      -5.924  -8.777  40.573  0.00  0.00    +0.000 A 
ATOM      5  C   UNL     1      -4.592  -8.554  40.938  0.00  0.00    +0.000 A 
ATOM      6  C   UNL     1      -4.780 -10.648  40.794  0.00  0.00    +0.000 A 
ATOM      7  C   UNL     1      -6.982 -11.092  40.248  0.00  0.00    +0.000 A 
ATOM      8  C   UNL     1      -6.485 -12.341  40.300  0.00  0.00    +0.000 A 
ENDROOT
BRANCH   5  10
ATOM      9 CL   UNL     1      -1.958  -3.266  41.884  0.00  0.00    +0.000 Cl
ATOM     10  C   UNL     1      -3.959  -7.266  41.191  0.00  0.00    +0.000 A 
ATOM     11  C   UNL     1      -3.230  -6.645  40.166  0.00  0.00    +0.000 A 
ATOM     12  C   UNL     1      -4.017  -6.645  42.447  0.00  0.00    +0.000 A 
ATOM     13  C   UNL     1      -2.609  -5.409  40.378  0.00  0.00    +0.000 A 
ATOM     14  C   UNL     1      -3.406  -5.404  42.658  0.00  0.00    +0.000 A 
ATOM     15  C   UNL     1      -2.709  -4.790  41.621  0.00  0.00    +0.000 A 
ENDBRANCH   5  10
BRANCH   4  17
ATOM     16  N   UNL     1      -7.354  -7.626  39.052  0.00  0.00    +0.000 NA
ATOM     17  C   UNL     1      -6.966  -7.843  40.267  0.00  0.00    +0.000 C 
BRANCH  16  18
ATOM     18  O   UNL     1      -8.405  -6.689  39.084  0.00  0.00    +0.000 OA
BRANCH  18  19
ATOM     19  C   UNL     1      -7.915  -5.447  39.596  0.00  0.00    +0.000 C 
BRANCH  19  22
ATOM     20 CL   UNL     1     -13.061  -4.992  40.260  0.00  0.00    +0.000 Cl
ATOM     21 CL   UNL     1     -12.539  -2.002  41.433  0.00  0.00    +0.000 Cl
ATOM     22  C   UNL     1      -9.083  -4.606  40.049  0.00  0.00    +0.000 A 
ATOM     23  C   UNL     1     -10.396  -5.096  39.974  0.00  0.00    +0.000 A 
ATOM     24  C   UNL     1      -8.873  -3.312  40.546  0.00  0.00    +0.000 A 
ATOM     25  C   UNL     1     -11.478  -4.312  40.392  0.00  0.00    +0.000 A 
ATOM     26  C   UNL     1      -9.952  -2.528  40.966  0.00  0.00    +0.000 A 
ATOM     27  C   UNL     1     -11.256  -3.024  40.892  0.00  0.00    +0.000 A 
ENDBRANCH  19  22
ENDBRANCH  18  19
ENDBRANCH  16  18
ENDBRANCH   4  17
TORSDOF 5
ENDMDL
