MODEL 1
REMARK VINA RESULT:      -6.4      0.000      0.000
REMARK  Name = 5918161
REMARK  4 active torsions:
REMARK  status: ('A' for Active; 'I' for Inactive)
REMARK    1  A    between atoms: O_5  and  N_8
REMARK    2  A    between atoms: O_5  and  C_14
REMARK    3  A    between atoms: C_9  and  C_16
REMARK    4  A    between atoms: C_13  and  C_14
REMARK                            x       y       z     vdW  Elec       q    Type
REMARK                         _______ _______ _______ _____ _____    ______ ____
ROOT
ATOM      1  N   UNL     1      14.788   6.983  21.108  0.00  0.00    +0.000 NA
ATOM      2  C   UNL     1      13.547   6.835  20.760  0.00  0.00    +0.000 C 
ENDROOT
BRANCH   2   7
ATOM      3 CL   UNL     1      10.742   5.297  21.565  0.00  0.00    +0.000 Cl
ATOM      4  S   UNL     1      10.886  10.508  23.063  0.00  0.00    +0.000 S 
ATOM      5  N   UNL     1      12.366   8.765  21.890  0.00  0.00    +0.000 N 
ATOM      6  N   UNL     1      10.426   7.812  22.467  0.00  0.00    +0.000 NA
ATOM      7  C   UNL     1      12.466   7.468  21.449  0.00  0.00    +0.000 A 
ATOM      8  C   UNL     1      11.142   8.899  22.474  0.00  0.00    +0.000 A 
ATOM      9  C   UNL     1      13.132   9.912  21.885  0.00  0.00    +0.000 A 
ATOM     10  C   UNL     1      11.245   6.907  21.826  0.00  0.00    +0.000 A 
ATOM     11  C   UNL     1      12.496  10.941  22.473  0.00  0.00    +0.000 A 
ENDBRANCH   2   7
BRANCH   1  12
ATOM     12  O   UNL     1      15.574   6.240  20.201  0.00  0.00    +0.000 OA
BRANCH  12  13
ATOM     13  C   UNL     1      16.571   7.084  19.625  0.00  0.00    +0.000 C 
BRANCH  13  16
ATOM     14 CL   UNL     1      20.971   4.459  20.548  0.00  0.00    +0.000 Cl
ATOM     15 CL   UNL     1      21.651   6.619  22.883  0.00  0.00    +0.000 Cl
ATOM     16  C   UNL     1      17.841   6.952  20.434  0.00  0.00    +0.000 A 
ATOM     17  C   UNL     1      18.744   5.907  20.177  0.00  0.00    +0.000 A 
ATOM     18  C   UNL     1      18.154   7.884  21.431  0.00  0.00    +0.000 A 
ATOM     19  C   UNL     1      19.925   5.784  20.920  0.00  0.00    +0.000 A 
ATOM     20  C   UNL     1      19.333   7.762  22.174  0.00  0.00    +0.000 A 
ATOM     21  C   UNL     1      20.218   6.710  21.923  0.00  0.00    +0.000 A 
ENDBRANCH  13  16
ENDBRANCH  12  13
ENDBRANCH   1  12
TORSDOF 4
ENDMDL
MODEL 2
REMARK VINA RESULT:      -5.5      5.470      8.126
REMARK  Name = 5918161
REMARK  4 active torsions:
REMARK  status: ('A' for Active; 'I' for Inactive)
REMARK    1  A    between atoms: O_5  and  N_8
REMARK    2  A    between atoms: O_5  and  C_14
REMARK    3  A    between atoms: C_9  and  C_16
REMARK    4  A    between atoms: C_13  and  C_14
REMARK                            x       y       z     vdW  Elec       q    Type
REMARK                         _______ _______ _______ _____ _____    ______ ____
ROOT
ATOM      1  N   UNL     1      12.385   9.818  22.495  0.00  0.00    +0.000 NA
ATOM      2  C   UNL     1      11.584   9.039  21.836  0.00  0.00    +0.000 C 
ENDROOT
BRANCH   2   7
ATOM      3 CL   UNL     1      11.085   5.790  21.561  0.00  0.00    +0.000 Cl
ATOM      4  S   UNL     1      13.706   7.965  17.339  0.00  0.00    +0.000 S 
ATOM      5  N   UNL     1      12.666   8.678  19.579  0.00  0.00    +0.000 N 
ATOM      6  N   UNL     1      12.385   6.475  19.307  0.00  0.00    +0.000 NA
ATOM      7  C   UNL     1      12.004   8.266  20.709  0.00  0.00    +0.000 A 
ATOM      8  C   UNL     1      12.861   7.576  18.801  0.00  0.00    +0.000 A 
ATOM      9  C   UNL     1      13.173   9.850  19.056  0.00  0.00    +0.000 A 
ATOM     10  C   UNL     1      11.846   6.895  20.505  0.00  0.00    +0.000 A 
ATOM     11  C   UNL     1      13.761   9.653  17.863  0.00  0.00    +0.000 A 
ENDBRANCH   2   7
BRANCH   1  12
ATOM     12  O   UNL     1      11.642  10.399  23.545  0.00  0.00    +0.000 OA
BRANCH  12  13
ATOM     13  C   UNL     1      10.990  11.580  23.078  0.00  0.00    +0.000 C 
BRANCH  13  16
ATOM     14 CL   UNL     1      13.729  13.528  27.052  0.00  0.00    +0.000 Cl
ATOM     15 CL   UNL     1      11.566  15.952  27.223  0.00  0.00    +0.000 Cl
ATOM     16  C   UNL     1      11.144  12.662  24.121  0.00  0.00    +0.000 A 
ATOM     17  C   UNL     1      12.227  12.639  25.016  0.00  0.00    +0.000 A 
ATOM     18  C   UNL     1      10.229  13.720  24.195  0.00  0.00    +0.000 A 
ATOM     19  C   UNL     1      12.376  13.643  25.982  0.00  0.00    +0.000 A 
ATOM     20  C   UNL     1      10.378  14.722  25.159  0.00  0.00    +0.000 A 
ATOM     21  C   UNL     1      11.449  14.684  26.057  0.00  0.00    +0.000 A 
ENDBRANCH  13  16
ENDBRANCH  12  13
ENDBRANCH   1  12
TORSDOF 4
ENDMDL
MODEL 3
REMARK VINA RESULT:      -5.5     19.019     20.735
REMARK  Name = 5918161
REMARK  4 active torsions:
REMARK  status: ('A' for Active; 'I' for Inactive)
REMARK    1  A    between atoms: O_5  and  N_8
REMARK    2  A    between atoms: O_5  and  C_14
REMARK    3  A    between atoms: C_9  and  C_16
REMARK    4  A    between atoms: C_13  and  C_14
REMARK                            x       y       z     vdW  Elec       q    Type
REMARK                         _______ _______ _______ _____ _____    ______ ____
ROOT
ATOM      1  N   UNL     1      11.549   6.623   1.688  0.00  0.00    +0.000 NA
ATOM      2  C   UNL     1      11.306   5.350   1.628  0.00  0.00    +0.000 C 
ENDROOT
BRANCH   2   7
ATOM      3 CL   UNL     1      13.806   3.198   1.608  0.00  0.00    +0.000 Cl
ATOM      4  S   UNL     1      11.105   3.456  -3.089  0.00  0.00    +0.000 S 
ATOM      5  N   UNL     1      11.059   4.503  -0.741  0.00  0.00    +0.000 N 
ATOM      6  N   UNL     1      12.738   3.029  -0.856  0.00  0.00    +0.000 NA
ATOM      7  C   UNL     1      11.650   4.546   0.498  0.00  0.00    +0.000 A 
ATOM      8  C   UNL     1      11.750   3.594  -1.486  0.00  0.00    +0.000 A 
ATOM      9  C   UNL     1      10.013   5.114  -1.402  0.00  0.00    +0.000 A 
ATOM     10  C   UNL     1      12.687   3.618   0.390  0.00  0.00    +0.000 A 
ATOM     11  C   UNL     1       9.893   4.673  -2.666  0.00  0.00    +0.000 A 
ENDBRANCH   2   7
BRANCH   1  12
ATOM     12  O   UNL     1      11.101   7.082   2.945  0.00  0.00    +0.000 OA
BRANCH  12  13
ATOM     13  C   UNL     1       9.789   6.580   3.202  0.00  0.00    +0.000 C 
BRANCH  13  16
ATOM     14 CL   UNL     1       8.856   7.909   8.147  0.00  0.00    +0.000 Cl
ATOM     15 CL   UNL     1       9.462   4.824   8.985  0.00  0.00    +0.000 Cl
ATOM     16  C   UNL     1       9.709   6.157   4.650  0.00  0.00    +0.000 A 
ATOM     17  C   UNL     1       9.359   7.086   5.644  0.00  0.00    +0.000 A 
ATOM     18  C   UNL     1       9.952   4.829   5.023  0.00  0.00    +0.000 A 
ATOM     19  C   UNL     1       9.278   6.698   6.988  0.00  0.00    +0.000 A 
ATOM     20  C   UNL     1       9.871   4.441   6.364  0.00  0.00    +0.000 A 
ATOM     21  C   UNL     1       9.538   5.374   7.350  0.00  0.00    +0.000 A 
ENDBRANCH  13  16
ENDBRANCH  12  13
ENDBRANCH   1  12
TORSDOF 4
ENDMDL
MODEL 4
REMARK VINA RESULT:      -5.4      2.337      2.978
REMARK  Name = 5918161
REMARK  4 active torsions:
REMARK  status: ('A' for Active; 'I' for Inactive)
REMARK    1  A    between atoms: O_5  and  N_8
REMARK    2  A    between atoms: O_5  and  C_14
REMARK    3  A    between atoms: C_9  and  C_16
REMARK    4  A    between atoms: C_13  and  C_14
REMARK                            x       y       z     vdW  Elec       q    Type
REMARK                         _______ _______ _______ _____ _____    ______ ____
ROOT
ATOM      1  N   UNL     1      16.417   7.759  20.411  0.00  0.00    +0.000 NA
ATOM      2  C   UNL     1      15.621   7.094  19.632  0.00  0.00    +0.000 C 
ENDROOT
BRANCH   2   7
ATOM      3 CL   UNL     1      14.334   7.670  16.650  0.00  0.00    +0.000 Cl
ATOM      4  S   UNL     1      10.798   8.294  20.715  0.00  0.00    +0.000 S 
ATOM      5  N   UNL     1      13.258   7.652  20.340  0.00  0.00    +0.000 N 
ATOM      6  N   UNL     1      12.299   8.074  18.363  0.00  0.00    +0.000 NA
ATOM      7  C   UNL     1      14.258   7.464  19.416  0.00  0.00    +0.000 A 
ATOM      8  C   UNL     1      12.137   8.012  19.652  0.00  0.00    +0.000 A 
ATOM      9  C   UNL     1      13.101   7.591  21.708  0.00  0.00    +0.000 A 
ATOM     10  C   UNL     1      13.625   7.733  18.202  0.00  0.00    +0.000 A 
ATOM     11  C   UNL     1      11.848   7.902  22.084  0.00  0.00    +0.000 A 
ENDBRANCH   2   7
BRANCH   1  12
ATOM     12  O   UNL     1      17.679   7.128  20.367  0.00  0.00    +0.000 OA
BRANCH  12  13
ATOM     13  C   UNL     1      18.663   7.978  20.956  0.00  0.00    +0.000 C 
BRANCH  13  16
ATOM     14 CL   UNL     1      21.567   3.658  20.930  0.00  0.00    +0.000 Cl
ATOM     15 CL   UNL     1      22.784   4.581  23.803  0.00  0.00    +0.000 Cl
ATOM     16  C   UNL     1      19.687   7.117  21.657  0.00  0.00    +0.000 A 
ATOM     17  C   UNL     1      20.133   5.921  21.071  0.00  0.00    +0.000 A 
ATOM     18  C   UNL     1      20.232   7.510  22.886  0.00  0.00    +0.000 A 
ATOM     19  C   UNL     1      21.086   5.122  21.715  0.00  0.00    +0.000 A 
ATOM     20  C   UNL     1      21.184   6.713  23.530  0.00  0.00    +0.000 A 
ATOM     21  C   UNL     1      21.610   5.516  22.948  0.00  0.00    +0.000 A 
ENDBRANCH  13  16
ENDBRANCH  12  13
ENDBRANCH   1  12
TORSDOF 4
ENDMDL
MODEL 5
REMARK VINA RESULT:      -5.4     17.958     19.095
REMARK  Name = 5918161
REMARK  4 active torsions:
REMARK  status: ('A' for Active; 'I' for Inactive)
REMARK    1  A    between atoms: O_5  and  N_8
REMARK    2  A    between atoms: O_5  and  C_14
REMARK    3  A    between atoms: C_9  and  C_16
REMARK    4  A    between atoms: C_13  and  C_14
REMARK                            x       y       z     vdW  Elec       q    Type
REMARK                         _______ _______ _______ _____ _____    ______ ____
ROOT
ATOM      1  N   UNL     1      11.523   5.326   3.105  0.00  0.00    +0.000 NA
ATOM      2  C   UNL     1      10.775   5.263   4.162  0.00  0.00    +0.000 C 
ENDROOT
BRANCH   2   7
ATOM      3 CL   UNL     1       9.784   4.480   7.210  0.00  0.00    +0.000 Cl
ATOM      4  S   UNL     1      12.172   9.338   6.868  0.00  0.00    +0.000 S 
ATOM      5  N   UNL     1      11.546   7.352   5.361  0.00  0.00    +0.000 N 
ATOM      6  N   UNL     1      10.901   6.915   7.458  0.00  0.00    +0.000 NA
ATOM      7  C   UNL     1      10.961   6.111   5.298  0.00  0.00    +0.000 A 
ATOM      8  C   UNL     1      11.474   7.766   6.658  0.00  0.00    +0.000 A 
ATOM      9  C   UNL     1      12.145   8.249   4.501  0.00  0.00    +0.000 A 
ATOM     10  C   UNL     1      10.574   5.873   6.617  0.00  0.00    +0.000 A 
ATOM     11  C   UNL     1      12.541   9.366   5.138  0.00  0.00    +0.000 A 
ENDBRANCH   2   7
BRANCH   1  12
ATOM     12  O   UNL     1      11.042   4.369   2.187  0.00  0.00    +0.000 OA
BRANCH  12  13
ATOM     13  C   UNL     1      11.894   3.223   2.194  0.00  0.00    +0.000 C 
BRANCH  13  16
ATOM     14 CL   UNL     1      13.627   4.117  -2.632  0.00  0.00    +0.000 Cl
ATOM     15 CL   UNL     1      16.635   4.310  -1.407  0.00  0.00    +0.000 Cl
ATOM     16  C   UNL     1      13.068   3.490   1.282  0.00  0.00    +0.000 A 
ATOM     17  C   UNL     1      12.872   3.671  -0.097  0.00  0.00    +0.000 A 
ATOM     18  C   UNL     1      14.367   3.591   1.798  0.00  0.00    +0.000 A 
ATOM     19  C   UNL     1      13.958   3.923  -0.946  0.00  0.00    +0.000 A 
ATOM     20  C   UNL     1      15.451   3.843   0.951  0.00  0.00    +0.000 A 
ATOM     21  C   UNL     1      15.249   4.006  -0.422  0.00  0.00    +0.000 A 
ENDBRANCH  13  16
ENDBRANCH  12  13
ENDBRANCH   1  12
TORSDOF 4
ENDMDL
MODEL 6
REMARK VINA RESULT:      -5.4     27.745     29.943
REMARK  Name = 5918161
REMARK  4 active torsions:
REMARK  status: ('A' for Active; 'I' for Inactive)
REMARK    1  A    between atoms: O_5  and  N_8
REMARK    2  A    between atoms: O_5  and  C_14
REMARK    3  A    between atoms: C_9  and  C_16
REMARK    4  A    between atoms: C_13  and  C_14
REMARK                            x       y       z     vdW  Elec       q    Type
REMARK                         _______ _______ _______ _____ _____    ______ ____
ROOT
ATOM      1  N   UNL     1      -7.425 -11.684  19.854  0.00  0.00    +0.000 NA
ATOM      2  C   UNL     1      -8.374 -11.552  18.980  0.00  0.00    +0.000 C 
ENDROOT
BRANCH   2   7
ATOM      3 CL   UNL     1     -10.123  -8.947  17.962  0.00  0.00    +0.000 Cl
ATOM      4  S   UNL     1     -12.886 -12.300  21.208  0.00  0.00    +0.000 S 
ATOM      5  N   UNL     1     -10.556 -12.079  20.146  0.00  0.00    +0.000 N 
ATOM      6  N   UNL     1     -11.818 -10.342  19.517  0.00  0.00    +0.000 NA
ATOM      7  C   UNL     1      -9.737 -11.322  19.344  0.00  0.00    +0.000 A 
ATOM      8  C   UNL     1     -11.761 -11.444  20.207  0.00  0.00    +0.000 A 
ATOM      9  C   UNL     1     -10.481 -13.245  20.879  0.00  0.00    +0.000 A 
ATOM     10  C   UNL     1     -10.554 -10.253  18.972  0.00  0.00    +0.000 A 
ATOM     11  C   UNL     1     -11.638 -13.516  21.510  0.00  0.00    +0.000 A 
ENDBRANCH   2   7
BRANCH   1  12
ATOM     12  O   UNL     1      -6.219 -11.874  19.144  0.00  0.00    +0.000 OA
BRANCH  12  13
ATOM     13  C   UNL     1      -5.598 -10.611  18.903  0.00  0.00    +0.000 C 
BRANCH  13  16
ATOM     14 CL   UNL     1      -1.649 -11.267  15.575  0.00  0.00    +0.000 Cl
ATOM     15 CL   UNL     1      -3.689 -10.493  13.161  0.00  0.00    +0.000 Cl
ATOM     16  C   UNL     1      -5.106 -10.581  17.475  0.00  0.00    +0.000 A 
ATOM     17  C   UNL     1      -3.771 -10.899  17.175  0.00  0.00    +0.000 A 
ATOM     18  C   UNL     1      -5.977 -10.265  16.424  0.00  0.00    +0.000 A 
ATOM     19  C   UNL     1      -3.311 -10.877  15.852  0.00  0.00    +0.000 A 
ATOM     20  C   UNL     1      -5.518 -10.243  15.103  0.00  0.00    +0.000 A 
ATOM     21  C   UNL     1      -4.185 -10.545  14.814  0.00  0.00    +0.000 A 
ENDBRANCH  13  16
ENDBRANCH  12  13
ENDBRANCH   1  12
TORSDOF 4
ENDMDL
MODEL 7
REMARK VINA RESULT:      -5.4      6.072      6.846
REMARK  Name = 5918161
REMARK  4 active torsions:
REMARK  status: ('A' for Active; 'I' for Inactive)
REMARK    1  A    between atoms: O_5  and  N_8
REMARK    2  A    between atoms: O_5  and  C_14
REMARK    3  A    between atoms: C_9  and  C_16
REMARK    4  A    between atoms: C_13  and  C_14
REMARK                            x       y       z     vdW  Elec       q    Type
REMARK                         _______ _______ _______ _____ _____    ______ ____
ROOT
ATOM      1  N   UNL     1      14.098  10.160  15.376  0.00  0.00    +0.000 NA
ATOM      2  C   UNL     1      14.103   8.938  15.811  0.00  0.00    +0.000 C 
ENDROOT
BRANCH   2   7
ATOM      3 CL   UNL     1      10.814   9.196  15.772  0.00  0.00    +0.000 Cl
ATOM      4  S   UNL     1      12.776   6.931  20.294  0.00  0.00    +0.000 S 
ATOM      5  N   UNL     1      13.613   7.900  18.065  0.00  0.00    +0.000 N 
ATOM      6  N   UNL     1      11.382   8.041  18.135  0.00  0.00    +0.000 NA
ATOM      7  C   UNL     1      13.261   8.489  16.875  0.00  0.00    +0.000 A 
ATOM      8  C   UNL     1      12.462   7.667  18.756  0.00  0.00    +0.000 A 
ATOM      9  C   UNL     1      14.766   7.514  18.716  0.00  0.00    +0.000 A 
ATOM     10  C   UNL     1      11.869   8.560  16.954  0.00  0.00    +0.000 A 
ATOM     11  C   UNL     1      14.504   6.975  19.921  0.00  0.00    +0.000 A 
ENDBRANCH   2   7
BRANCH   1  12
ATOM     12  O   UNL     1      15.028  10.237  14.317  0.00  0.00    +0.000 OA
BRANCH  12  13
ATOM     13  C   UNL     1      15.326  11.605  14.037  0.00  0.00    +0.000 C 
BRANCH  13  16
ATOM     14 CL   UNL     1      17.294  13.763  18.347  0.00  0.00    +0.000 Cl
ATOM     15 CL   UNL     1      20.266  13.158  17.170  0.00  0.00    +0.000 Cl
ATOM     16  C   UNL     1      16.551  12.003  14.828  0.00  0.00    +0.000 A 
ATOM     17  C   UNL     1      16.418  12.624  16.082  0.00  0.00    +0.000 A 
ATOM     18  C   UNL     1      17.836  11.734  14.341  0.00  0.00    +0.000 A 
ATOM     19  C   UNL     1      17.550  12.990  16.821  0.00  0.00    +0.000 A 
ATOM     20  C   UNL     1      18.967  12.100  15.079  0.00  0.00    +0.000 A 
ATOM     21  C   UNL     1      18.826  12.731  16.318  0.00  0.00    +0.000 A 
ENDBRANCH  13  16
ENDBRANCH  12  13
ENDBRANCH   1  12
TORSDOF 4
ENDMDL
MODEL 8
REMARK VINA RESULT:      -5.4     26.725     29.682
REMARK  Name = 5918161
REMARK  4 active torsions:
REMARK  status: ('A' for Active; 'I' for Inactive)
REMARK    1  A    between atoms: O_5  and  N_8
REMARK    2  A    between atoms: O_5  and  C_14
REMARK    3  A    between atoms: C_9  and  C_16
REMARK    4  A    between atoms: C_13  and  C_14
REMARK                            x       y       z     vdW  Elec       q    Type
REMARK                         _______ _______ _______ _____ _____    ______ ____
ROOT
ATOM      1  N   UNL     1      -4.577 -11.258  17.362  0.00  0.00    +0.000 NA
ATOM      2  C   UNL     1      -4.183 -10.842  16.198  0.00  0.00    +0.000 C 
ENDROOT
BRANCH   2   7
ATOM      3 CL   UNL     1      -1.027 -10.019  15.704  0.00  0.00    +0.000 Cl
ATOM      4  S   UNL     1      -2.568 -14.479  13.029  0.00  0.00    +0.000 S 
ATOM      5  N   UNL     1      -3.538 -12.727  14.641  0.00  0.00    +0.000 N 
ATOM      6  N   UNL     1      -1.392 -12.244  14.236  0.00  0.00    +0.000 NA
ATOM      7  C   UNL     1      -3.291 -11.588  15.368  0.00  0.00    +0.000 A 
ATOM      8  C   UNL     1      -2.381 -13.055  13.999  0.00  0.00    +0.000 A 
ATOM      9  C   UNL     1      -4.597 -13.576  14.391  0.00  0.00    +0.000 A 
ATOM     10  C   UNL     1      -1.950 -11.319  15.093  0.00  0.00    +0.000 A 
ATOM     11  C   UNL     1      -4.256 -14.569  13.551  0.00  0.00    +0.000 A 
ENDBRANCH   2   7
BRANCH   1  12
ATOM     12  O   UNL     1      -5.461 -10.288  17.882  0.00  0.00    +0.000 OA
BRANCH  12  13
ATOM     13  C   UNL     1      -6.306  -9.798  16.842  0.00  0.00    +0.000 C 
BRANCH  13  16
ATOM     14 CL   UNL     1     -10.886  -7.323  16.824  0.00  0.00    +0.000 Cl
ATOM     15 CL   UNL     1     -11.964  -9.517  18.971  0.00  0.00    +0.000 Cl
ATOM     16  C   UNL     1      -7.719  -9.712  17.368  0.00  0.00    +0.000 A 
ATOM     17  C   UNL     1      -8.583  -8.696  16.927  0.00  0.00    +0.000 A 
ATOM     18  C   UNL     1      -8.202 -10.659  18.281  0.00  0.00    +0.000 A 
ATOM     19  C   UNL     1      -9.896  -8.615  17.409  0.00  0.00    +0.000 A 
ATOM     20  C   UNL     1      -9.513 -10.579  18.762  0.00  0.00    +0.000 A 
ATOM     21  C   UNL     1     -10.361  -9.556  18.330  0.00  0.00    +0.000 A 
ENDBRANCH  13  16
ENDBRANCH  12  13
ENDBRANCH   1  12
TORSDOF 4
ENDMDL
MODEL 9
REMARK VINA RESULT:      -5.3     26.722     29.616
REMARK  Name = 5918161
REMARK  4 active torsions:
REMARK  status: ('A' for Active; 'I' for Inactive)
REMARK    1  A    between atoms: O_5  and  N_8
REMARK    2  A    between atoms: O_5  and  C_14
REMARK    3  A    between atoms: C_9  and  C_16
REMARK    4  A    between atoms: C_13  and  C_14
REMARK                            x       y       z     vdW  Elec       q    Type
REMARK                         _______ _______ _______ _____ _____    ______ ____
ROOT
ATOM      1  N   UNL     1      -5.016 -11.105  16.899  0.00  0.00    +0.000 NA
ATOM      2  C   UNL     1      -4.923 -10.315  15.875  0.00  0.00    +0.000 C 
ENDROOT
BRANCH   2   7
ATOM      3 CL   UNL     1      -1.683 -10.711  16.354  0.00  0.00    +0.000 Cl
ATOM      4  S   UNL     1      -3.158 -10.880  11.137  0.00  0.00    +0.000 S 
ATOM      5  N   UNL     1      -4.213 -10.593  13.464  0.00  0.00    +0.000 N 
ATOM      6  N   UNL     1      -2.003 -10.859  13.687  0.00  0.00    +0.000 NA
ATOM      7  C   UNL     1      -3.985 -10.524  14.816  0.00  0.00    +0.000 A 
ATOM      8  C   UNL     1      -3.006 -10.788  12.861  0.00  0.00    +0.000 A 
ATOM      9  C   UNL     1      -5.283 -10.509  12.598  0.00  0.00    +0.000 A 
ATOM     10  C   UNL     1      -2.604 -10.694  14.917  0.00  0.00    +0.000 A 
ATOM     11  C   UNL     1      -4.902 -10.642  11.315  0.00  0.00    +0.000 A 
ENDBRANCH   2   7
BRANCH   1  12
ATOM     12  O   UNL     1      -6.051 -10.612  17.723  0.00  0.00    +0.000 OA
BRANCH  12  13
ATOM     13  C   UNL     1      -6.835  -9.666  16.996  0.00  0.00    +0.000 C 
BRANCH  13  16
ATOM     14 CL   UNL     1     -10.299 -11.819  20.231  0.00  0.00    +0.000 Cl
ATOM     15 CL   UNL     1     -12.449  -9.581  19.255  0.00  0.00    +0.000 Cl
ATOM     16  C   UNL     1      -8.235  -9.661  17.565  0.00  0.00    +0.000 A 
ATOM     17  C   UNL     1      -8.615 -10.610  18.528  0.00  0.00    +0.000 A 
ATOM     18  C   UNL     1      -9.165  -8.693  17.166  0.00  0.00    +0.000 A 
ATOM     19  C   UNL     1      -9.910 -10.605  19.062  0.00  0.00    +0.000 A 
ATOM     20  C   UNL     1     -10.458  -8.688  17.699  0.00  0.00    +0.000 A 
ATOM     21  C   UNL     1     -10.835  -9.645  18.645  0.00  0.00    +0.000 A 
ENDBRANCH  13  16
ENDBRANCH  12  13
ENDBRANCH   1  12
TORSDOF 4
ENDMDL
MODEL 10
REMARK VINA RESULT:      -5.3      5.619      6.465
REMARK  Name = 5918161
REMARK  4 active torsions:
REMARK  status: ('A' for Active; 'I' for Inactive)
REMARK    1  A    between atoms: O_5  and  N_8
REMARK    2  A    between atoms: O_5  and  C_14
REMARK    3  A    between atoms: C_9  and  C_16
REMARK    4  A    between atoms: C_13  and  C_14
REMARK                            x       y       z     vdW  Elec       q    Type
REMARK                         _______ _______ _______ _____ _____    ______ ____
ROOT
ATOM      1  N   UNL     1      13.936   9.409  16.865  0.00  0.00    +0.000 NA
ATOM      2  C   UNL     1      13.982   8.156  17.193  0.00  0.00    +0.000 C 
ENDROOT
BRANCH   2   7
ATOM      3 CL   UNL     1      16.211   6.359  18.832  0.00  0.00    +0.000 Cl
ATOM      4  S   UNL     1      11.714   7.396  21.683  0.00  0.00    +0.000 S 
ATOM      5  N   UNL     1      12.724   7.884  19.370  0.00  0.00    +0.000 N 
ATOM      6  N   UNL     1      14.168   6.654  20.558  0.00  0.00    +0.000 NA
ATOM      7  C   UNL     1      13.797   7.696  18.534  0.00  0.00    +0.000 A 
ATOM      8  C   UNL     1      13.008   7.243  20.540  0.00  0.00    +0.000 A 
ATOM      9  C   UNL     1      11.494   8.505  19.336  0.00  0.00    +0.000 A 
ATOM     10  C   UNL     1      14.673   6.930  19.305  0.00  0.00    +0.000 A 
ATOM     11  C   UNL     1      10.820   8.347  20.490  0.00  0.00    +0.000 A 
ENDBRANCH   2   7
BRANCH   1  12
ATOM     12  O   UNL     1      14.136   9.491  15.470  0.00  0.00    +0.000 OA
BRANCH  12  13
ATOM     13  C   UNL     1      13.922  10.832  15.031  0.00  0.00    +0.000 C 
BRANCH  13  16
ATOM     14 CL   UNL     1      19.030  11.544  14.324  0.00  0.00    +0.000 Cl
ATOM     15 CL   UNL     1      18.837  14.135  16.282  0.00  0.00    +0.000 Cl
ATOM     16  C   UNL     1      15.159  11.644  15.339  0.00  0.00    +0.000 A 
ATOM     17  C   UNL     1      16.397  11.298  14.772  0.00  0.00    +0.000 A 
ATOM     18  C   UNL     1      15.087  12.772  16.167  0.00  0.00    +0.000 A 
ATOM     19  C   UNL     1      17.545  12.051  15.051  0.00  0.00    +0.000 A 
ATOM     20  C   UNL     1      16.233  13.524  16.444  0.00  0.00    +0.000 A 
ATOM     21  C   UNL     1      17.464  13.163  15.891  0.00  0.00    +0.000 A 
ENDBRANCH  13  16
ENDBRANCH  12  13
ENDBRANCH   1  12
TORSDOF 4
ENDMDL
