MODEL 1
REMARK VINA RESULT:      -5.6      0.000      0.000
REMARK  Name = 5918161
REMARK  4 active torsions:
REMARK  status: ('A' for Active; 'I' for Inactive)
REMARK    1  A    between atoms: O_5  and  N_8
REMARK    2  A    between atoms: O_5  and  C_14
REMARK    3  A    between atoms: C_9  and  C_16
REMARK    4  A    between atoms: C_13  and  C_14
REMARK                            x       y       z     vdW  Elec       q    Type
REMARK                         _______ _______ _______ _____ _____    ______ ____
ROOT
ATOM      1  N   UNL     1      -4.799   1.484 -54.700  0.00  0.00    +0.000 NA
ATOM      2  C   UNL     1      -5.735   1.683 -53.824  0.00  0.00    +0.000 C 
ENDROOT
BRANCH   2   7
ATOM      3 CL   UNL     1      -4.381   1.888 -50.823  0.00  0.00    +0.000 Cl
ATOM      4  S   UNL     1      -7.772  -2.305 -51.410  0.00  0.00    +0.000 S 
ATOM      5  N   UNL     1      -6.846  -0.328 -52.768  0.00  0.00    +0.000 N 
ATOM      6  N   UNL     1      -5.972  -0.279 -50.709  0.00  0.00    +0.000 NA
ATOM      7  C   UNL     1      -6.015   0.765 -52.765  0.00  0.00    +0.000 A 
ATOM      8  C   UNL     1      -6.770  -0.896 -51.530  0.00  0.00    +0.000 A 
ATOM      9  C   UNL     1      -7.684  -0.978 -53.650  0.00  0.00    +0.000 A 
ATOM     10  C   UNL     1      -5.491   0.765 -51.471  0.00  0.00    +0.000 A 
ATOM     11  C   UNL     1      -8.263  -2.056 -53.090  0.00  0.00    +0.000 A 
ENDBRANCH   2   7
BRANCH   1  12
ATOM     12  O   UNL     1      -4.792   2.593 -55.573  0.00  0.00    +0.000 OA
BRANCH  12  13
ATOM     13  C   UNL     1      -5.025   3.790 -54.833  0.00  0.00    +0.000 C 
BRANCH  13  16
ATOM     14 CL   UNL     1      -2.996   5.727 -59.218  0.00  0.00    +0.000 Cl
ATOM     15 CL   UNL     1      -2.186   8.397 -57.544  0.00  0.00    +0.000 Cl
ATOM     16  C   UNL     1      -4.311   4.930 -55.522  0.00  0.00    +0.000 A 
ATOM     17  C   UNL     1      -4.005   4.855 -56.891  0.00  0.00    +0.000 A 
ATOM     18  C   UNL     1      -3.972   6.092 -54.817  0.00  0.00    +0.000 A 
ATOM     19  C   UNL     1      -3.349   5.911 -57.535  0.00  0.00    +0.000 A 
ATOM     20  C   UNL     1      -3.316   7.148 -55.460  0.00  0.00    +0.000 A 
ATOM     21  C   UNL     1      -3.000   7.058 -56.819  0.00  0.00    +0.000 A 
ENDBRANCH  13  16
ENDBRANCH  12  13
ENDBRANCH   1  12
TORSDOF 4
ENDMDL
MODEL 2
REMARK VINA RESULT:      -5.4      1.951      2.379
REMARK  Name = 5918161
REMARK  4 active torsions:
REMARK  status: ('A' for Active; 'I' for Inactive)
REMARK    1  A    between atoms: O_5  and  N_8
REMARK    2  A    between atoms: O_5  and  C_14
REMARK    3  A    between atoms: C_9  and  C_16
REMARK    4  A    between atoms: C_13  and  C_14
REMARK                            x       y       z     vdW  Elec       q    Type
REMARK                         _______ _______ _______ _____ _____    ______ ____
ROOT
ATOM      1  N   UNL     1      -5.157   2.002 -52.240  0.00  0.00    +0.000 NA
ATOM      2  C   UNL     1      -5.384   1.060 -53.102  0.00  0.00    +0.000 C 
ENDROOT
BRANCH   2   7
ATOM      3 CL   UNL     1      -8.322   0.075 -54.234  0.00  0.00    +0.000 Cl
ATOM      4  S   UNL     1      -5.987  -3.460 -50.847  0.00  0.00    +0.000 S 
ATOM      5  N   UNL     1      -5.520  -1.170 -51.916  0.00  0.00    +0.000 N 
ATOM      6  N   UNL     1      -7.508  -1.918 -52.620  0.00  0.00    +0.000 NA
ATOM      7  C   UNL     1      -5.992  -0.185 -52.749  0.00  0.00    +0.000 A 
ATOM      8  C   UNL     1      -6.462  -2.156 -51.884  0.00  0.00    +0.000 A 
ATOM      9  C   UNL     1      -4.410  -1.407 -51.133  0.00  0.00    +0.000 A 
ATOM     10  C   UNL     1      -7.226  -0.684 -53.168  0.00  0.00    +0.000 A 
ATOM     11  C   UNL     1      -4.491  -2.586 -50.492  0.00  0.00    +0.000 A 
ENDBRANCH   2   7
BRANCH   1  12
ATOM     12  O   UNL     1      -4.574   3.083 -52.937  0.00  0.00    +0.000 OA
BRANCH  12  13
ATOM     13  C   UNL     1      -5.465   3.534 -53.957  0.00  0.00    +0.000 C 
BRANCH  13  16
ATOM     14 CL   UNL     1      -3.543   4.927 -58.590  0.00  0.00    +0.000 Cl
ATOM     15 CL   UNL     1      -2.639   7.752 -57.252  0.00  0.00    +0.000 Cl
ATOM     16  C   UNL     1      -4.755   4.575 -54.791  0.00  0.00    +0.000 A 
ATOM     17  C   UNL     1      -4.493   4.341 -56.151  0.00  0.00    +0.000 A 
ATOM     18  C   UNL     1      -4.375   5.802 -54.232  0.00  0.00    +0.000 A 
ATOM     19  C   UNL     1      -3.840   5.306 -56.929  0.00  0.00    +0.000 A 
ATOM     20  C   UNL     1      -3.723   6.766 -55.009  0.00  0.00    +0.000 A 
ATOM     21  C   UNL     1      -3.451   6.518 -56.357  0.00  0.00    +0.000 A 
ENDBRANCH  13  16
ENDBRANCH  12  13
ENDBRANCH   1  12
TORSDOF 4
ENDMDL
MODEL 3
REMARK VINA RESULT:      -5.3      4.431      8.753
REMARK  Name = 5918161
REMARK  4 active torsions:
REMARK  status: ('A' for Active; 'I' for Inactive)
REMARK    1  A    between atoms: O_5  and  N_8
REMARK    2  A    between atoms: O_5  and  C_14
REMARK    3  A    between atoms: C_9  and  C_16
REMARK    4  A    between atoms: C_13  and  C_14
REMARK                            x       y       z     vdW  Elec       q    Type
REMARK                         _______ _______ _______ _____ _____    ______ ____
ROOT
ATOM      1  N   UNL     1      -4.814   4.414 -55.966  0.00  0.00    +0.000 NA
ATOM      2  C   UNL     1      -4.503   4.142 -57.196  0.00  0.00    +0.000 C 
ENDROOT
BRANCH   2   7
ATOM      3 CL   UNL     1      -6.426   4.027 -59.874  0.00  0.00    +0.000 Cl
ATOM      4  S   UNL     1      -3.114   8.321 -59.743  0.00  0.00    +0.000 S 
ATOM      5  N   UNL     1      -3.709   6.261 -58.325  0.00  0.00    +0.000 N 
ATOM      6  N   UNL     1      -4.962   6.264 -60.179  0.00  0.00    +0.000 NA
ATOM      7  C   UNL     1      -4.483   5.131 -58.228  0.00  0.00    +0.000 A 
ATOM      8  C   UNL     1      -4.039   6.877 -59.496  0.00  0.00    +0.000 A 
ATOM      9  C   UNL     1      -2.726   6.898 -57.596  0.00  0.00    +0.000 A 
ATOM     10  C   UNL     1      -5.248   5.167 -59.394  0.00  0.00    +0.000 A 
ATOM     11  C   UNL     1      -2.295   8.016 -58.205  0.00  0.00    +0.000 A 
ENDBRANCH   2   7
BRANCH   1  12
ATOM     12  O   UNL     1      -4.707   3.216 -55.227  0.00  0.00    +0.000 OA
BRANCH  12  13
ATOM     13  C   UNL     1      -4.990   3.471 -53.852  0.00  0.00    +0.000 C 
BRANCH  13  16
ATOM     14 CL   UNL     1      -7.685  -0.957 -54.321  0.00  0.00    +0.000 Cl
ATOM     15 CL   UNL     1      -6.884  -1.652 -51.245  0.00  0.00    +0.000 Cl
ATOM     16  C   UNL     1      -5.475   2.191 -53.212  0.00  0.00    +0.000 A 
ATOM     17  C   UNL     1      -6.261   1.284 -53.942  0.00  0.00    +0.000 A 
ATOM     18  C   UNL     1      -5.124   1.872 -51.894  0.00  0.00    +0.000 A 
ATOM     19  C   UNL     1      -6.709   0.094 -53.355  0.00  0.00    +0.000 A 
ATOM     20  C   UNL     1      -5.570   0.683 -51.308  0.00  0.00    +0.000 A 
ATOM     21  C   UNL     1      -6.366  -0.207 -52.035  0.00  0.00    +0.000 A 
ENDBRANCH  13  16
ENDBRANCH  12  13
ENDBRANCH   1  12
TORSDOF 4
ENDMDL
MODEL 4
REMARK VINA RESULT:      -5.2      2.124      2.907
REMARK  Name = 5918161
REMARK  4 active torsions:
REMARK  status: ('A' for Active; 'I' for Inactive)
REMARK    1  A    between atoms: O_5  and  N_8
REMARK    2  A    between atoms: O_5  and  C_14
REMARK    3  A    between atoms: C_9  and  C_16
REMARK    4  A    between atoms: C_13  and  C_14
REMARK                            x       y       z     vdW  Elec       q    Type
REMARK                         _______ _______ _______ _____ _____    ______ ____
ROOT
ATOM      1  N   UNL     1      -5.409   0.289 -55.043  0.00  0.00    +0.000 NA
ATOM      2  C   UNL     1      -6.359   0.577 -54.209  0.00  0.00    +0.000 C 
ENDROOT
BRANCH   2   7
ATOM      3 CL   UNL     1      -9.604   0.155 -54.621  0.00  0.00    +0.000 Cl
ATOM      4  S   UNL     1      -7.389  -3.275 -51.050  0.00  0.00    +0.000 S 
ATOM      5  N   UNL     1      -6.698  -1.350 -52.607  0.00  0.00    +0.000 N 
ATOM      6  N   UNL     1      -8.897  -1.705 -52.810  0.00  0.00    +0.000 NA
ATOM      7  C   UNL     1      -7.121  -0.420 -53.525  0.00  0.00    +0.000 A 
ATOM      8  C   UNL     1      -7.793  -2.068 -52.227  0.00  0.00    +0.000 A 
ATOM      9  C   UNL     1      -5.522  -1.720 -51.989  0.00  0.00    +0.000 A 
ATOM     10  C   UNL     1      -8.490  -0.671 -53.627  0.00  0.00    +0.000 A 
ATOM     11  C   UNL     1      -5.707  -2.736 -51.127  0.00  0.00    +0.000 A 
ENDBRANCH   2   7
BRANCH   1  12
ATOM     12  O   UNL     1      -4.866   1.507 -55.506  0.00  0.00    +0.000 OA
BRANCH  12  13
ATOM     13  C   UNL     1      -4.974   2.501 -54.487  0.00  0.00    +0.000 C 
BRANCH  13  16
ATOM     14 CL   UNL     1      -4.155   7.586 -53.734  0.00  0.00    +0.000 Cl
ATOM     15 CL   UNL     1      -2.879   7.719 -56.724  0.00  0.00    +0.000 Cl
ATOM     16  C   UNL     1      -4.460   3.812 -55.034  0.00  0.00    +0.000 A 
ATOM     17  C   UNL     1      -4.514   4.979 -54.254  0.00  0.00    +0.000 A 
ATOM     18  C   UNL     1      -3.893   3.880 -56.313  0.00  0.00    +0.000 A 
ATOM     19  C   UNL     1      -4.034   6.196 -54.756  0.00  0.00    +0.000 A 
ATOM     20  C   UNL     1      -3.414   5.095 -56.814  0.00  0.00    +0.000 A 
ATOM     21  C   UNL     1      -3.486   6.255 -56.039  0.00  0.00    +0.000 A 
ENDBRANCH  13  16
ENDBRANCH  12  13
ENDBRANCH   1  12
TORSDOF 4
ENDMDL
MODEL 5
REMARK VINA RESULT:      -5.1      5.776     11.112
REMARK  Name = 5918161
REMARK  4 active torsions:
REMARK  status: ('A' for Active; 'I' for Inactive)
REMARK    1  A    between atoms: O_5  and  N_8
REMARK    2  A    between atoms: O_5  and  C_14
REMARK    3  A    between atoms: C_9  and  C_16
REMARK    4  A    between atoms: C_13  and  C_14
REMARK                            x       y       z     vdW  Elec       q    Type
REMARK                         _______ _______ _______ _____ _____    ______ ____
ROOT
ATOM      1  N   UNL     1      -7.800  -1.369 -50.371  0.00  0.00    +0.000 NA
ATOM      2  C   UNL     1      -6.990  -1.492 -51.377  0.00  0.00    +0.000 C 
ENDROOT
BRANCH   2   7
ATOM      3 CL   UNL     1      -8.164  -1.042 -54.427  0.00  0.00    +0.000 Cl
ATOM      4  S   UNL     1      -4.634   2.766 -52.859  0.00  0.00    +0.000 S 
ATOM      5  N   UNL     1      -5.751   0.636 -51.951  0.00  0.00    +0.000 N 
ATOM      6  N   UNL     1      -6.481   1.020 -54.031  0.00  0.00    +0.000 NA
ATOM      7  C   UNL     1      -6.620  -0.394 -52.214  0.00  0.00    +0.000 A 
ATOM      8  C   UNL     1      -5.715   1.427 -53.061  0.00  0.00    +0.000 A 
ATOM      9  C   UNL     1      -4.937   1.054 -50.919  0.00  0.00    +0.000 A 
ATOM     10  C   UNL     1      -7.054  -0.123 -53.513  0.00  0.00    +0.000 A 
ATOM     11  C   UNL     1      -4.267   2.178 -51.232  0.00  0.00    +0.000 A 
ENDBRANCH   2   7
BRANCH   1  12
ATOM     12  O   UNL     1      -7.918  -2.639 -49.765  0.00  0.00    +0.000 OA
BRANCH  12  13
ATOM     13  C   UNL     1      -9.171  -2.733 -49.088  0.00  0.00    +0.000 C 
BRANCH  13  16
ATOM     14 CL   UNL     1     -10.664  -7.548 -47.787  0.00  0.00    +0.000 Cl
ATOM     15 CL   UNL     1      -8.834  -7.283 -45.110  0.00  0.00    +0.000 Cl
ATOM     16  C   UNL     1      -9.101  -3.876 -48.101  0.00  0.00    +0.000 A 
ATOM     17  C   UNL     1      -9.812  -5.065 -48.336  0.00  0.00    +0.000 A 
ATOM     18  C   UNL     1      -8.304  -3.781 -46.953  0.00  0.00    +0.000 A 
ATOM     19  C   UNL     1      -9.745  -6.128 -47.427  0.00  0.00    +0.000 A 
ATOM     20  C   UNL     1      -8.238  -4.843 -46.044  0.00  0.00    +0.000 A 
ATOM     21  C   UNL     1      -8.961  -6.016 -46.277  0.00  0.00    +0.000 A 
ENDBRANCH  13  16
ENDBRANCH  12  13
ENDBRANCH   1  12
TORSDOF 4
ENDMDL
MODEL 6
REMARK VINA RESULT:      -5.0     13.631     14.977
REMARK  Name = 5918161
REMARK  4 active torsions:
REMARK  status: ('A' for Active; 'I' for Inactive)
REMARK    1  A    between atoms: O_5  and  N_8
REMARK    2  A    between atoms: O_5  and  C_14
REMARK    3  A    between atoms: C_9  and  C_16
REMARK    4  A    between atoms: C_13  and  C_14
REMARK                            x       y       z     vdW  Elec       q    Type
REMARK                         _______ _______ _______ _____ _____    ______ ____
ROOT
ATOM      1  N   UNL     1      -1.078   8.382 -41.735  0.00  0.00    +0.000 NA
ATOM      2  C   UNL     1      -1.892   7.414 -41.445  0.00  0.00    +0.000 C 
ENDROOT
BRANCH   2   7
ATOM      3 CL   UNL     1      -0.690   6.711 -38.454  0.00  0.00    +0.000 Cl
ATOM      4  S   UNL     1      -0.786   2.463 -41.825  0.00  0.00    +0.000 S 
ATOM      5  N   UNL     1      -1.414   4.956 -41.795  0.00  0.00    +0.000 N 
ATOM      6  N   UNL     1      -0.575   4.385 -39.801  0.00  0.00    +0.000 NA
ATOM      7  C   UNL     1      -1.444   6.113 -41.056  0.00  0.00    +0.000 A 
ATOM      8  C   UNL     1      -0.890   3.982 -40.997  0.00  0.00    +0.000 A 
ATOM      9  C   UNL     1      -1.745   4.542 -43.069  0.00  0.00    +0.000 A 
ATOM     10  C   UNL     1      -0.917   5.721 -39.825  0.00  0.00    +0.000 A 
ATOM     11  C   UNL     1      -1.476   3.238 -43.258  0.00  0.00    +0.000 A 
ENDBRANCH   2   7
BRANCH   1  12
ATOM     12  O   UNL     1      -1.860   9.514 -42.048  0.00  0.00    +0.000 OA
BRANCH  12  13
ATOM     13  C   UNL     1      -1.215  10.693 -41.565  0.00  0.00    +0.000 C 
BRANCH  13  16
ATOM     14 CL   UNL     1      -5.414  12.963 -43.643  0.00  0.00    +0.000 Cl
ATOM     15 CL   UNL     1      -5.274  15.172 -41.259  0.00  0.00    +0.000 Cl
ATOM     16  C   UNL     1      -2.232  11.809 -41.504  0.00  0.00    +0.000 A 
ATOM     17  C   UNL     1      -3.254  11.894 -42.465  0.00  0.00    +0.000 A 
ATOM     18  C   UNL     1      -2.194  12.758 -40.474  0.00  0.00    +0.000 A 
ATOM     19  C   UNL     1      -4.202  12.924 -42.410  0.00  0.00    +0.000 A 
ATOM     20  C   UNL     1      -3.140  13.786 -40.419  0.00  0.00    +0.000 A 
ATOM     21  C   UNL     1      -4.143  13.874 -41.388  0.00  0.00    +0.000 A 
ENDBRANCH  13  16
ENDBRANCH  12  13
ENDBRANCH   1  12
TORSDOF 4
ENDMDL
MODEL 7
REMARK VINA RESULT:      -4.8     13.612     15.030
REMARK  Name = 5918161
REMARK  4 active torsions:
REMARK  status: ('A' for Active; 'I' for Inactive)
REMARK    1  A    between atoms: O_5  and  N_8
REMARK    2  A    between atoms: O_5  and  C_14
REMARK    3  A    between atoms: C_9  and  C_16
REMARK    4  A    between atoms: C_13  and  C_14
REMARK                            x       y       z     vdW  Elec       q    Type
REMARK                         _______ _______ _______ _____ _____    ______ ____
ROOT
ATOM      1  N   UNL     1      -1.138   8.697 -42.022  0.00  0.00    +0.000 NA
ATOM      2  C   UNL     1      -1.675   7.629 -41.520  0.00  0.00    +0.000 C 
ENDROOT
BRANCH   2   7
ATOM      3 CL   UNL     1      -2.065   5.286 -43.809  0.00  0.00    +0.000 Cl
ATOM      4  S   UNL     1       1.346   3.902 -39.825  0.00  0.00    +0.000 S 
ATOM      5  N   UNL     1      -0.121   5.886 -40.549  0.00  0.00    +0.000 N 
ATOM      6  N   UNL     1      -0.329   4.234 -42.044  0.00  0.00    +0.000 NA
ATOM      7  C   UNL     1      -1.005   6.366 -41.483  0.00  0.00    +0.000 A 
ATOM      8  C   UNL     1       0.234   4.628 -40.938  0.00  0.00    +0.000 A 
ATOM      9  C   UNL     1       0.463   6.312 -39.374  0.00  0.00    +0.000 A 
ATOM     10  C   UNL     1      -1.109   5.315 -42.395  0.00  0.00    +0.000 A 
ATOM     11  C   UNL     1       1.278   5.378 -38.852  0.00  0.00    +0.000 A 
ENDBRANCH   2   7
BRANCH   1  12
ATOM     12  O   UNL     1      -2.065   9.750 -41.869  0.00  0.00    +0.000 OA
BRANCH  12  13
ATOM     13  C   UNL     1      -1.472  10.979 -42.288  0.00  0.00    +0.000 C 
BRANCH  13  16
ATOM     14 CL   UNL     1      -3.143  15.908 -42.362  0.00  0.00    +0.000 Cl
ATOM     15 CL   UNL     1      -5.910  14.843 -43.702  0.00  0.00    +0.000 Cl
ATOM     16  C   UNL     1      -2.573  11.955 -42.631  0.00  0.00    +0.000 A 
ATOM     17  C   UNL     1      -2.408  13.329 -42.388  0.00  0.00    +0.000 A 
ATOM     18  C   UNL     1      -3.763  11.512 -43.223  0.00  0.00    +0.000 A 
ATOM     19  C   UNL     1      -3.424  14.238 -42.709  0.00  0.00    +0.000 A 
ATOM     20  C   UNL     1      -4.778  12.419 -43.544  0.00  0.00    +0.000 A 
ATOM     21  C   UNL     1      -4.613  13.783 -43.284  0.00  0.00    +0.000 A 
ENDBRANCH  13  16
ENDBRANCH  12  13
ENDBRANCH   1  12
TORSDOF 4
ENDMDL
MODEL 8
REMARK VINA RESULT:      -4.8     20.310     22.610
REMARK  Name = 5918161
REMARK  4 active torsions:
REMARK  status: ('A' for Active; 'I' for Inactive)
REMARK    1  A    between atoms: O_5  and  N_8
REMARK    2  A    between atoms: O_5  and  C_14
REMARK    3  A    between atoms: C_9  and  C_16
REMARK    4  A    between atoms: C_13  and  C_14
REMARK                            x       y       z     vdW  Elec       q    Type
REMARK                         _______ _______ _______ _____ _____    ______ ____
ROOT
ATOM      1  N   UNL     1     -14.646   7.864 -34.660  0.00  0.00    +0.000 NA
ATOM      2  C   UNL     1     -15.828   7.433 -34.976  0.00  0.00    +0.000 C 
ENDROOT
BRANCH   2   7
ATOM      3 CL   UNL     1     -18.655   8.960 -35.723  0.00  0.00    +0.000 Cl
ATOM      4  S   UNL     1     -18.597   6.770 -30.760  0.00  0.00    +0.000 S 
ATOM      5  N   UNL     1     -17.073   7.003 -32.818  0.00  0.00    +0.000 N 
ATOM      6  N   UNL     1     -19.022   8.022 -33.228  0.00  0.00    +0.000 NA
ATOM      7  C   UNL     1     -16.945   7.508 -34.088  0.00  0.00    +0.000 A 
ATOM      8  C   UNL     1     -18.315   7.344 -32.371  0.00  0.00    +0.000 A 
ATOM      9  C   UNL     1     -16.312   6.289 -31.916  0.00  0.00    +0.000 A 
ATOM     10  C   UNL     1     -18.173   8.133 -34.309  0.00  0.00    +0.000 A 
ATOM     11  C   UNL     1     -16.970   6.074 -30.763  0.00  0.00    +0.000 A 
ENDBRANCH   2   7
BRANCH   1  12
ATOM     12  O   UNL     1     -13.805   7.651 -35.774  0.00  0.00    +0.000 OA
BRANCH  12  13
ATOM     13  C   UNL     1     -12.479   8.082 -35.465  0.00  0.00    +0.000 C 
BRANCH  13  16
ATOM     14 CL   UNL     1      -7.533   6.599 -36.119  0.00  0.00    +0.000 Cl
ATOM     15 CL   UNL     1      -8.640   3.752 -37.239  0.00  0.00    +0.000 Cl
ATOM     16  C   UNL     1     -11.509   7.012 -35.910  0.00  0.00    +0.000 A 
ATOM     17  C   UNL     1     -10.123   7.231 -35.830  0.00  0.00    +0.000 A 
ATOM     18  C   UNL     1     -11.972   5.776 -36.378  0.00  0.00    +0.000 A 
ATOM     19  C   UNL     1      -9.220   6.240 -36.236  0.00  0.00    +0.000 A 
ATOM     20  C   UNL     1     -11.070   4.787 -36.783  0.00  0.00    +0.000 A 
ATOM     21  C   UNL     1      -9.693   5.017 -36.717  0.00  0.00    +0.000 A 
ENDBRANCH  13  16
ENDBRANCH  12  13
ENDBRANCH   1  12
TORSDOF 4
ENDMDL
MODEL 9
REMARK VINA RESULT:      -4.8     12.518     14.240
REMARK  Name = 5918161
REMARK  4 active torsions:
REMARK  status: ('A' for Active; 'I' for Inactive)
REMARK    1  A    between atoms: O_5  and  N_8
REMARK    2  A    between atoms: O_5  and  C_14
REMARK    3  A    between atoms: C_9  and  C_16
REMARK    4  A    between atoms: C_13  and  C_14
REMARK                            x       y       z     vdW  Elec       q    Type
REMARK                         _______ _______ _______ _____ _____    ______ ____
ROOT
ATOM      1  N   UNL     1     -10.975  10.810 -60.251  0.00  0.00    +0.000 NA
ATOM      2  C   UNL     1     -11.525  11.778 -59.586  0.00  0.00    +0.000 C 
ENDROOT
BRANCH   2   7
ATOM      3 CL   UNL     1     -14.017  10.141 -58.174  0.00  0.00    +0.000 Cl
ATOM      4  S   UNL     1     -10.789  12.687 -54.635  0.00  0.00    +0.000 S 
ATOM      5  N   UNL     1     -11.010  12.313 -57.169  0.00  0.00    +0.000 N 
ATOM      6  N   UNL     1     -12.672  11.243 -56.121  0.00  0.00    +0.000 NA
ATOM      7  C   UNL     1     -11.740  11.727 -58.174  0.00  0.00    +0.000 A 
ATOM      8  C   UNL     1     -11.615  11.991 -55.991  0.00  0.00    +0.000 A 
ATOM      9  C   UNL     1      -9.892  13.112 -57.044  0.00  0.00    +0.000 A 
ATOM     10  C   UNL     1     -12.762  11.072 -57.486  0.00  0.00    +0.000 A 
ATOM     11  C   UNL     1      -9.628  13.407 -55.759  0.00  0.00    +0.000 A 
ENDBRANCH   2   7
BRANCH   1  12
ATOM     12  O   UNL     1     -10.903  11.210 -61.603  0.00  0.00    +0.000 OA
BRANCH  12  13
ATOM     13  C   UNL     1     -11.707  12.372 -61.804  0.00  0.00    +0.000 C 
BRANCH  13  16
ATOM     14 CL   UNL     1     -16.413  12.647 -64.013  0.00  0.00    +0.000 Cl
ATOM     15 CL   UNL     1     -15.078  11.523 -66.759  0.00  0.00    +0.000 Cl
ATOM     16  C   UNL     1     -12.563  12.160 -63.032  0.00  0.00    +0.000 A 
ATOM     17  C   UNL     1     -13.935  12.459 -63.004  0.00  0.00    +0.000 A 
ATOM     18  C   UNL     1     -11.998  11.692 -64.225  0.00  0.00    +0.000 A 
ATOM     19  C   UNL     1     -14.730  12.269 -64.141  0.00  0.00    +0.000 A 
ATOM     20  C   UNL     1     -12.792  11.502 -65.361  0.00  0.00    +0.000 A 
ATOM     21  C   UNL     1     -14.160  11.786 -65.320  0.00  0.00    +0.000 A 
ENDBRANCH  13  16
ENDBRANCH  12  13
ENDBRANCH   1  12
TORSDOF 4
ENDMDL
MODEL 10
REMARK VINA RESULT:      -4.8     11.647     12.700
REMARK  Name = 5918161
REMARK  4 active torsions:
REMARK  status: ('A' for Active; 'I' for Inactive)
REMARK    1  A    between atoms: O_5  and  N_8
REMARK    2  A    between atoms: O_5  and  C_14
REMARK    3  A    between atoms: C_9  and  C_16
REMARK    4  A    between atoms: C_13  and  C_14
REMARK                            x       y       z     vdW  Elec       q    Type
REMARK                         _______ _______ _______ _____ _____    ______ ____
ROOT
ATOM      1  N   UNL     1     -10.318  13.544 -54.426  0.00  0.00    +0.000 NA
ATOM      2  C   UNL     1      -9.164  12.958 -54.514  0.00  0.00    +0.000 C 
ENDROOT
BRANCH   2   7
ATOM      3 CL   UNL     1      -7.684  15.286 -56.324  0.00  0.00    +0.000 Cl
ATOM      4  S   UNL     1      -5.020  14.037 -51.766  0.00  0.00    +0.000 S 
ATOM      5  N   UNL     1      -7.165  13.385 -53.024  0.00  0.00    +0.000 N 
ATOM      6  N   UNL     1      -6.082  14.960 -54.187  0.00  0.00    +0.000 NA
ATOM      7  C   UNL     1      -7.940  13.595 -54.139  0.00  0.00    +0.000 A 
ATOM      8  C   UNL     1      -6.090  14.218 -53.118  0.00  0.00    +0.000 A 
ATOM      9  C   UNL     1      -7.181  12.587 -51.899  0.00  0.00    +0.000 A 
ATOM     10  C   UNL     1      -7.237  14.579 -54.836  0.00  0.00    +0.000 A 
ATOM     11  C   UNL     1      -6.109  12.805 -51.115  0.00  0.00    +0.000 A 
ENDBRANCH   2   7
BRANCH   1  12
ATOM     12  O   UNL     1     -11.295  12.620 -54.856  0.00  0.00    +0.000 OA
BRANCH  12  13
ATOM     13  C   UNL     1     -10.675  11.577 -55.607  0.00  0.00    +0.000 C 
BRANCH  13  16
ATOM     14 CL   UNL     1     -10.622  11.842 -60.806  0.00  0.00    +0.000 Cl
ATOM     15 CL   UNL     1     -13.724  10.860 -60.786  0.00  0.00    +0.000 Cl
ATOM     16  C   UNL     1     -11.425  11.408 -56.908  0.00  0.00    +0.000 A 
ATOM     17  C   UNL     1     -10.788  11.658 -58.135  0.00  0.00    +0.000 A 
ATOM     18  C   UNL     1     -12.756  10.970 -56.915  0.00  0.00    +0.000 A 
ATOM     19  C   UNL     1     -11.478  11.497 -59.344  0.00  0.00    +0.000 A 
ATOM     20  C   UNL     1     -13.445  10.809 -58.122  0.00  0.00    +0.000 A 
ATOM     21  C   UNL     1     -12.809  11.076 -59.338  0.00  0.00    +0.000 A 
ENDBRANCH  13  16
ENDBRANCH  12  13
ENDBRANCH   1  12
TORSDOF 4
ENDMDL
