REMARK  Name = 5918161
REMARK  4 active torsions:
REMARK  status: ('A' for Active; 'I' for Inactive)
REMARK    1  A    between atoms: O_5  and  N_8
REMARK    2  A    between atoms: O_5  and  C_14
REMARK    3  A    between atoms: C_9  and  C_16
REMARK    4  A    between atoms: C_13  and  C_14
REMARK                            x       y       z     vdW  Elec       q    Type
REMARK                         _______ _______ _______ _____ _____    ______ ____
ROOT
ATOM      1  N   UNL     1       4.492   3.991   0.074  0.00  0.00    +0.000 NA
ATOM      2  C   UNL     1       3.596   3.173   0.532  0.00  0.00    +0.000 C 
ENDROOT
BRANCH   2   7
ATOM      3 CL   UNL     1       1.354   1.207   1.943  0.00  0.00    +0.000 Cl
ATOM      4  S   UNL     1      -0.586   6.070   0.525  0.00  0.00    +0.000 S 
ATOM      5  N   UNL     1       1.616   4.745   0.465  0.00  0.00    +0.000 N 
ATOM      6  N   UNL     1       0.024   3.482   1.401  0.00  0.00    +0.000 NA
ATOM      7  C   UNL     1       2.239   3.558   0.764  0.00  0.00    +0.000 A 
ATOM      8  C   UNL     1       0.317   4.630   0.863  0.00  0.00    +0.000 A 
ATOM      9  C   UNL     1       1.937   5.955  -0.114  0.00  0.00    +0.000 A 
ATOM     10  C   UNL     1       1.221   2.800   1.344  0.00  0.00    +0.000 A 
ATOM     11  C   UNL     1       0.879   6.784  -0.162  0.00  0.00    +0.000 A 
ENDBRANCH   2   7
BRANCH   1  12
ATOM     12  O   UNL     1       5.700   3.271  -0.050  0.00  0.00    +0.000 OA
BRANCH  12  13
ATOM     13  C   UNL     1       6.803   4.177  -0.045  0.00  0.00    +0.000 C 
BRANCH  13  16
ATOM     14 CL   UNL     1      10.644   1.554   2.293  0.00  0.00    +0.000 Cl
ATOM     15 CL   UNL     1      11.907   0.981  -0.650  0.00  0.00    +0.000 Cl
ATOM     16  C   UNL     1       8.081   3.382  -0.180  0.00  0.00    +0.000 A 
ATOM     17  C   UNL     1       8.726   2.872   0.959  0.00  0.00    +0.000 A 
ATOM     18  C   UNL     1       8.627   3.114  -1.442  0.00  0.00    +0.000 A 
ATOM     19  C   UNL     1       9.908   2.130   0.838  0.00  0.00    +0.000 A 
ATOM     20  C   UNL     1       9.807   2.373  -1.563  0.00  0.00    +0.000 A 
ATOM     21  C   UNL     1      10.452   1.883  -0.424  0.00  0.00    +0.000 A 
ENDBRANCH  13  16
ENDBRANCH  12  13
ENDBRANCH   1  12
TORSDOF 4
