MODEL 1
REMARK VINA RESULT:      -5.8      0.000      0.000
REMARK  Name = 5929121
REMARK  6 active torsions:
REMARK  status: ('A' for Active; 'I' for Inactive)
REMARK    1  A    between atoms: O_4  and  N_7
REMARK    2  A    between atoms: O_4  and  C_22
REMARK    3  A    between atoms: C_8  and  C_10
REMARK    4  A    between atoms: C_9  and  C_15
REMARK    5  A    between atoms: C_16  and  C_20
REMARK    6  A    between atoms: C_21  and  C_22
REMARK                            x       y       z     vdW  Elec       q    Type
REMARK                         _______ _______ _______ _____ _____    ______ ____
ROOT
ATOM      1  S   UNL     1      -1.803   7.677 -57.833  0.00  0.00    +0.000 S 
ATOM      2  N   UNL     1      -3.271   5.813 -56.852  0.00  0.00    +0.000 N 
ATOM      3  N   UNL     1      -3.581   5.881 -59.058  0.00  0.00    +0.000 NA
ATOM      4  C   UNL     1      -4.370   4.887 -58.484  0.00  0.00    +0.000 A 
ATOM      5  C   UNL     1      -4.200   4.836 -57.095  0.00  0.00    +0.000 A 
ATOM      6  C   UNL     1      -2.946   6.389 -58.044  0.00  0.00    +0.000 A 
ATOM      7  C   UNL     1      -2.650   6.363 -55.747  0.00  0.00    +0.000 A 
ATOM      8  C   UNL     1      -1.831   7.373 -56.089  0.00  0.00    +0.000 A 
ENDROOT
BRANCH   4   9
ATOM      9  C   UNL     1      -5.243   4.052 -59.307  0.00  0.00    +0.000 A 
ATOM     10  C   UNL     1      -6.384   4.558 -59.944  0.00  0.00    +0.000 A 
ATOM     11  C   UNL     1      -4.956   2.688 -59.449  0.00  0.00    +0.000 A 
ATOM     12  C   UNL     1      -6.874   2.388 -60.913  0.00  0.00    +0.000 A 
ATOM     13  C   UNL     1      -7.179   3.741 -60.754  0.00  0.00    +0.000 A 
ATOM     14  C   UNL     1      -5.765   1.863 -60.239  0.00  0.00    +0.000 A 
ATOM     15  C   UNL     1      -7.757   1.499 -61.737  0.00  0.00    +0.000 C 
ENDBRANCH   4   9
BRANCH   5  17
ATOM     16  N   UNL     1      -4.280   2.936 -55.704  0.00  0.00    +0.000 NA
ATOM     17  C   UNL     1      -4.821   4.047 -56.075  0.00  0.00    +0.000 C 
BRANCH  16  18
ATOM     18  O   UNL     1      -5.024   2.359 -54.669  0.00  0.00    +0.000 OA
BRANCH  18  19
ATOM     19  C   UNL     1      -4.652   0.980 -54.590  0.00  0.00    +0.000 C 
BRANCH  19  22
ATOM     20 CL   UNL     1      -5.551   0.915 -51.567  0.00  0.00    +0.000 Cl
ATOM     21  F   UNL     1      -6.138  -0.488 -56.455  0.00  0.00    +0.000 F 
ATOM     22  C   UNL     1      -5.826   0.135 -54.186  0.00  0.00    +0.000 A 
ATOM     23  C   UNL     1      -6.295   0.052 -52.869  0.00  0.00    +0.000 A 
ATOM     24  C   UNL     1      -6.531  -0.561 -55.175  0.00  0.00    +0.000 A 
ATOM     25  C   UNL     1      -7.419  -0.725 -52.558  0.00  0.00    +0.000 A 
ATOM     26  C   UNL     1      -7.656  -1.327 -54.876  0.00  0.00    +0.000 A 
ATOM     27  C   UNL     1      -8.099  -1.414 -53.561  0.00  0.00    +0.000 A 
ENDBRANCH  19  22
ENDBRANCH  18  19
ENDBRANCH  16  18
ENDBRANCH   5  17
TORSDOF 5
ENDMDL
MODEL 2
REMARK VINA RESULT:      -5.7     20.930     23.723
REMARK  Name = 5929121
REMARK  6 active torsions:
REMARK  status: ('A' for Active; 'I' for Inactive)
REMARK    1  A    between atoms: O_4  and  N_7
REMARK    2  A    between atoms: O_4  and  C_22
REMARK    3  A    between atoms: C_8  and  C_10
REMARK    4  A    between atoms: C_9  and  C_15
REMARK    5  A    between atoms: C_16  and  C_20
REMARK    6  A    between atoms: C_21  and  C_22
REMARK                            x       y       z     vdW  Elec       q    Type
REMARK                         _______ _______ _______ _____ _____    ______ ____
ROOT
ATOM      1  S   UNL     1     -11.857   0.633 -33.243  0.00  0.00    +0.000 S 
ATOM      2  N   UNL     1     -12.018   2.863 -34.504  0.00  0.00    +0.000 N 
ATOM      3  N   UNL     1      -9.892   2.191 -34.508  0.00  0.00    +0.000 NA
ATOM      4  C   UNL     1     -10.021   3.406 -35.175  0.00  0.00    +0.000 A 
ATOM      5  C   UNL     1     -11.348   3.854 -35.174  0.00  0.00    +0.000 A 
ATOM      6  C   UNL     1     -11.109   1.915 -34.141  0.00  0.00    +0.000 A 
ATOM      7  C   UNL     1     -13.312   2.625 -34.087  0.00  0.00    +0.000 A 
ATOM      8  C   UNL     1     -13.408   1.474 -33.397  0.00  0.00    +0.000 A 
ENDROOT
BRANCH   4   9
ATOM      9  C   UNL     1      -8.859   4.065 -35.767  0.00  0.00    +0.000 A 
ATOM     10  C   UNL     1      -8.104   5.022 -35.076  0.00  0.00    +0.000 A 
ATOM     11  C   UNL     1      -8.491   3.758 -37.084  0.00  0.00    +0.000 A 
ATOM     12  C   UNL     1      -6.598   5.279 -36.961  0.00  0.00    +0.000 A 
ATOM     13  C   UNL     1      -6.976   5.608 -35.658  0.00  0.00    +0.000 A 
ATOM     14  C   UNL     1      -7.376   4.362 -37.677  0.00  0.00    +0.000 A 
ATOM     15  C   UNL     1      -5.421   5.948 -37.605  0.00  0.00    +0.000 C 
ENDBRANCH   4   9
BRANCH   5  17
ATOM     16  N   UNL     1     -11.804   6.160 -35.028  0.00  0.00    +0.000 NA
ATOM     17  C   UNL     1     -11.964   5.049 -35.664  0.00  0.00    +0.000 C 
BRANCH  16  18
ATOM     18  O   UNL     1     -12.447   7.202 -35.706  0.00  0.00    +0.000 OA
BRANCH  18  19
ATOM     19  C   UNL     1     -11.539   8.306 -35.757  0.00  0.00    +0.000 C 
BRANCH  19  22
ATOM     20 CL   UNL     1     -13.677   8.969 -33.534  0.00  0.00    +0.000 Cl
ATOM     21  F   UNL     1      -8.828   8.356 -35.057  0.00  0.00    +0.000 F 
ATOM     22  C   UNL     1     -11.079   8.680 -34.378  0.00  0.00    +0.000 A 
ATOM     23  C   UNL     1     -11.959   8.985 -33.330  0.00  0.00    +0.000 A 
ATOM     24  C   UNL     1      -9.709   8.670 -34.095  0.00  0.00    +0.000 A 
ATOM     25  C   UNL     1     -11.471   9.291 -32.053  0.00  0.00    +0.000 A 
ATOM     26  C   UNL     1      -9.216   8.964 -32.825  0.00  0.00    +0.000 A 
ATOM     27  C   UNL     1     -10.100   9.280 -31.801  0.00  0.00    +0.000 A 
ENDBRANCH  19  22
ENDBRANCH  18  19
ENDBRANCH  16  18
ENDBRANCH   5  17
TORSDOF 5
ENDMDL
MODEL 3
REMARK VINA RESULT:      -5.7      3.130      6.016
REMARK  Name = 5929121
REMARK  6 active torsions:
REMARK  status: ('A' for Active; 'I' for Inactive)
REMARK    1  A    between atoms: O_4  and  N_7
REMARK    2  A    between atoms: O_4  and  C_22
REMARK    3  A    between atoms: C_8  and  C_10
REMARK    4  A    between atoms: C_9  and  C_15
REMARK    5  A    between atoms: C_16  and  C_20
REMARK    6  A    between atoms: C_21  and  C_22
REMARK                            x       y       z     vdW  Elec       q    Type
REMARK                         _______ _______ _______ _____ _____    ______ ____
ROOT
ATOM      1  S   UNL     1      -0.538   8.310 -57.149  0.00  0.00    +0.000 S 
ATOM      2  N   UNL     1      -2.503   6.910 -58.027  0.00  0.00    +0.000 N 
ATOM      3  N   UNL     1      -2.125   6.358 -55.901  0.00  0.00    +0.000 NA
ATOM      4  C   UNL     1      -3.179   5.611 -56.420  0.00  0.00    +0.000 A 
ATOM      5  C   UNL     1      -3.426   5.933 -57.760  0.00  0.00    +0.000 A 
ATOM      6  C   UNL     1      -1.771   7.116 -56.896  0.00  0.00    +0.000 A 
ATOM      7  C   UNL     1      -2.120   7.665 -59.119  0.00  0.00    +0.000 A 
ATOM      8  C   UNL     1      -1.082   8.469 -58.827  0.00  0.00    +0.000 A 
ENDROOT
BRANCH   4   9
ATOM      9  C   UNL     1      -3.881   4.628 -55.596  0.00  0.00    +0.000 A 
ATOM     10  C   UNL     1      -4.819   4.996 -54.622  0.00  0.00    +0.000 A 
ATOM     11  C   UNL     1      -3.595   3.266 -55.756  0.00  0.00    +0.000 A 
ATOM     12  C   UNL     1      -5.229   2.673 -54.057  0.00  0.00    +0.000 A 
ATOM     13  C   UNL     1      -5.500   4.031 -53.875  0.00  0.00    +0.000 A 
ATOM     14  C   UNL     1      -4.258   2.298 -54.992  0.00  0.00    +0.000 A 
ATOM     15  C   UNL     1      -5.920   1.640 -53.218  0.00  0.00    +0.000 C 
ENDBRANCH   4   9
BRANCH   5  17
ATOM     16  N   UNL     1      -4.854   6.189 -59.616  0.00  0.00    +0.000 NA
ATOM     17  C   UNL     1      -4.342   5.408 -58.726  0.00  0.00    +0.000 C 
BRANCH  16  18
ATOM     18  O   UNL     1      -5.676   5.461 -60.483  0.00  0.00    +0.000 OA
BRANCH  18  19
ATOM     19  C   UNL     1      -4.892   4.395 -61.025  0.00  0.00    +0.000 C 
BRANCH  19  22
ATOM     20 CL   UNL     1      -4.882   2.057 -58.906  0.00  0.00    +0.000 Cl
ATOM     21  F   UNL     1      -6.562   4.161 -63.260  0.00  0.00    +0.000 F 
ATOM     22  C   UNL     1      -5.740   3.179 -61.262  0.00  0.00    +0.000 A 
ATOM     23  C   UNL     1      -5.800   2.098 -60.373  0.00  0.00    +0.000 A 
ATOM     24  C   UNL     1      -6.561   3.137 -62.394  0.00  0.00    +0.000 A 
ATOM     25  C   UNL     1      -6.639   1.005 -60.630  0.00  0.00    +0.000 A 
ATOM     26  C   UNL     1      -7.407   2.059 -62.652  0.00  0.00    +0.000 A 
ATOM     27  C   UNL     1      -7.442   0.987 -61.769  0.00  0.00    +0.000 A 
ENDBRANCH  19  22
ENDBRANCH  18  19
ENDBRANCH  16  18
ENDBRANCH   5  17
TORSDOF 5
ENDMDL
MODEL 4
REMARK VINA RESULT:      -5.5      4.501      8.130
REMARK  Name = 5929121
REMARK  6 active torsions:
REMARK  status: ('A' for Active; 'I' for Inactive)
REMARK    1  A    between atoms: O_4  and  N_7
REMARK    2  A    between atoms: O_4  and  C_22
REMARK    3  A    between atoms: C_8  and  C_10
REMARK    4  A    between atoms: C_9  and  C_15
REMARK    5  A    between atoms: C_16  and  C_20
REMARK    6  A    between atoms: C_21  and  C_22
REMARK                            x       y       z     vdW  Elec       q    Type
REMARK                         _______ _______ _______ _____ _____    ______ ____
ROOT
ATOM      1  S   UNL     1      -6.693  -5.675 -59.307  0.00  0.00    +0.000 S 
ATOM      2  N   UNL     1      -6.268  -3.253 -58.567  0.00  0.00    +0.000 N 
ATOM      3  N   UNL     1      -7.035  -4.410 -56.823  0.00  0.00    +0.000 NA
ATOM      4  C   UNL     1      -6.802  -3.084 -56.466  0.00  0.00    +0.000 A 
ATOM      5  C   UNL     1      -6.330  -2.336 -57.551  0.00  0.00    +0.000 A 
ATOM      6  C   UNL     1      -6.692  -4.452 -58.076  0.00  0.00    +0.000 A 
ATOM      7  C   UNL     1      -5.942  -3.252 -59.909  0.00  0.00    +0.000 A 
ATOM      8  C   UNL     1      -6.112  -4.465 -60.463  0.00  0.00    +0.000 A 
ENDROOT
BRANCH   4   9
ATOM      9  C   UNL     1      -7.052  -2.618 -55.103  0.00  0.00    +0.000 A 
ATOM     10  C   UNL     1      -7.812  -1.473 -54.828  0.00  0.00    +0.000 A 
ATOM     11  C   UNL     1      -6.495  -3.316 -54.024  0.00  0.00    +0.000 A 
ATOM     12  C   UNL     1      -7.527  -1.788 -52.440  0.00  0.00    +0.000 A 
ATOM     13  C   UNL     1      -8.064  -1.074 -53.512  0.00  0.00    +0.000 A 
ATOM     14  C   UNL     1      -6.725  -2.904 -52.706  0.00  0.00    +0.000 A 
ATOM     15  C   UNL     1      -7.751  -1.329 -51.030  0.00  0.00    +0.000 C 
ENDBRANCH   4   9
BRANCH   5  17
ATOM     16  N   UNL     1      -4.949  -0.470 -57.151  0.00  0.00    +0.000 NA
ATOM     17  C   UNL     1      -6.013  -0.948 -57.702  0.00  0.00    +0.000 C 
BRANCH  16  18
ATOM     18  O   UNL     1      -4.809   0.886 -57.466  0.00  0.00    +0.000 OA
BRANCH  18  19
ATOM     19  C   UNL     1      -3.808   1.428 -56.600  0.00  0.00    +0.000 C 
BRANCH  19  22
ATOM     20 CL   UNL     1      -4.852   0.455 -53.786  0.00  0.00    +0.000 Cl
ATOM     21  F   UNL     1      -3.962   4.157 -57.208  0.00  0.00    +0.000 F 
ATOM     22  C   UNL     1      -4.410   2.423 -55.650  0.00  0.00    +0.000 A 
ATOM     23  C   UNL     1      -4.894   2.079 -54.381  0.00  0.00    +0.000 A 
ATOM     24  C   UNL     1      -4.441   3.774 -56.015  0.00  0.00    +0.000 A 
ATOM     25  C   UNL     1      -5.411   3.059 -53.523  0.00  0.00    +0.000 A 
ATOM     26  C   UNL     1      -4.945   4.756 -55.164  0.00  0.00    +0.000 A 
ATOM     27  C   UNL     1      -5.436   4.397 -53.915  0.00  0.00    +0.000 A 
ENDBRANCH  19  22
ENDBRANCH  18  19
ENDBRANCH  16  18
ENDBRANCH   5  17
TORSDOF 5
ENDMDL
MODEL 5
REMARK VINA RESULT:      -5.5      3.677      7.184
REMARK  Name = 5929121
REMARK  6 active torsions:
REMARK  status: ('A' for Active; 'I' for Inactive)
REMARK    1  A    between atoms: O_4  and  N_7
REMARK    2  A    between atoms: O_4  and  C_22
REMARK    3  A    between atoms: C_8  and  C_10
REMARK    4  A    between atoms: C_9  and  C_15
REMARK    5  A    between atoms: C_16  and  C_20
REMARK    6  A    between atoms: C_21  and  C_22
REMARK                            x       y       z     vdW  Elec       q    Type
REMARK                         _______ _______ _______ _____ _____    ______ ____
ROOT
ATOM      1  S   UNL     1      -1.522   7.367 -59.492  0.00  0.00    +0.000 S 
ATOM      2  N   UNL     1      -3.645   5.926 -59.407  0.00  0.00    +0.000 N 
ATOM      3  N   UNL     1      -2.655   5.858 -57.411  0.00  0.00    +0.000 NA
ATOM      4  C   UNL     1      -3.808   5.078 -57.411  0.00  0.00    +0.000 A 
ATOM      5  C   UNL     1      -4.440   5.097 -58.660  0.00  0.00    +0.000 A 
ATOM      6  C   UNL     1      -2.615   6.343 -58.618  0.00  0.00    +0.000 A 
ATOM      7  C   UNL     1      -3.607   6.383 -60.710  0.00  0.00    +0.000 A 
ATOM      8  C   UNL     1      -2.537   7.167 -60.930  0.00  0.00    +0.000 A 
ENDROOT
BRANCH   4   9
ATOM      9  C   UNL     1      -4.228   4.358 -56.210  0.00  0.00    +0.000 A 
ATOM     10  C   UNL     1      -4.360   2.964 -56.178  0.00  0.00    +0.000 A 
ATOM     11  C   UNL     1      -4.539   5.079 -55.050  0.00  0.00    +0.000 A 
ATOM     12  C   UNL     1      -5.013   3.023 -53.842  0.00  0.00    +0.000 A 
ATOM     13  C   UNL     1      -4.729   2.302 -55.003  0.00  0.00    +0.000 A 
ATOM     14  C   UNL     1      -4.933   4.420 -53.879  0.00  0.00    +0.000 A 
ATOM     15  C   UNL     1      -5.462   2.318 -52.597  0.00  0.00    +0.000 C 
ENDBRANCH   4   9
BRANCH   5  17
ATOM     16  N   UNL     1      -5.452   3.368 -59.901  0.00  0.00    +0.000 NA
ATOM     17  C   UNL     1      -5.595   4.420 -59.168  0.00  0.00    +0.000 C 
BRANCH  16  18
ATOM     18  O   UNL     1      -6.702   2.844 -60.244  0.00  0.00    +0.000 OA
BRANCH  18  19
ATOM     19  C   UNL     1      -7.246   3.669 -61.279  0.00  0.00    +0.000 C 
BRANCH  19  22
ATOM     20 CL   UNL     1      -7.793   0.761 -62.372  0.00  0.00    +0.000 Cl
ATOM     21  F   UNL     1      -5.817   5.454 -62.895  0.00  0.00    +0.000 F 
ATOM     22  C   UNL     1      -6.700   3.268 -62.619  0.00  0.00    +0.000 A 
ATOM     23  C   UNL     1      -6.898   2.001 -63.182  0.00  0.00    +0.000 A 
ATOM     24  C   UNL     1      -6.007   4.217 -63.379  0.00  0.00    +0.000 A 
ATOM     25  C   UNL     1      -6.395   1.696 -64.454  0.00  0.00    +0.000 A 
ATOM     26  C   UNL     1      -5.512   3.926 -64.649  0.00  0.00    +0.000 A 
ATOM     27  C   UNL     1      -5.703   2.659 -65.187  0.00  0.00    +0.000 A 
ENDBRANCH  19  22
ENDBRANCH  18  19
ENDBRANCH  16  18
ENDBRANCH   5  17
TORSDOF 5
ENDMDL
MODEL 6
REMARK VINA RESULT:      -5.5     20.356     21.494
REMARK  Name = 5929121
REMARK  6 active torsions:
REMARK  status: ('A' for Active; 'I' for Inactive)
REMARK    1  A    between atoms: O_4  and  N_7
REMARK    2  A    between atoms: O_4  and  C_22
REMARK    3  A    between atoms: C_8  and  C_10
REMARK    4  A    between atoms: C_9  and  C_15
REMARK    5  A    between atoms: C_16  and  C_20
REMARK    6  A    between atoms: C_21  and  C_22
REMARK                            x       y       z     vdW  Elec       q    Type
REMARK                         _______ _______ _______ _____ _____    ______ ____
ROOT
ATOM      1  S   UNL     1     -21.815  14.548 -50.929  0.00  0.00    +0.000 S 
ATOM      2  N   UNL     1     -20.893  14.981 -48.573  0.00  0.00    +0.000 N 
ATOM      3  N   UNL     1     -19.291  15.420 -50.059  0.00  0.00    +0.000 NA
ATOM      4  C   UNL     1     -18.826  15.632 -48.763  0.00  0.00    +0.000 A 
ATOM      5  C   UNL     1     -19.814  15.350 -47.812  0.00  0.00    +0.000 A 
ATOM      6  C   UNL     1     -20.523  15.044 -49.883  0.00  0.00    +0.000 A 
ATOM      7  C   UNL     1     -22.182  14.538 -48.348  0.00  0.00    +0.000 A 
ATOM      8  C   UNL     1     -22.819  14.260 -49.499  0.00  0.00    +0.000 A 
ENDROOT
BRANCH   4   9
ATOM      9  C   UNL     1     -17.459  16.087 -48.520  0.00  0.00    +0.000 A 
ATOM     10  C   UNL     1     -16.340  15.293 -48.805  0.00  0.00    +0.000 A 
ATOM     11  C   UNL     1     -17.245  17.352 -47.956  0.00  0.00    +0.000 A 
ATOM     12  C   UNL     1     -14.836  17.043 -48.056  0.00  0.00    +0.000 A 
ATOM     13  C   UNL     1     -15.044  15.771 -48.594  0.00  0.00    +0.000 A 
ATOM     14  C   UNL     1     -15.948  17.824 -47.722  0.00  0.00    +0.000 A 
ATOM     15  C   UNL     1     -13.447  17.535 -47.779  0.00  0.00    +0.000 C 
ENDBRANCH   4   9
BRANCH   5  17
ATOM     16  N   UNL     1     -19.638  16.462 -45.743  0.00  0.00    +0.000 NA
ATOM     17  C   UNL     1     -19.805  15.354 -46.381  0.00  0.00    +0.000 C 
BRANCH  16  18
ATOM     18  O   UNL     1     -19.713  16.242 -44.363  0.00  0.00    +0.000 OA
BRANCH  18  19
ATOM     19  C   UNL     1     -18.786  15.200 -44.044  0.00  0.00    +0.000 C 
BRANCH  19  22
ATOM     20 CL   UNL     1     -17.928  17.755 -42.403  0.00  0.00    +0.000 Cl
ATOM     21  F   UNL     1     -16.845  13.883 -45.573  0.00  0.00    +0.000 F 
ATOM     22  C   UNL     1     -17.373  15.699 -44.138  0.00  0.00    +0.000 A 
ATOM     23  C   UNL     1     -16.906  16.821 -43.441  0.00  0.00    +0.000 A 
ATOM     24  C   UNL     1     -16.453  14.982 -44.911  0.00  0.00    +0.000 A 
ATOM     25  C   UNL     1     -15.566  17.218 -43.541  0.00  0.00    +0.000 A 
ATOM     26  C   UNL     1     -15.115  15.364 -45.007  0.00  0.00    +0.000 A 
ATOM     27  C   UNL     1     -14.671  16.489 -44.323  0.00  0.00    +0.000 A 
ENDBRANCH  19  22
ENDBRANCH  18  19
ENDBRANCH  16  18
ENDBRANCH   5  17
TORSDOF 5
ENDMDL
MODEL 7
REMARK VINA RESULT:      -5.3      3.630      6.534
REMARK  Name = 5929121
REMARK  6 active torsions:
REMARK  status: ('A' for Active; 'I' for Inactive)
REMARK    1  A    between atoms: O_4  and  N_7
REMARK    2  A    between atoms: O_4  and  C_22
REMARK    3  A    between atoms: C_8  and  C_10
REMARK    4  A    between atoms: C_9  and  C_15
REMARK    5  A    between atoms: C_16  and  C_20
REMARK    6  A    between atoms: C_21  and  C_22
REMARK                            x       y       z     vdW  Elec       q    Type
REMARK                         _______ _______ _______ _____ _____    ______ ____
ROOT
ATOM      1  S   UNL     1      -4.519   4.741 -54.133  0.00  0.00    +0.000 S 
ATOM      2  N   UNL     1      -4.871   2.433 -55.201  0.00  0.00    +0.000 N 
ATOM      3  N   UNL     1      -5.721   2.404 -53.141  0.00  0.00    +0.000 NA
ATOM      4  C   UNL     1      -5.882   1.164 -53.753  0.00  0.00    +0.000 A 
ATOM      5  C   UNL     1      -5.343   1.156 -55.045  0.00  0.00    +0.000 A 
ATOM      6  C   UNL     1      -5.124   3.117 -54.050  0.00  0.00    +0.000 A 
ATOM      7  C   UNL     1      -4.194   3.147 -56.170  0.00  0.00    +0.000 A 
ATOM      8  C   UNL     1      -3.925   4.401 -55.766  0.00  0.00    +0.000 A 
ENDROOT
BRANCH   4   9
ATOM      9  C   UNL     1      -6.539   0.061 -53.054  0.00  0.00    +0.000 A 
ATOM     10  C   UNL     1      -5.967  -0.572 -51.943  0.00  0.00    +0.000 A 
ATOM     11  C   UNL     1      -7.773  -0.410 -53.520  0.00  0.00    +0.000 A 
ATOM     12  C   UNL     1      -7.880  -2.048 -51.727  0.00  0.00    +0.000 A 
ATOM     13  C   UNL     1      -6.637  -1.601 -51.274  0.00  0.00    +0.000 A 
ATOM     14  C   UNL     1      -8.435  -1.457 -52.867  0.00  0.00    +0.000 A 
ATOM     15  C   UNL     1      -8.574  -3.188 -51.044  0.00  0.00    +0.000 C 
ENDBRANCH   4   9
BRANCH   5  17
ATOM     16  N   UNL     1      -4.407  -0.864 -55.816  0.00  0.00    +0.000 NA
ATOM     17  C   UNL     1      -5.208   0.125 -56.029  0.00  0.00    +0.000 C 
BRANCH  16  18
ATOM     18  O   UNL     1      -4.469  -1.773 -56.878  0.00  0.00    +0.000 OA
BRANCH  18  19
ATOM     19  C   UNL     1      -5.808  -1.753 -57.382  0.00  0.00    +0.000 C 
BRANCH  19  22
ATOM     20 CL   UNL     1      -6.539  -3.564 -54.905  0.00  0.00    +0.000 Cl
ATOM     21  F   UNL     1      -6.202  -2.789 -59.954  0.00  0.00    +0.000 F 
ATOM     22  C   UNL     1      -6.310  -3.149 -57.610  0.00  0.00    +0.000 A 
ATOM     23  C   UNL     1      -6.662  -4.019 -56.570  0.00  0.00    +0.000 A 
ATOM     24  C   UNL     1      -6.496  -3.596 -58.924  0.00  0.00    +0.000 A 
ATOM     25  C   UNL     1      -7.160  -5.300 -56.845  0.00  0.00    +0.000 A 
ATOM     26  C   UNL     1      -7.001  -4.864 -59.206  0.00  0.00    +0.000 A 
ATOM     27  C   UNL     1      -7.329  -5.721 -58.163  0.00  0.00    +0.000 A 
ENDBRANCH  19  22
ENDBRANCH  18  19
ENDBRANCH  16  18
ENDBRANCH   5  17
TORSDOF 5
ENDMDL
MODEL 8
REMARK VINA RESULT:      -5.3     23.857     26.341
REMARK  Name = 5929121
REMARK  6 active torsions:
REMARK  status: ('A' for Active; 'I' for Inactive)
REMARK    1  A    between atoms: O_4  and  N_7
REMARK    2  A    between atoms: O_4  and  C_22
REMARK    3  A    between atoms: C_8  and  C_10
REMARK    4  A    between atoms: C_9  and  C_15
REMARK    5  A    between atoms: C_16  and  C_20
REMARK    6  A    between atoms: C_21  and  C_22
REMARK                            x       y       z     vdW  Elec       q    Type
REMARK                         _______ _______ _______ _____ _____    ______ ____
ROOT
ATOM      1  S   UNL     1     -10.970  13.370 -33.723  0.00  0.00    +0.000 S 
ATOM      2  N   UNL     1      -9.776  11.285 -32.818  0.00  0.00    +0.000 N 
ATOM      3  N   UNL     1     -10.783  10.757 -34.735  0.00  0.00    +0.000 NA
ATOM      4  C   UNL     1     -10.131   9.647 -34.204  0.00  0.00    +0.000 A 
ATOM      5  C   UNL     1      -9.501   9.954 -32.991  0.00  0.00    +0.000 A 
ATOM      6  C   UNL     1     -10.530  11.699 -33.876  0.00  0.00    +0.000 A 
ATOM      7  C   UNL     1      -9.530  12.250 -31.861  0.00  0.00    +0.000 A 
ATOM      8  C   UNL     1     -10.095  13.426 -32.185  0.00  0.00    +0.000 A 
ENDROOT
BRANCH   4   9
ATOM      9  C   UNL     1     -10.159   8.358 -34.892  0.00  0.00    +0.000 A 
ATOM     10  C   UNL     1      -9.014   7.566 -35.052  0.00  0.00    +0.000 A 
ATOM     11  C   UNL     1     -11.363   7.898 -35.442  0.00  0.00    +0.000 A 
ATOM     12  C   UNL     1     -10.289   5.856 -36.207  0.00  0.00    +0.000 A 
ATOM     13  C   UNL     1      -9.081   6.321 -35.684  0.00  0.00    +0.000 A 
ATOM     14  C   UNL     1     -11.427   6.662 -36.097  0.00  0.00    +0.000 A 
ATOM     15  C   UNL     1     -10.350   4.545 -36.933  0.00  0.00    +0.000 C 
ENDBRANCH   4   9
BRANCH   5  17
ATOM     16  N   UNL     1      -8.738   9.500 -30.809  0.00  0.00    +0.000 NA
ATOM     17  C   UNL     1      -8.774   9.156 -32.052  0.00  0.00    +0.000 C 
BRANCH  16  18
ATOM     18  O   UNL     1      -8.018   8.557 -30.068  0.00  0.00    +0.000 OA
BRANCH  18  19
ATOM     19  C   UNL     1      -7.998   9.004 -28.709  0.00  0.00    +0.000 C 
BRANCH  19  22
ATOM     20 CL   UNL     1      -5.971  11.133 -29.854  0.00  0.00    +0.000 Cl
ATOM     21  F   UNL     1      -7.126   7.294 -26.670  0.00  0.00    +0.000 F 
ATOM     22  C   UNL     1      -6.592   9.043 -28.184  0.00  0.00    +0.000 A 
ATOM     23  C   UNL     1      -5.629   9.957 -28.632  0.00  0.00    +0.000 A 
ATOM     24  C   UNL     1      -6.230   8.168 -27.153  0.00  0.00    +0.000 A 
ATOM     25  C   UNL     1      -4.342   9.970 -28.077  0.00  0.00    +0.000 A 
ATOM     26  C   UNL     1      -4.955   8.181 -26.589  0.00  0.00    +0.000 A 
ATOM     27  C   UNL     1      -4.006   9.082 -27.056  0.00  0.00    +0.000 A 
ENDBRANCH  19  22
ENDBRANCH  18  19
ENDBRANCH  16  18
ENDBRANCH   5  17
TORSDOF 5
ENDMDL
MODEL 9
REMARK VINA RESULT:      -5.2     17.210     18.326
REMARK  Name = 5929121
REMARK  6 active torsions:
REMARK  status: ('A' for Active; 'I' for Inactive)
REMARK    1  A    between atoms: O_4  and  N_7
REMARK    2  A    between atoms: O_4  and  C_22
REMARK    3  A    between atoms: C_8  and  C_10
REMARK    4  A    between atoms: C_9  and  C_15
REMARK    5  A    between atoms: C_16  and  C_20
REMARK    6  A    between atoms: C_21  and  C_22
REMARK                            x       y       z     vdW  Elec       q    Type
REMARK                         _______ _______ _______ _____ _____    ______ ____
ROOT
ATOM      1  S   UNL     1     -20.679   9.527 -59.351  0.00  0.00    +0.000 S 
ATOM      2  N   UNL     1     -20.976   8.594 -56.978  0.00  0.00    +0.000 N 
ATOM      3  N   UNL     1     -21.782   7.112 -58.435  0.00  0.00    +0.000 NA
ATOM      4  C   UNL     1     -21.935   6.648 -57.131  0.00  0.00    +0.000 A 
ATOM      5  C   UNL     1     -21.445   7.570 -56.198  0.00  0.00    +0.000 A 
ATOM      6  C   UNL     1     -21.200   8.265 -58.282  0.00  0.00    +0.000 A 
ATOM      7  C   UNL     1     -20.403   9.835 -56.777  0.00  0.00    +0.000 A 
ATOM      8  C   UNL     1     -20.177  10.471 -57.940  0.00  0.00    +0.000 A 
ENDROOT
BRANCH   4   9
ATOM      9  C   UNL     1     -22.547   5.348 -56.863  0.00  0.00    +0.000 A 
ATOM     10  C   UNL     1     -21.790   4.182 -56.690  0.00  0.00    +0.000 A 
ATOM     11  C   UNL     1     -23.943   5.245 -56.802  0.00  0.00    +0.000 A 
ATOM     12  C   UNL     1     -23.795   2.868 -56.314  0.00  0.00    +0.000 A 
ATOM     13  C   UNL     1     -22.404   2.960 -56.399  0.00  0.00    +0.000 A 
ATOM     14  C   UNL     1     -24.562   4.017 -56.535  0.00  0.00    +0.000 A 
ATOM     15  C   UNL     1     -24.457   1.548 -56.056  0.00  0.00    +0.000 C 
ENDBRANCH   4   9
BRANCH   5  17
ATOM     16  N   UNL     1     -22.212   8.382 -54.124  0.00  0.00    +0.000 NA
ATOM     17  C   UNL     1     -21.433   7.580 -54.767  0.00  0.00    +0.000 C 
BRANCH  16  18
ATOM     18  O   UNL     1     -22.072   8.191 -52.745  0.00  0.00    +0.000 OA
BRANCH  18  19
ATOM     19  C   UNL     1     -23.379   8.258 -52.167  0.00  0.00    +0.000 C 
BRANCH  19  22
ATOM     20 CL   UNL     1     -23.010   6.867 -49.360  0.00  0.00    +0.000 Cl
ATOM     21  F   UNL     1     -24.817   6.900 -54.150  0.00  0.00    +0.000 F 
ATOM     22  C   UNL     1     -23.934   6.881 -51.946  0.00  0.00    +0.000 A 
ATOM     23  C   UNL     1     -23.820   6.191 -50.732  0.00  0.00    +0.000 A 
ATOM     24  C   UNL     1     -24.654   6.268 -52.978  0.00  0.00    +0.000 A 
ATOM     25  C   UNL     1     -24.391   4.922 -50.573  0.00  0.00    +0.000 A 
ATOM     26  C   UNL     1     -25.234   5.009 -52.825  0.00  0.00    +0.000 A 
ATOM     27  C   UNL     1     -25.097   4.331 -51.620  0.00  0.00    +0.000 A 
ENDBRANCH  19  22
ENDBRANCH  18  19
ENDBRANCH  16  18
ENDBRANCH   5  17
TORSDOF 5
ENDMDL
MODEL 10
REMARK VINA RESULT:      -5.1      4.239      8.077
REMARK  Name = 5929121
REMARK  6 active torsions:
REMARK  status: ('A' for Active; 'I' for Inactive)
REMARK    1  A    between atoms: O_4  and  N_7
REMARK    2  A    between atoms: O_4  and  C_22
REMARK    3  A    between atoms: C_8  and  C_10
REMARK    4  A    between atoms: C_9  and  C_15
REMARK    5  A    between atoms: C_16  and  C_20
REMARK    6  A    between atoms: C_21  and  C_22
REMARK                            x       y       z     vdW  Elec       q    Type
REMARK                         _______ _______ _______ _____ _____    ______ ____
ROOT
ATOM      1  S   UNL     1      -6.331  -4.417 -59.638  0.00  0.00    +0.000 S 
ATOM      2  N   UNL     1      -5.342  -2.561 -58.166  0.00  0.00    +0.000 N 
ATOM      3  N   UNL     1      -6.954  -3.595 -57.026  0.00  0.00    +0.000 NA
ATOM      4  C   UNL     1      -6.397  -2.571 -56.264  0.00  0.00    +0.000 A 
ATOM      5  C   UNL     1      -5.389  -1.899 -56.967  0.00  0.00    +0.000 A 
ATOM      6  C   UNL     1      -6.282  -3.547 -58.138  0.00  0.00    +0.000 A 
ATOM      7  C   UNL     1      -4.644  -2.450 -59.353  0.00  0.00    +0.000 A 
ATOM      8  C   UNL     1      -5.046  -3.365 -60.252  0.00  0.00    +0.000 A 
ENDROOT
BRANCH   4   9
ATOM      9  C   UNL     1      -6.872  -2.298 -54.909  0.00  0.00    +0.000 A 
ATOM     10  C   UNL     1      -7.817  -1.302 -54.631  0.00  0.00    +0.000 A 
ATOM     11  C   UNL     1      -6.353  -3.035 -53.837  0.00  0.00    +0.000 A 
ATOM     12  C   UNL     1      -7.776  -1.844 -52.266  0.00  0.00    +0.000 A 
ATOM     13  C   UNL     1      -8.278  -1.089 -53.328  0.00  0.00    +0.000 A 
ATOM     14  C   UNL     1      -6.795  -2.807 -52.528  0.00  0.00    +0.000 A 
ATOM     15  C   UNL     1      -8.230  -1.580 -50.862  0.00  0.00    +0.000 C 
ENDBRANCH   4   9
BRANCH   5  17
ATOM     16  N   UNL     1      -4.939   0.412 -57.043  0.00  0.00    +0.000 NA
ATOM     17  C   UNL     1      -4.582  -0.762 -56.645  0.00  0.00    +0.000 C 
BRANCH  16  18
ATOM     18  O   UNL     1      -4.038   1.375 -56.578  0.00  0.00    +0.000 OA
BRANCH  18  19
ATOM     19  C   UNL     1      -4.418   2.631 -57.148  0.00  0.00    +0.000 C 
BRANCH  19  22
ATOM     20 CL   UNL     1      -3.161   5.435 -57.861  0.00  0.00    +0.000 Cl
ATOM     21  F   UNL     1      -5.531   2.278 -54.602  0.00  0.00    +0.000 F 
ATOM     22  C   UNL     1      -4.392   3.715 -56.109  0.00  0.00    +0.000 A 
ATOM     23  C   UNL     1      -3.858   4.990 -56.342  0.00  0.00    +0.000 A 
ATOM     24  C   UNL     1      -4.980   3.473 -54.863  0.00  0.00    +0.000 A 
ATOM     25  C   UNL     1      -3.895   5.973 -55.345  0.00  0.00    +0.000 A 
ATOM     26  C   UNL     1      -5.030   4.449 -53.869  0.00  0.00    +0.000 A 
ATOM     27  C   UNL     1      -4.481   5.703 -54.109  0.00  0.00    +0.000 A 
ENDBRANCH  19  22
ENDBRANCH  18  19
ENDBRANCH  16  18
ENDBRANCH   5  17
TORSDOF 5
ENDMDL
