REMARK  Name = 5929121
REMARK  6 active torsions:
REMARK  status: ('A' for Active; 'I' for Inactive)
REMARK    1  A    between atoms: O_4  and  N_7
REMARK    2  A    between atoms: O_4  and  C_22
REMARK    3  A    between atoms: C_8  and  C_10
REMARK    4  A    between atoms: C_9  and  C_15
REMARK    5  A    between atoms: C_16  and  C_20
REMARK    6  A    between atoms: C_21  and  C_22
REMARK                            x       y       z     vdW  Elec       q    Type
REMARK                         _______ _______ _______ _____ _____    ______ ____
ROOT
ATOM      1  S   UNL     1      -0.390   3.384   8.419  0.00  0.00    +0.000 S 
ATOM      2  N   UNL     1       0.246   3.181   5.940  0.00  0.00    +0.000 N 
ATOM      3  N   UNL     1      -0.701   1.272   6.594  0.00  0.00    +0.000 NA
ATOM      4  C   UNL     1      -0.330   1.199   5.254  0.00  0.00    +0.000 A 
ATOM      5  C   UNL     1       0.279   2.385   4.825  0.00  0.00    +0.000 A 
ATOM      6  C   UNL     1      -0.343   2.472   6.944  0.00  0.00    +0.000 A 
ATOM      7  C   UNL     1       0.683   4.443   6.292  0.00  0.00    +0.000 A 
ATOM      8  C   UNL     1       0.424   4.716   7.583  0.00  0.00    +0.000 A 
ENDROOT
BRANCH   4   9
ATOM      9  C   UNL     1      -0.579  -0.009   4.470  0.00  0.00    +0.000 A 
ATOM     10  C   UNL     1      -0.874   0.031   3.101  0.00  0.00    +0.000 A 
ATOM     11  C   UNL     1      -0.552  -1.258   5.104  0.00  0.00    +0.000 A 
ATOM     12  C   UNL     1      -1.018  -2.389   3.003  0.00  0.00    +0.000 A 
ATOM     13  C   UNL     1      -1.072  -1.145   2.371  0.00  0.00    +0.000 A 
ATOM     14  C   UNL     1      -0.774  -2.436   4.380  0.00  0.00    +0.000 A 
ATOM     15  C   UNL     1      -1.284  -3.647   2.232  0.00  0.00    +0.000 C 
ENDBRANCH   4   9
BRANCH   5  17
ATOM     16  N   UNL     1       1.457   1.882   2.848  0.00  0.00    +0.000 NA
ATOM     17  C   UNL     1       0.875   2.769   3.582  0.00  0.00    +0.000 C 
BRANCH  16  18
ATOM     18  O   UNL     1       1.922   2.464   1.664  0.00  0.00    +0.000 OA
BRANCH  18  19
ATOM     19  C   UNL     1       2.855   1.553   1.075  0.00  0.00    +0.000 C 
BRANCH  19  22
ATOM     20 CL   UNL     1       4.159   4.425   1.016  0.00  0.00    +0.000 Cl
ATOM     21  F   UNL     1       2.801   0.064  -1.296  0.00  0.00    +0.000 F 
ATOM     22  C   UNL     1       3.384   2.098  -0.220  0.00  0.00    +0.000 A 
ATOM     23  C   UNL     1       3.982   3.360  -0.336  0.00  0.00    +0.000 A 
ATOM     24  C   UNL     1       3.337   1.292  -1.363  0.00  0.00    +0.000 A 
ATOM     25  C   UNL     1       4.491   3.800  -1.565  0.00  0.00    +0.000 A 
ATOM     26  C   UNL     1       3.850   1.718  -2.587  0.00  0.00    +0.000 A 
ATOM     27  C   UNL     1       4.425   2.979  -2.690  0.00  0.00    +0.000 A 
ENDBRANCH  19  22
ENDBRANCH  18  19
ENDBRANCH  16  18
ENDBRANCH   5  17
TORSDOF 5
