MODEL 1
REMARK VINA RESULT:      -6.3      0.000      0.000
REMARK  Name = 5929394
REMARK  7 active torsions:
REMARK  status: ('A' for Active; 'I' for Inactive)
REMARK    1  A    between atoms: S_4  and  C_11
REMARK    2  A    between atoms: S_4  and  C_14
REMARK    3  A    between atoms: O_6  and  N_9
REMARK    4  A    between atoms: O_6  and  C_21
REMARK    5  A    between atoms: C_10  and  C_16
REMARK    6  A    between atoms: C_14  and  C_15
REMARK    7  A    between atoms: C_20  and  C_21
REMARK                            x       y       z     vdW  Elec       q    Type
REMARK                         _______ _______ _______ _____ _____    ______ ____
ROOT
ATOM      1  S   UNL     1      12.978  15.058  19.023  0.00  0.00    +0.000 S 
ATOM      2  N   UNL     1      11.968  13.281  20.574  0.00  0.00    +0.000 N 
ATOM      3  N   UNL     1      11.032  15.252  21.040  0.00  0.00    +0.000 NA
ATOM      4  C   UNL     1      11.115  13.022  21.616  0.00  0.00    +0.000 A 
ATOM      5  C   UNL     1      10.558  14.271  21.893  0.00  0.00    +0.000 A 
ATOM      6  C   UNL     1      11.880  14.609  20.291  0.00  0.00    +0.000 A 
ATOM      7  C   UNL     1      12.885  12.577  19.821  0.00  0.00    +0.000 A 
ATOM      8  C   UNL     1      13.521  13.372  18.943  0.00  0.00    +0.000 A 
ENDROOT
BRANCH   4  10
ATOM      9  N   UNL     1      11.999  11.040  22.572  0.00  0.00    +0.000 NA
ATOM     10  C   UNL     1      10.969  11.738  22.230  0.00  0.00    +0.000 C 
BRANCH   9  11
ATOM     11  O   UNL     1      11.583   9.788  23.052  0.00  0.00    +0.000 OA
BRANCH  11  12
ATOM     12  C   UNL     1      10.813   9.164  22.018  0.00  0.00    +0.000 C 
BRANCH  12  15
ATOM     13 CL   UNL     1      15.065   6.574  20.560  0.00  0.00    +0.000 Cl
ATOM     14 CL   UNL     1      14.299   7.228  17.466  0.00  0.00    +0.000 Cl
ATOM     15  C   UNL     1      11.693   8.712  20.878  0.00  0.00    +0.000 A 
ATOM     16  C   UNL     1      12.847   7.957  21.156  0.00  0.00    +0.000 A 
ATOM     17  C   UNL     1      11.361   8.960  19.542  0.00  0.00    +0.000 A 
ATOM     18  C   UNL     1      13.666   7.489  20.123  0.00  0.00    +0.000 A 
ATOM     19  C   UNL     1      12.178   8.497  18.507  0.00  0.00    +0.000 A 
ATOM     20  C   UNL     1      13.335   7.766  18.794  0.00  0.00    +0.000 A 
ENDBRANCH  12  15
ENDBRANCH  11  12
ENDBRANCH   9  11
ENDBRANCH   4  10
BRANCH   5  21
ATOM     21  S   UNL     1       9.405  14.645  23.161  0.00  0.00    +0.000 S 
BRANCH  21  22
ATOM     22  C   UNL     1       7.924  15.045  22.194  0.00  0.00    +0.000 C 
BRANCH  22  24
ATOM     23 CL   UNL     1       4.130  18.596  25.273  0.00  0.00    +0.000 Cl
ATOM     24  C   UNL     1       6.972  15.926  22.973  0.00  0.00    +0.000 A 
ATOM     25  C   UNL     1       7.449  17.052  23.664  0.00  0.00    +0.000 A 
ATOM     26  C   UNL     1       5.601  15.629  23.030  0.00  0.00    +0.000 A 
ATOM     27  C   UNL     1       6.573  17.876  24.376  0.00  0.00    +0.000 A 
ATOM     28  C   UNL     1       4.723  16.453  23.742  0.00  0.00    +0.000 A 
ATOM     29  C   UNL     1       5.213  17.575  24.408  0.00  0.00    +0.000 A 
ENDBRANCH  22  24
ENDBRANCH  21  22
ENDBRANCH   5  21
TORSDOF 7
ENDMDL
MODEL 2
REMARK VINA RESULT:      -6.3      3.542     10.242
REMARK  Name = 5929394
REMARK  7 active torsions:
REMARK  status: ('A' for Active; 'I' for Inactive)
REMARK    1  A    between atoms: S_4  and  C_11
REMARK    2  A    between atoms: S_4  and  C_14
REMARK    3  A    between atoms: O_6  and  N_9
REMARK    4  A    between atoms: O_6  and  C_21
REMARK    5  A    between atoms: C_10  and  C_16
REMARK    6  A    between atoms: C_14  and  C_15
REMARK    7  A    between atoms: C_20  and  C_21
REMARK                            x       y       z     vdW  Elec       q    Type
REMARK                         _______ _______ _______ _____ _____    ______ ____
ROOT
ATOM      1  S   UNL     1      14.008  12.398  17.857  0.00  0.00    +0.000 S 
ATOM      2  N   UNL     1      13.175  11.752  20.197  0.00  0.00    +0.000 N 
ATOM      3  N   UNL     1      14.181   9.982  19.282  0.00  0.00    +0.000 NA
ATOM      4  C   UNL     1      13.040  10.756  21.129  0.00  0.00    +0.000 A 
ATOM      5  C   UNL     1      13.664   9.663  20.525  0.00  0.00    +0.000 A 
ATOM      6  C   UNL     1      13.843  11.230  19.133  0.00  0.00    +0.000 A 
ATOM      7  C   UNL     1      12.772  13.064  20.054  0.00  0.00    +0.000 A 
ATOM      8  C   UNL     1      13.130  13.567  18.860  0.00  0.00    +0.000 A 
ENDROOT
BRANCH   4  10
ATOM      9  N   UNL     1      12.937  11.379  23.415  0.00  0.00    +0.000 NA
ATOM     10  C   UNL     1      12.343  10.911  22.369  0.00  0.00    +0.000 C 
BRANCH   9  11
ATOM     11  O   UNL     1      12.065  11.331  24.515  0.00  0.00    +0.000 OA
BRANCH  11  12
ATOM     12  C   UNL     1      10.796  11.834  24.081  0.00  0.00    +0.000 C 
BRANCH  12  15
ATOM     13 CL   UNL     1       8.687  16.377  22.732  0.00  0.00    +0.000 Cl
ATOM     14 CL   UNL     1      10.129  17.719  25.322  0.00  0.00    +0.000 Cl
ATOM     15  C   UNL     1      10.660  13.307  24.381  0.00  0.00    +0.000 A 
ATOM     16  C   UNL     1       9.861  14.109  23.546  0.00  0.00    +0.000 A 
ATOM     17  C   UNL     1      11.251  13.891  25.507  0.00  0.00    +0.000 A 
ATOM     18  C   UNL     1       9.682  15.470  23.814  0.00  0.00    +0.000 A 
ATOM     19  C   UNL     1      11.076  15.251  25.777  0.00  0.00    +0.000 A 
ATOM     20  C   UNL     1      10.298  16.046  24.929  0.00  0.00    +0.000 A 
ENDBRANCH  12  15
ENDBRANCH  11  12
ENDBRANCH   9  11
ENDBRANCH   4  10
BRANCH   5  21
ATOM     21  S   UNL     1      13.803   8.043  21.182  0.00  0.00    +0.000 S 
BRANCH  21  22
ATOM     22  C   UNL     1      14.522   7.147  19.779  0.00  0.00    +0.000 C 
BRANCH  22  24
ATOM     23 CL   UNL     1      20.357   5.873  20.684  0.00  0.00    +0.000 Cl
ATOM     24  C   UNL     1      15.982   6.822  20.015  0.00  0.00    +0.000 A 
ATOM     25  C   UNL     1      16.678   5.989  19.124  0.00  0.00    +0.000 A 
ATOM     26  C   UNL     1      16.661   7.334  21.132  0.00  0.00    +0.000 A 
ATOM     27  C   UNL     1      18.028   5.694  19.330  0.00  0.00    +0.000 A 
ATOM     28  C   UNL     1      18.012   7.039  21.340  0.00  0.00    +0.000 A 
ATOM     29  C   UNL     1      18.690   6.225  20.435  0.00  0.00    +0.000 A 
ENDBRANCH  22  24
ENDBRANCH  21  22
ENDBRANCH   5  21
TORSDOF 7
ENDMDL
MODEL 3
REMARK VINA RESULT:      -5.7      3.133      4.358
REMARK  Name = 5929394
REMARK  7 active torsions:
REMARK  status: ('A' for Active; 'I' for Inactive)
REMARK    1  A    between atoms: S_4  and  C_11
REMARK    2  A    between atoms: S_4  and  C_14
REMARK    3  A    between atoms: O_6  and  N_9
REMARK    4  A    between atoms: O_6  and  C_21
REMARK    5  A    between atoms: C_10  and  C_16
REMARK    6  A    between atoms: C_14  and  C_15
REMARK    7  A    between atoms: C_20  and  C_21
REMARK                            x       y       z     vdW  Elec       q    Type
REMARK                         _______ _______ _______ _____ _____    ______ ____
ROOT
ATOM      1  S   UNL     1       8.918  17.819  18.486  0.00  0.00    +0.000 S 
ATOM      2  N   UNL     1       9.187  16.055  20.330  0.00  0.00    +0.000 N 
ATOM      3  N   UNL     1       7.139  16.931  20.472  0.00  0.00    +0.000 NA
ATOM      4  C   UNL     1       8.620  15.436  21.414  0.00  0.00    +0.000 A 
ATOM      5  C   UNL     1       7.351  16.013  21.485  0.00  0.00    +0.000 A 
ATOM      6  C   UNL     1       8.271  16.928  19.829  0.00  0.00    +0.000 A 
ATOM      7  C   UNL     1      10.410  16.054  19.692  0.00  0.00    +0.000 A 
ATOM      8  C   UNL     1      10.445  16.942  18.682  0.00  0.00    +0.000 A 
ENDROOT
BRANCH   4  10
ATOM      9  N   UNL     1      10.364  14.806  22.892  0.00  0.00    +0.000 NA
ATOM     10  C   UNL     1       9.300  14.484  22.237  0.00  0.00    +0.000 C 
BRANCH   9  11
ATOM     11  O   UNL     1      10.887  13.671  23.531  0.00  0.00    +0.000 OA
BRANCH  11  12
ATOM     12  C   UNL     1      11.925  13.145  22.697  0.00  0.00    +0.000 C 
BRANCH  12  15
ATOM     13 CL   UNL     1      12.492   9.435  19.115  0.00  0.00    +0.000 Cl
ATOM     14 CL   UNL     1      10.868   7.411  21.077  0.00  0.00    +0.000 Cl
ATOM     15  C   UNL     1      11.630  11.723  22.288  0.00  0.00    +0.000 A 
ATOM     16  C   UNL     1      12.102  11.249  21.050  0.00  0.00    +0.000 A 
ATOM     17  C   UNL     1      10.958  10.833  23.133  0.00  0.00    +0.000 A 
ATOM     18  C   UNL     1      11.880   9.926  20.654  0.00  0.00    +0.000 A 
ATOM     19  C   UNL     1      10.732   9.511  22.741  0.00  0.00    +0.000 A 
ATOM     20  C   UNL     1      11.186   9.055  21.499  0.00  0.00    +0.000 A 
ENDBRANCH  12  15
ENDBRANCH  11  12
ENDBRANCH   9  11
ENDBRANCH   4  10
BRANCH   5  21
ATOM     21  S   UNL     1       6.119  15.685  22.690  0.00  0.00    +0.000 S 
BRANCH  21  22
ATOM     22  C   UNL     1       4.885  16.953  22.296  0.00  0.00    +0.000 C 
BRANCH  22  24
ATOM     23 CL   UNL     1      -0.439  14.529  20.790  0.00  0.00    +0.000 Cl
ATOM     24  C   UNL     1       3.556  16.338  21.913  0.00  0.00    +0.000 A 
ATOM     25  C   UNL     1       2.740  15.741  22.889  0.00  0.00    +0.000 A 
ATOM     26  C   UNL     1       3.121  16.340  20.578  0.00  0.00    +0.000 A 
ATOM     27  C   UNL     1       1.508  15.182  22.543  0.00  0.00    +0.000 A 
ATOM     28  C   UNL     1       1.888  15.780  20.231  0.00  0.00    +0.000 A 
ATOM     29  C   UNL     1       1.085  15.207  21.215  0.00  0.00    +0.000 A 
ENDBRANCH  22  24
ENDBRANCH  21  22
ENDBRANCH   5  21
TORSDOF 7
ENDMDL
MODEL 4
REMARK VINA RESULT:      -5.6     17.713     21.143
REMARK  Name = 5929394
REMARK  7 active torsions:
REMARK  status: ('A' for Active; 'I' for Inactive)
REMARK    1  A    between atoms: S_4  and  C_11
REMARK    2  A    between atoms: S_4  and  C_14
REMARK    3  A    between atoms: O_6  and  N_9
REMARK    4  A    between atoms: O_6  and  C_21
REMARK    5  A    between atoms: C_10  and  C_16
REMARK    6  A    between atoms: C_14  and  C_15
REMARK    7  A    between atoms: C_20  and  C_21
REMARK                            x       y       z     vdW  Elec       q    Type
REMARK                         _______ _______ _______ _____ _____    ______ ____
ROOT
ATOM      1  S   UNL     1      -5.337  13.658  36.911  0.00  0.00    +0.000 S 
ATOM      2  N   UNL     1      -4.063  11.499  37.461  0.00  0.00    +0.000 N 
ATOM      3  N   UNL     1      -2.603  13.028  36.749  0.00  0.00    +0.000 NA
ATOM      4  C   UNL     1      -2.854  10.852  37.465  0.00  0.00    +0.000 A 
ATOM      5  C   UNL     1      -1.968  11.826  37.004  0.00  0.00    +0.000 A 
ATOM      6  C   UNL     1      -3.849  12.768  37.020  0.00  0.00    +0.000 A 
ATOM      7  C   UNL     1      -5.380  11.180  37.722  0.00  0.00    +0.000 A 
ATOM      8  C   UNL     1      -6.200  12.217  37.479  0.00  0.00    +0.000 A 
ENDROOT
BRANCH   4  10
ATOM      9  N   UNL     1      -2.449   8.579  36.924  0.00  0.00    +0.000 NA
ATOM     10  C   UNL     1      -2.684   9.477  37.821  0.00  0.00    +0.000 C 
BRANCH   9  11
ATOM     11  O   UNL     1      -2.428   7.308  37.522  0.00  0.00    +0.000 OA
BRANCH  11  12
ATOM     12  C   UNL     1      -1.081   7.048  37.934  0.00  0.00    +0.000 C 
BRANCH  12  15
ATOM     13 CL   UNL     1      -3.779   5.256  41.986  0.00  0.00    +0.000 Cl
ATOM     14 CL   UNL     1      -0.961   4.456  43.401  0.00  0.00    +0.000 Cl
ATOM     15  C   UNL     1      -1.041   6.430  39.310  0.00  0.00    +0.000 A 
ATOM     16  C   UNL     1      -2.248   6.156  39.979  0.00  0.00    +0.000 A 
ATOM     17  C   UNL     1       0.162   6.054  39.918  0.00  0.00    +0.000 A 
ATOM     18  C   UNL     1      -2.250   5.549  41.239  0.00  0.00    +0.000 A 
ATOM     19  C   UNL     1       0.164   5.450  41.179  0.00  0.00    +0.000 A 
ATOM     20  C   UNL     1      -1.039   5.202  41.846  0.00  0.00    +0.000 A 
ENDBRANCH  12  15
ENDBRANCH  11  12
ENDBRANCH   9  11
ENDBRANCH   4  10
BRANCH   5  21
ATOM     21  S   UNL     1      -0.246  11.630  36.733  0.00  0.00    +0.000 S 
BRANCH  21  22
ATOM     22  C   UNL     1      -0.182  11.469  34.928  0.00  0.00    +0.000 C 
BRANCH  22  24
ATOM     23 CL   UNL     1       2.311  16.344  32.376  0.00  0.00    +0.000 Cl
ATOM     24  C   UNL     1       0.434  12.692  34.282  0.00  0.00    +0.000 A 
ATOM     25  C   UNL     1       0.596  13.879  35.016  0.00  0.00    +0.000 A 
ATOM     26  C   UNL     1       0.841  12.667  32.938  0.00  0.00    +0.000 A 
ATOM     27  C   UNL     1       1.174  15.006  34.428  0.00  0.00    +0.000 A 
ATOM     28  C   UNL     1       1.419  13.795  32.349  0.00  0.00    +0.000 A 
ATOM     29  C   UNL     1       1.587  14.958  33.098  0.00  0.00    +0.000 A 
ENDBRANCH  22  24
ENDBRANCH  21  22
ENDBRANCH   5  21
TORSDOF 7
ENDMDL
MODEL 5
REMARK VINA RESULT:      -5.6      3.135      9.475
REMARK  Name = 5929394
REMARK  7 active torsions:
REMARK  status: ('A' for Active; 'I' for Inactive)
REMARK    1  A    between atoms: S_4  and  C_11
REMARK    2  A    between atoms: S_4  and  C_14
REMARK    3  A    between atoms: O_6  and  N_9
REMARK    4  A    between atoms: O_6  and  C_21
REMARK    5  A    between atoms: C_10  and  C_16
REMARK    6  A    between atoms: C_14  and  C_15
REMARK    7  A    between atoms: C_20  and  C_21
REMARK                            x       y       z     vdW  Elec       q    Type
REMARK                         _______ _______ _______ _____ _____    ______ ____
ROOT
ATOM      1  S   UNL     1      12.385  17.557  20.147  0.00  0.00    +0.000 S 
ATOM      2  N   UNL     1      10.419  16.555  21.458  0.00  0.00    +0.000 N 
ATOM      3  N   UNL     1      12.067  15.052  21.381  0.00  0.00    +0.000 NA
ATOM      4  C   UNL     1       9.917  15.457  22.108  0.00  0.00    +0.000 A 
ATOM      5  C   UNL     1      10.961  14.534  22.031  0.00  0.00    +0.000 A 
ATOM      6  C   UNL     1      11.679  16.249  21.047  0.00  0.00    +0.000 A 
ATOM      7  C   UNL     1       9.965  17.804  21.088  0.00  0.00    +0.000 A 
ATOM      8  C   UNL     1      10.887  18.477  20.376  0.00  0.00    +0.000 A 
ENDROOT
BRANCH   4  10
ATOM      9  N   UNL     1       7.612  14.928  21.932  0.00  0.00    +0.000 NA
ATOM     10  C   UNL     1       8.592  15.379  22.641  0.00  0.00    +0.000 C 
BRANCH   9  11
ATOM     11  O   UNL     1       6.412  15.056  22.650  0.00  0.00    +0.000 OA
BRANCH  11  12
ATOM     12  C   UNL     1       5.812  16.299  22.270  0.00  0.00    +0.000 C 
BRANCH  12  15
ATOM     13 CL   UNL     1       0.897  15.126  23.441  0.00  0.00    +0.000 Cl
ATOM     14 CL   UNL     1       0.129  15.598  20.315  0.00  0.00    +0.000 Cl
ATOM     15  C   UNL     1       4.404  16.097  21.768  0.00  0.00    +0.000 A 
ATOM     16  C   UNL     1       3.393  15.735  22.677  0.00  0.00    +0.000 A 
ATOM     17  C   UNL     1       4.053  16.324  20.432  0.00  0.00    +0.000 A 
ATOM     18  C   UNL     1       2.070  15.575  22.255  0.00  0.00    +0.000 A 
ATOM     19  C   UNL     1       2.732  16.163  20.006  0.00  0.00    +0.000 A 
ATOM     20  C   UNL     1       1.738  15.782  20.913  0.00  0.00    +0.000 A 
ENDBRANCH  12  15
ENDBRANCH  11  12
ENDBRANCH   9  11
ENDBRANCH   4  10
BRANCH   5  21
ATOM     21  S   UNL     1      10.950  12.889  22.641  0.00  0.00    +0.000 S 
BRANCH  21  22
ATOM     22  C   UNL     1      11.797  12.005  21.304  0.00  0.00    +0.000 C 
BRANCH  22  24
ATOM     23 CL   UNL     1      10.950   6.035  21.668  0.00  0.00    +0.000 Cl
ATOM     24  C   UNL     1      11.573  10.510  21.396  0.00  0.00    +0.000 A 
ATOM     25  C   UNL     1      11.896   9.675  20.313  0.00  0.00    +0.000 A 
ATOM     26  C   UNL     1      11.030   9.934  22.555  0.00  0.00    +0.000 A 
ATOM     27  C   UNL     1      11.702   8.294  20.396  0.00  0.00    +0.000 A 
ATOM     28  C   UNL     1      10.836   8.552  22.639  0.00  0.00    +0.000 A 
ATOM     29  C   UNL     1      11.177   7.738  21.560  0.00  0.00    +0.000 A 
ENDBRANCH  22  24
ENDBRANCH  21  22
ENDBRANCH   5  21
TORSDOF 7
ENDMDL
MODEL 6
REMARK VINA RESULT:      -5.4      2.546      3.294
REMARK  Name = 5929394
REMARK  7 active torsions:
REMARK  status: ('A' for Active; 'I' for Inactive)
REMARK    1  A    between atoms: S_4  and  C_11
REMARK    2  A    between atoms: S_4  and  C_14
REMARK    3  A    between atoms: O_6  and  N_9
REMARK    4  A    between atoms: O_6  and  C_21
REMARK    5  A    between atoms: C_10  and  C_16
REMARK    6  A    between atoms: C_14  and  C_15
REMARK    7  A    between atoms: C_20  and  C_21
REMARK                            x       y       z     vdW  Elec       q    Type
REMARK                         _______ _______ _______ _____ _____    ______ ____
ROOT
ATOM      1  S   UNL     1      11.949  19.985  20.988  0.00  0.00    +0.000 S 
ATOM      2  N   UNL     1      11.778  17.444  21.304  0.00  0.00    +0.000 N 
ATOM      3  N   UNL     1       9.720  18.275  21.073  0.00  0.00    +0.000 NA
ATOM      4  C   UNL     1      10.949  16.360  21.438  0.00  0.00    +0.000 A 
ATOM      5  C   UNL     1       9.674  16.912  21.303  0.00  0.00    +0.000 A 
ATOM      6  C   UNL     1      10.995  18.538  21.103  0.00  0.00    +0.000 A 
ATOM      7  C   UNL     1      13.133  17.694  21.377  0.00  0.00    +0.000 A 
ATOM      8  C   UNL     1      13.405  19.003  21.233  0.00  0.00    +0.000 A 
ENDROOT
BRANCH   4  10
ATOM      9  N   UNL     1      11.632  14.641  22.923  0.00  0.00    +0.000 NA
ATOM     10  C   UNL     1      11.407  15.033  21.714  0.00  0.00    +0.000 C 
BRANCH   9  11
ATOM     11  O   UNL     1      12.167  13.343  22.907  0.00  0.00    +0.000 OA
BRANCH  11  12
ATOM     12  C   UNL     1      11.070  12.425  22.851  0.00  0.00    +0.000 C 
BRANCH  12  15
ATOM     13 CL   UNL     1      10.338   7.354  22.041  0.00  0.00    +0.000 Cl
ATOM     14 CL   UNL     1      12.331   7.562  19.479  0.00  0.00    +0.000 Cl
ATOM     15  C   UNL     1      11.414  11.211  22.023  0.00  0.00    +0.000 A 
ATOM     16  C   UNL     1      10.830   9.972  22.341  0.00  0.00    +0.000 A 
ATOM     17  C   UNL     1      12.246  11.292  20.901  0.00  0.00    +0.000 A 
ATOM     18  C   UNL     1      11.097   8.834  21.574  0.00  0.00    +0.000 A 
ATOM     19  C   UNL     1      12.517  10.156  20.133  0.00  0.00    +0.000 A 
ATOM     20  C   UNL     1      11.950   8.923  20.470  0.00  0.00    +0.000 A 
ENDBRANCH  12  15
ENDBRANCH  11  12
ENDBRANCH   9  11
ENDBRANCH   4  10
BRANCH   5  21
ATOM     21  S   UNL     1       8.147  16.058  21.418  0.00  0.00    +0.000 S 
BRANCH  21  22
ATOM     22  C   UNL     1       7.846  16.097  23.205  0.00  0.00    +0.000 C 
BRANCH  22  24
ATOM     23 CL   UNL     1       2.079  17.415  24.430  0.00  0.00    +0.000 Cl
ATOM     24  C   UNL     1       6.400  16.419  23.519  0.00  0.00    +0.000 A 
ATOM     25  C   UNL     1       6.069  17.580  24.237  0.00  0.00    +0.000 A 
ATOM     26  C   UNL     1       5.367  15.559  23.110  0.00  0.00    +0.000 A 
ATOM     27  C   UNL     1       4.736  17.888  24.520  0.00  0.00    +0.000 A 
ATOM     28  C   UNL     1       4.032  15.866  23.393  0.00  0.00    +0.000 A 
ATOM     29  C   UNL     1       3.723  17.031  24.093  0.00  0.00    +0.000 A 
ENDBRANCH  22  24
ENDBRANCH  21  22
ENDBRANCH   5  21
TORSDOF 7
ENDMDL
MODEL 7
REMARK VINA RESULT:      -5.4     10.542     14.427
REMARK  Name = 5929394
REMARK  7 active torsions:
REMARK  status: ('A' for Active; 'I' for Inactive)
REMARK    1  A    between atoms: S_4  and  C_11
REMARK    2  A    between atoms: S_4  and  C_14
REMARK    3  A    between atoms: O_6  and  N_9
REMARK    4  A    between atoms: O_6  and  C_21
REMARK    5  A    between atoms: C_10  and  C_16
REMARK    6  A    between atoms: C_14  and  C_15
REMARK    7  A    between atoms: C_20  and  C_21
REMARK                            x       y       z     vdW  Elec       q    Type
REMARK                         _______ _______ _______ _____ _____    ______ ____
ROOT
ATOM      1  S   UNL     1      -1.755  21.890  18.701  0.00  0.00    +0.000 S 
ATOM      2  N   UNL     1      -1.653  19.567  19.786  0.00  0.00    +0.000 N 
ATOM      3  N   UNL     1      -3.604  19.773  18.721  0.00  0.00    +0.000 NA
ATOM      4  C   UNL     1      -2.311  18.389  20.035  0.00  0.00    +0.000 A 
ATOM      5  C   UNL     1      -3.527  18.554  19.371  0.00  0.00    +0.000 A 
ATOM      6  C   UNL     1      -2.469  20.339  19.019  0.00  0.00    +0.000 A 
ATOM      7  C   UNL     1      -0.458  20.152  20.149  0.00  0.00    +0.000 A 
ATOM      8  C   UNL     1      -0.346  21.399  19.658  0.00  0.00    +0.000 A 
ENDROOT
BRANCH   4  10
ATOM      9  N   UNL     1      -1.553  16.167  20.370  0.00  0.00    +0.000 NA
ATOM     10  C   UNL     1      -1.788  17.340  20.855  0.00  0.00    +0.000 C 
BRANCH   9  11
ATOM     11  O   UNL     1      -1.147  15.303  21.399  0.00  0.00    +0.000 OA
BRANCH  11  12
ATOM     12  C   UNL     1      -0.006  14.577  20.927  0.00  0.00    +0.000 C 
BRANCH  12  15
ATOM     13 CL   UNL     1       4.427  17.251  20.603  0.00  0.00    +0.000 Cl
ATOM     14 CL   UNL     1       5.003  16.509  23.717  0.00  0.00    +0.000 Cl
ATOM     15  C   UNL     1       1.255  15.028  21.622  0.00  0.00    +0.000 A 
ATOM     16  C   UNL     1       2.182  15.820  20.921  0.00  0.00    +0.000 A 
ATOM     17  C   UNL     1       1.502  14.741  22.969  0.00  0.00    +0.000 A 
ATOM     18  C   UNL     1       3.344  16.288  21.543  0.00  0.00    +0.000 A 
ATOM     19  C   UNL     1       2.663  15.205  23.594  0.00  0.00    +0.000 A 
ATOM     20  C   UNL     1       3.590  15.973  22.883  0.00  0.00    +0.000 A 
ENDBRANCH  12  15
ENDBRANCH  11  12
ENDBRANCH   9  11
ENDBRANCH   4  10
BRANCH   5  21
ATOM     21  S   UNL     1      -4.859  17.414  19.329  0.00  0.00    +0.000 S 
BRANCH  21  22
ATOM     22  C   UNL     1      -4.351  16.317  17.978  0.00  0.00    +0.000 C 
BRANCH  22  24
ATOM     23 CL   UNL     1      -8.877  12.742  16.180  0.00  0.00    +0.000 Cl
ATOM     24  C   UNL     1      -5.491  15.430  17.523  0.00  0.00    +0.000 A 
ATOM     25  C   UNL     1      -5.276  14.440  16.549  0.00  0.00    +0.000 A 
ATOM     26  C   UNL     1      -6.781  15.587  18.054  0.00  0.00    +0.000 A 
ATOM     27  C   UNL     1      -6.320  13.611  16.133  0.00  0.00    +0.000 A 
ATOM     28  C   UNL     1      -7.827  14.758  17.638  0.00  0.00    +0.000 A 
ATOM     29  C   UNL     1      -7.591  13.772  16.683  0.00  0.00    +0.000 A 
ENDBRANCH  22  24
ENDBRANCH  21  22
ENDBRANCH   5  21
TORSDOF 7
ENDMDL
MODEL 8
REMARK VINA RESULT:      -5.4      3.662      5.270
REMARK  Name = 5929394
REMARK  7 active torsions:
REMARK  status: ('A' for Active; 'I' for Inactive)
REMARK    1  A    between atoms: S_4  and  C_11
REMARK    2  A    between atoms: S_4  and  C_14
REMARK    3  A    between atoms: O_6  and  N_9
REMARK    4  A    between atoms: O_6  and  C_21
REMARK    5  A    between atoms: C_10  and  C_16
REMARK    6  A    between atoms: C_14  and  C_15
REMARK    7  A    between atoms: C_20  and  C_21
REMARK                            x       y       z     vdW  Elec       q    Type
REMARK                         _______ _______ _______ _____ _____    ______ ____
ROOT
ATOM      1  S   UNL     1       7.065  18.409  18.687  0.00  0.00    +0.000 S 
ATOM      2  N   UNL     1       7.473  16.684  20.543  0.00  0.00    +0.000 N 
ATOM      3  N   UNL     1       5.716  17.938  21.107  0.00  0.00    +0.000 NA
ATOM      4  C   UNL     1       7.097  16.219  21.777  0.00  0.00    +0.000 A 
ATOM      5  C   UNL     1       6.010  17.028  22.107  0.00  0.00    +0.000 A 
ATOM      6  C   UNL     1       6.631  17.699  20.212  0.00  0.00    +0.000 A 
ATOM      7  C   UNL     1       8.477  16.430  19.631  0.00  0.00    +0.000 A 
ATOM      8  C   UNL     1       8.413  17.262  18.577  0.00  0.00    +0.000 A 
ENDROOT
BRANCH   4  10
ATOM      9  N   UNL     1       8.840  15.432  23.180  0.00  0.00    +0.000 NA
ATOM     10  C   UNL     1       7.783  15.181  22.483  0.00  0.00    +0.000 C 
BRANCH   9  11
ATOM     11  O   UNL     1       9.372  14.233  23.681  0.00  0.00    +0.000 OA
BRANCH  11  12
ATOM     12  C   UNL     1      10.791  14.282  23.498  0.00  0.00    +0.000 C 
BRANCH  12  15
ATOM     13 CL   UNL     1      10.835   9.162  22.662  0.00  0.00    +0.000 Cl
ATOM     14 CL   UNL     1      12.590   9.702  19.976  0.00  0.00    +0.000 Cl
ATOM     15  C   UNL     1      11.270  13.143  22.631  0.00  0.00    +0.000 A 
ATOM     16  C   UNL     1      10.917  11.824  22.967  0.00  0.00    +0.000 A 
ATOM     17  C   UNL     1      12.001  13.362  21.457  0.00  0.00    +0.000 A 
ATOM     18  C   UNL     1      11.311  10.747  22.167  0.00  0.00    +0.000 A 
ATOM     19  C   UNL     1      12.398  12.289  20.656  0.00  0.00    +0.000 A 
ATOM     20  C   UNL     1      12.062  10.979  21.011  0.00  0.00    +0.000 A 
ENDBRANCH  12  15
ENDBRANCH  11  12
ENDBRANCH   9  11
ENDBRANCH   4  10
BRANCH   5  21
ATOM     21  S   UNL     1       5.083  16.980  23.596  0.00  0.00    +0.000 S 
BRANCH  21  22
ATOM     22  C   UNL     1       4.231  15.387  23.437  0.00  0.00    +0.000 C 
BRANCH  22  24
ATOM     23 CL   UNL     1      -1.309  16.019  21.113  0.00  0.00    +0.000 Cl
ATOM     24  C   UNL     1       2.841  15.554  22.862  0.00  0.00    +0.000 A 
ATOM     25  C   UNL     1       2.667  15.984  21.536  0.00  0.00    +0.000 A 
ATOM     26  C   UNL     1       1.703  15.296  23.643  0.00  0.00    +0.000 A 
ATOM     27  C   UNL     1       1.387  16.129  20.995  0.00  0.00    +0.000 A 
ATOM     28  C   UNL     1       0.421  15.441  23.104  0.00  0.00    +0.000 A 
ATOM     29  C   UNL     1       0.269  15.853  21.781  0.00  0.00    +0.000 A 
ENDBRANCH  22  24
ENDBRANCH  21  22
ENDBRANCH   5  21
TORSDOF 7
ENDMDL
MODEL 9
REMARK VINA RESULT:      -5.4     22.463     25.533
REMARK  Name = 5929394
REMARK  7 active torsions:
REMARK  status: ('A' for Active; 'I' for Inactive)
REMARK    1  A    between atoms: S_4  and  C_11
REMARK    2  A    between atoms: S_4  and  C_14
REMARK    3  A    between atoms: O_6  and  N_9
REMARK    4  A    between atoms: O_6  and  C_21
REMARK    5  A    between atoms: C_10  and  C_16
REMARK    6  A    between atoms: C_14  and  C_15
REMARK    7  A    between atoms: C_20  and  C_21
REMARK                            x       y       z     vdW  Elec       q    Type
REMARK                         _______ _______ _______ _____ _____    ______ ____
ROOT
ATOM      1  S   UNL     1     -13.159  12.928  14.505  0.00  0.00    +0.000 S 
ATOM      2  N   UNL     1     -13.705  10.834  15.884  0.00  0.00    +0.000 N 
ATOM      3  N   UNL     1     -11.519  10.844  15.435  0.00  0.00    +0.000 NA
ATOM      4  C   UNL     1     -13.231   9.673  16.439  0.00  0.00    +0.000 A 
ATOM      5  C   UNL     1     -11.870   9.701  16.130  0.00  0.00    +0.000 A 
ATOM      6  C   UNL     1     -12.653  11.470  15.302  0.00  0.00    +0.000 A 
ATOM      7  C   UNL     1     -14.928  11.454  15.730  0.00  0.00    +0.000 A 
ATOM      8  C   UNL     1     -14.823  12.587  15.013  0.00  0.00    +0.000 A 
ENDROOT
BRANCH   4  10
ATOM      9  N   UNL     1     -15.190   8.347  16.603  0.00  0.00    +0.000 NA
ATOM     10  C   UNL     1     -14.055   8.708  17.100  0.00  0.00    +0.000 C 
BRANCH   9  11
ATOM     11  O   UNL     1     -15.840   7.476  17.492  0.00  0.00    +0.000 OA
BRANCH  11  12
ATOM     12  C   UNL     1     -15.272   7.683  18.790  0.00  0.00    +0.000 C 
BRANCH  12  15
ATOM     13 CL   UNL     1     -14.725   5.435  23.433  0.00  0.00    +0.000 Cl
ATOM     14 CL   UNL     1     -17.480   3.799  22.871  0.00  0.00    +0.000 Cl
ATOM     15  C   UNL     1     -15.813   6.689  19.789  0.00  0.00    +0.000 A 
ATOM     16  C   UNL     1     -15.135   6.496  21.006  0.00  0.00    +0.000 A 
ATOM     17  C   UNL     1     -17.012   6.000  19.573  0.00  0.00    +0.000 A 
ATOM     18  C   UNL     1     -15.627   5.612  21.971  0.00  0.00    +0.000 A 
ATOM     19  C   UNL     1     -17.506   5.114  20.534  0.00  0.00    +0.000 A 
ATOM     20  C   UNL     1     -16.813   4.911  21.731  0.00  0.00    +0.000 A 
ENDBRANCH  12  15
ENDBRANCH  11  12
ENDBRANCH   9  11
ENDBRANCH   4  10
BRANCH   5  21
ATOM     21  S   UNL     1     -10.683   8.471  16.521  0.00  0.00    +0.000 S 
BRANCH  21  22
ATOM     22  C   UNL     1      -9.893   9.186  17.988  0.00  0.00    +0.000 C 
BRANCH  22  24
ATOM     23 CL   UNL     1     -13.641   9.327  22.723  0.00  0.00    +0.000 Cl
ATOM     24  C   UNL     1     -10.841   9.226  19.168  0.00  0.00    +0.000 A 
ATOM     25  C   UNL     1     -11.267   8.034  19.777  0.00  0.00    +0.000 A 
ATOM     26  C   UNL     1     -11.320  10.448  19.665  0.00  0.00    +0.000 A 
ATOM     27  C   UNL     1     -12.132   8.064  20.874  0.00  0.00    +0.000 A 
ATOM     28  C   UNL     1     -12.186  10.480  20.762  0.00  0.00    +0.000 A 
ATOM     29  C   UNL     1     -12.585   9.288  21.364  0.00  0.00    +0.000 A 
ENDBRANCH  22  24
ENDBRANCH  21  22
ENDBRANCH   5  21
TORSDOF 7
ENDMDL
MODEL 10
REMARK VINA RESULT:      -5.4     18.163     21.640
REMARK  Name = 5929394
REMARK  7 active torsions:
REMARK  status: ('A' for Active; 'I' for Inactive)
REMARK    1  A    between atoms: S_4  and  C_11
REMARK    2  A    between atoms: S_4  and  C_14
REMARK    3  A    between atoms: O_6  and  N_9
REMARK    4  A    between atoms: O_6  and  C_21
REMARK    5  A    between atoms: C_10  and  C_16
REMARK    6  A    between atoms: C_14  and  C_15
REMARK    7  A    between atoms: C_20  and  C_21
REMARK                            x       y       z     vdW  Elec       q    Type
REMARK                         _______ _______ _______ _____ _____    ______ ____
ROOT
ATOM      1  S   UNL     1     -11.960  15.221  13.641  0.00  0.00    +0.000 S 
ATOM      2  N   UNL     1     -11.197  13.198  15.021  0.00  0.00    +0.000 N 
ATOM      3  N   UNL     1      -9.515  14.661  14.908  0.00  0.00    +0.000 NA
ATOM      4  C   UNL     1     -10.167  12.595  15.697  0.00  0.00    +0.000 A 
ATOM      5  C   UNL     1      -9.130  13.524  15.597  0.00  0.00    +0.000 A 
ATOM      6  C   UNL     1     -10.747  14.401  14.575  0.00  0.00    +0.000 A 
ATOM      7  C   UNL     1     -12.487  12.877  14.653  0.00  0.00    +0.000 A 
ATOM      8  C   UNL     1     -13.046  13.845  13.907  0.00  0.00    +0.000 A 
ENDROOT
BRANCH   4  10
ATOM      9  N   UNL     1      -9.790  11.050  17.456  0.00  0.00    +0.000 NA
ATOM     10  C   UNL     1     -10.244  11.287  16.271  0.00  0.00    +0.000 C 
BRANCH   9  11
ATOM     11  O   UNL     1      -9.894   9.678  17.735  0.00  0.00    +0.000 OA
BRANCH  11  12
ATOM     12  C   UNL     1     -10.144   9.541  19.139  0.00  0.00    +0.000 C 
BRANCH  12  15
ATOM     13 CL   UNL     1     -12.541   5.721  21.702  0.00  0.00    +0.000 Cl
ATOM     14 CL   UNL     1     -15.324   6.630  20.283  0.00  0.00    +0.000 Cl
ATOM     15  C   UNL     1     -11.435   8.801  19.395  0.00  0.00    +0.000 A 
ATOM     16  C   UNL     1     -11.443   7.722  20.296  0.00  0.00    +0.000 A 
ATOM     17  C   UNL     1     -12.644   9.199  18.814  0.00  0.00    +0.000 A 
ATOM     18  C   UNL     1     -12.628   7.037  20.586  0.00  0.00    +0.000 A 
ATOM     19  C   UNL     1     -13.829   8.516  19.099  0.00  0.00    +0.000 A 
ATOM     20  C   UNL     1     -13.824   7.430  19.979  0.00  0.00    +0.000 A 
ENDBRANCH  12  15
ENDBRANCH  11  12
ENDBRANCH   9  11
ENDBRANCH   4  10
BRANCH   5  21
ATOM     21  S   UNL     1      -7.501  13.346  16.222  0.00  0.00    +0.000 S 
BRANCH  21  22
ATOM     22  C   UNL     1      -6.601  14.570  15.233  0.00  0.00    +0.000 C 
BRANCH  22  24
ATOM     23 CL   UNL     1      -1.780  16.726  18.166  0.00  0.00    +0.000 Cl
ATOM     24  C   UNL     1      -5.389  15.100  15.970  0.00  0.00    +0.000 A 
ATOM     25  C   UNL     1      -4.382  15.793  15.278  0.00  0.00    +0.000 A 
ATOM     26  C   UNL     1      -5.243  14.898  17.352  0.00  0.00    +0.000 A 
ATOM     27  C   UNL     1      -3.268  16.294  15.954  0.00  0.00    +0.000 A 
ATOM     28  C   UNL     1      -4.128  15.399  18.030  0.00  0.00    +0.000 A 
ATOM     29  C   UNL     1      -3.147  16.098  17.329  0.00  0.00    +0.000 A 
ENDBRANCH  22  24
ENDBRANCH  21  22
ENDBRANCH   5  21
TORSDOF 7
ENDMDL
