MODEL 1
REMARK VINA RESULT:      -4.6      0.000      0.000
REMARK  Name = 5929394
REMARK  7 active torsions:
REMARK  status: ('A' for Active; 'I' for Inactive)
REMARK    1  A    between atoms: S_4  and  C_11
REMARK    2  A    between atoms: S_4  and  C_14
REMARK    3  A    between atoms: O_6  and  N_9
REMARK    4  A    between atoms: O_6  and  C_21
REMARK    5  A    between atoms: C_10  and  C_16
REMARK    6  A    between atoms: C_14  and  C_15
REMARK    7  A    between atoms: C_20  and  C_21
REMARK                            x       y       z     vdW  Elec       q    Type
REMARK                         _______ _______ _______ _____ _____    ______ ____
ROOT
ATOM      1  S   UNL     1       1.939   6.126 -40.461  0.00  0.00    +0.000 S 
ATOM      2  N   UNL     1       0.230   7.936 -41.082  0.00  0.00    +0.000 N 
ATOM      3  N   UNL     1       1.923   8.024 -42.533  0.00  0.00    +0.000 NA
ATOM      4  C   UNL     1      -0.078   8.984 -41.911  0.00  0.00    +0.000 A 
ATOM      5  C   UNL     1       1.001   9.022 -42.795  0.00  0.00    +0.000 A 
ATOM      6  C   UNL     1       1.421   7.423 -41.493  0.00  0.00    +0.000 A 
ATOM      7  C   UNL     1      -0.311   7.344 -39.959  0.00  0.00    +0.000 A 
ATOM      8  C   UNL     1       0.474   6.357 -39.491  0.00  0.00    +0.000 A 
ENDROOT
BRANCH   4  10
ATOM      9  N   UNL     1      -1.253  10.794 -40.928  0.00  0.00    +0.000 NA
ATOM     10  C   UNL     1      -1.238   9.809 -41.761  0.00  0.00    +0.000 C 
BRANCH   9  11
ATOM     11  O   UNL     1      -2.533  11.370 -40.900  0.00  0.00    +0.000 OA
BRANCH  11  12
ATOM     12  C   UNL     1      -3.009  11.426 -42.250  0.00  0.00    +0.000 C 
BRANCH  12  15
ATOM     13 CL   UNL     1      -4.457  16.127 -40.603  0.00  0.00    +0.000 Cl
ATOM     14 CL   UNL     1      -6.460  16.313 -43.160  0.00  0.00    +0.000 Cl
ATOM     15  C   UNL     1      -3.896  12.627 -42.467  0.00  0.00    +0.000 A 
ATOM     16  C   UNL     1      -3.826  13.707 -41.569  0.00  0.00    +0.000 A 
ATOM     17  C   UNL     1      -4.741  12.733 -43.578  0.00  0.00    +0.000 A 
ATOM     18  C   UNL     1      -4.606  14.853 -41.760  0.00  0.00    +0.000 A 
ATOM     19  C   UNL     1      -5.523  13.875 -43.771  0.00  0.00    +0.000 A 
ATOM     20  C   UNL     1      -5.463  14.934 -42.861  0.00  0.00    +0.000 A 
ENDBRANCH  12  15
ENDBRANCH  11  12
ENDBRANCH   9  11
ENDBRANCH   4  10
BRANCH   5  21
ATOM     21  S   UNL     1       1.249  10.173 -44.095  0.00  0.00    +0.000 S 
BRANCH  21  22
ATOM     22  C   UNL     1       1.361  11.733 -43.178  0.00  0.00    +0.000 C 
BRANCH  22  24
ATOM     23 CL   UNL     1      -2.765  15.731 -45.043  0.00  0.00    +0.000 Cl
ATOM     24  C   UNL     1       0.318  12.728 -43.643  0.00  0.00    +0.000 A 
ATOM     25  C   UNL     1       0.127  13.934 -42.948  0.00  0.00    +0.000 A 
ATOM     26  C   UNL     1      -0.482  12.459 -44.765  0.00  0.00    +0.000 A 
ATOM     27  C   UNL     1      -0.825  14.861 -43.379  0.00  0.00    +0.000 A 
ATOM     28  C   UNL     1      -1.436  13.386 -45.196  0.00  0.00    +0.000 A 
ATOM     29  C   UNL     1      -1.600  14.584 -44.504  0.00  0.00    +0.000 A 
ENDBRANCH  22  24
ENDBRANCH  21  22
ENDBRANCH   5  21
TORSDOF 7
ENDMDL
MODEL 2
REMARK VINA RESULT:      -4.6     14.241     15.551
REMARK  Name = 5929394
REMARK  7 active torsions:
REMARK  status: ('A' for Active; 'I' for Inactive)
REMARK    1  A    between atoms: S_4  and  C_11
REMARK    2  A    between atoms: S_4  and  C_14
REMARK    3  A    between atoms: O_6  and  N_9
REMARK    4  A    between atoms: O_6  and  C_21
REMARK    5  A    between atoms: C_10  and  C_16
REMARK    6  A    between atoms: C_14  and  C_15
REMARK    7  A    between atoms: C_20  and  C_21
REMARK                            x       y       z     vdW  Elec       q    Type
REMARK                         _______ _______ _______ _____ _____    ______ ____
ROOT
ATOM      1  S   UNL     1       1.023  -0.298 -49.509  0.00  0.00    +0.000 S 
ATOM      2  N   UNL     1      -1.167   0.670 -50.433  0.00  0.00    +0.000 N 
ATOM      3  N   UNL     1      -1.485  -1.486 -49.951  0.00  0.00    +0.000 NA
ATOM      4  C   UNL     1      -2.462   0.419 -50.806  0.00  0.00    +0.000 A 
ATOM      5  C   UNL     1      -2.626  -0.935 -50.507  0.00  0.00    +0.000 A 
ATOM      6  C   UNL     1      -0.646  -0.490 -49.950  0.00  0.00    +0.000 A 
ATOM      7  C   UNL     1      -0.291   1.735 -50.478  0.00  0.00    +0.000 A 
ATOM      8  C   UNL     1       0.928   1.396 -50.025  0.00  0.00    +0.000 A 
ENDROOT
BRANCH   4  10
ATOM      9  N   UNL     1      -4.310   1.904 -50.759  0.00  0.00    +0.000 NA
ATOM     10  C   UNL     1      -3.323   1.389 -51.411  0.00  0.00    +0.000 C 
BRANCH   9  11
ATOM     11  O   UNL     1      -5.051   2.742 -51.607  0.00  0.00    +0.000 OA
BRANCH  11  12
ATOM     12  C   UNL     1      -5.213   2.058 -52.855  0.00  0.00    +0.000 C 
BRANCH  12  15
ATOM     13 CL   UNL     1      -4.032   6.849 -54.455  0.00  0.00    +0.000 Cl
ATOM     14 CL   UNL     1      -3.832   5.695 -57.490  0.00  0.00    +0.000 Cl
ATOM     15  C   UNL     1      -4.900   2.963 -54.020  0.00  0.00    +0.000 A 
ATOM     16  C   UNL     1      -4.649   4.327 -53.786  0.00  0.00    +0.000 A 
ATOM     17  C   UNL     1      -4.782   2.475 -55.327  0.00  0.00    +0.000 A 
ATOM     18  C   UNL     1      -4.319   5.189 -54.837  0.00  0.00    +0.000 A 
ATOM     19  C   UNL     1      -4.455   3.333 -56.380  0.00  0.00    +0.000 A 
ATOM     20  C   UNL     1      -4.229   4.692 -56.141  0.00  0.00    +0.000 A 
ENDBRANCH  12  15
ENDBRANCH  11  12
ENDBRANCH   9  11
ENDBRANCH   4  10
BRANCH   5  21
ATOM     21  S   UNL     1      -4.062  -1.902 -50.787  0.00  0.00    +0.000 S 
BRANCH  21  22
ATOM     22  C   UNL     1      -4.117  -1.948 -52.598  0.00  0.00    +0.000 C 
BRANCH  22  24
ATOM     23 CL   UNL     1      -9.395   0.115 -54.689  0.00  0.00    +0.000 Cl
ATOM     24  C   UNL     1      -5.441  -1.441 -53.128  0.00  0.00    +0.000 A 
ATOM     25  C   UNL     1      -6.534  -1.268 -52.263  0.00  0.00    +0.000 A 
ATOM     26  C   UNL     1      -5.605  -1.146 -54.491  0.00  0.00    +0.000 A 
ATOM     27  C   UNL     1      -7.755  -0.790 -52.744  0.00  0.00    +0.000 A 
ATOM     28  C   UNL     1      -6.827  -0.668 -54.974  0.00  0.00    +0.000 A 
ATOM     29  C   UNL     1      -7.895  -0.487 -54.097  0.00  0.00    +0.000 A 
ENDBRANCH  22  24
ENDBRANCH  21  22
ENDBRANCH   5  21
TORSDOF 7
ENDMDL
MODEL 3
REMARK VINA RESULT:      -4.3      8.918     12.216
REMARK  Name = 5929394
REMARK  7 active torsions:
REMARK  status: ('A' for Active; 'I' for Inactive)
REMARK    1  A    between atoms: S_4  and  C_11
REMARK    2  A    between atoms: S_4  and  C_14
REMARK    3  A    between atoms: O_6  and  N_9
REMARK    4  A    between atoms: O_6  and  C_21
REMARK    5  A    between atoms: C_10  and  C_16
REMARK    6  A    between atoms: C_14  and  C_15
REMARK    7  A    between atoms: C_20  and  C_21
REMARK                            x       y       z     vdW  Elec       q    Type
REMARK                         _______ _______ _______ _____ _____    ______ ____
ROOT
ATOM      1  S   UNL     1      -9.760  21.368 -40.957  0.00  0.00    +0.000 S 
ATOM      2  N   UNL     1     -10.538  19.439 -42.460  0.00  0.00    +0.000 N 
ATOM      3  N   UNL     1      -8.321  19.319 -42.234  0.00  0.00    +0.000 NA
ATOM      4  C   UNL     1     -10.168  18.370 -43.235  0.00  0.00    +0.000 A 
ATOM      5  C   UNL     1      -8.781  18.330 -43.085  0.00  0.00    +0.000 A 
ATOM      6  C   UNL     1      -9.408  19.958 -41.909  0.00  0.00    +0.000 A 
ATOM      7  C   UNL     1     -11.703  20.117 -42.163  0.00  0.00    +0.000 A 
ATOM      8  C   UNL     1     -11.472  21.179 -41.372  0.00  0.00    +0.000 A 
ENDROOT
BRANCH   4  10
ATOM      9  N   UNL     1     -11.496  16.442 -43.614  0.00  0.00    +0.000 NA
ATOM     10  C   UNL     1     -11.082  17.596 -44.018  0.00  0.00    +0.000 C 
BRANCH   9  11
ATOM     11  O   UNL     1     -12.295  15.853 -44.607  0.00  0.00    +0.000 OA
BRANCH  11  12
ATOM     12  C   UNL     1     -13.270  16.823 -45.007  0.00  0.00    +0.000 C 
BRANCH  12  15
ATOM     13 CL   UNL     1     -17.673  17.644 -42.391  0.00  0.00    +0.000 Cl
ATOM     14 CL   UNL     1     -18.930  15.022 -43.851  0.00  0.00    +0.000 Cl
ATOM     15  C   UNL     1     -14.669  16.349 -44.702  0.00  0.00    +0.000 A 
ATOM     16  C   UNL     1     -15.462  17.078 -43.797  0.00  0.00    +0.000 A 
ATOM     17  C   UNL     1     -15.233  15.240 -45.344  0.00  0.00    +0.000 A 
ATOM     18  C   UNL     1     -16.777  16.690 -43.518  0.00  0.00    +0.000 A 
ATOM     19  C   UNL     1     -16.545  14.848 -45.066  0.00  0.00    +0.000 A 
ATOM     20  C   UNL     1     -17.318  15.566 -44.148  0.00  0.00    +0.000 A 
ENDBRANCH  12  15
ENDBRANCH  11  12
ENDBRANCH   9  11
ENDBRANCH   4  10
BRANCH   5  21
ATOM     21  S   UNL     1      -7.678  17.208 -43.859  0.00  0.00    +0.000 S 
BRANCH  21  22
ATOM     22  C   UNL     1      -6.497  16.886 -42.522  0.00  0.00    +0.000 C 
BRANCH  22  24
ATOM     23 CL   UNL     1      -3.818  11.511 -43.174  0.00  0.00    +0.000 Cl
ATOM     24  C   UNL     1      -5.833  15.534 -42.679  0.00  0.00    +0.000 A 
ATOM     25  C   UNL     1      -5.800  14.899 -43.932  0.00  0.00    +0.000 A 
ATOM     26  C   UNL     1      -5.252  14.886 -41.577  0.00  0.00    +0.000 A 
ATOM     27  C   UNL     1      -5.180  13.657 -44.085  0.00  0.00    +0.000 A 
ATOM     28  C   UNL     1      -4.631  13.642 -41.730  0.00  0.00    +0.000 A 
ATOM     29  C   UNL     1      -4.594  13.036 -42.983  0.00  0.00    +0.000 A 
ENDBRANCH  22  24
ENDBRANCH  21  22
ENDBRANCH   5  21
TORSDOF 7
ENDMDL
MODEL 4
REMARK VINA RESULT:      -4.3     11.282     14.782
REMARK  Name = 5929394
REMARK  7 active torsions:
REMARK  status: ('A' for Active; 'I' for Inactive)
REMARK    1  A    between atoms: S_4  and  C_11
REMARK    2  A    between atoms: S_4  and  C_14
REMARK    3  A    between atoms: O_6  and  N_9
REMARK    4  A    between atoms: O_6  and  C_21
REMARK    5  A    between atoms: C_10  and  C_16
REMARK    6  A    between atoms: C_14  and  C_15
REMARK    7  A    between atoms: C_20  and  C_21
REMARK                            x       y       z     vdW  Elec       q    Type
REMARK                         _______ _______ _______ _____ _____    ______ ____
ROOT
ATOM      1  S   UNL     1      -7.313  18.168 -46.566  0.00  0.00    +0.000 S 
ATOM      2  N   UNL     1      -9.689  17.625 -45.764  0.00  0.00    +0.000 N 
ATOM      3  N   UNL     1      -9.753  18.046 -47.955  0.00  0.00    +0.000 NA
ATOM      4  C   UNL     1     -11.015  17.522 -46.099  0.00  0.00    +0.000 A 
ATOM      5  C   UNL     1     -11.024  17.803 -47.465  0.00  0.00    +0.000 A 
ATOM      6  C   UNL     1      -9.004  17.945 -46.895  0.00  0.00    +0.000 A 
ATOM      7  C   UNL     1      -8.928  17.545 -44.616  0.00  0.00    +0.000 A 
ATOM      8  C   UNL     1      -7.633  17.811 -44.860  0.00  0.00    +0.000 A 
ENDROOT
BRANCH   4  10
ATOM      9  N   UNL     1     -12.307  16.040 -44.771  0.00  0.00    +0.000 NA
ATOM     10  C   UNL     1     -12.058  17.246 -45.158  0.00  0.00    +0.000 C 
BRANCH   9  11
ATOM     11  O   UNL     1     -13.435  16.036 -43.935  0.00  0.00    +0.000 OA
BRANCH  11  12
ATOM     12  C   UNL     1     -14.328  17.049 -44.412  0.00  0.00    +0.000 C 
BRANCH  12  15
ATOM     13 CL   UNL     1     -19.186  17.951 -45.993  0.00  0.00    +0.000 Cl
ATOM     14 CL   UNL     1     -19.691  14.737 -45.999  0.00  0.00    +0.000 Cl
ATOM     15  C   UNL     1     -15.672  16.465 -44.776  0.00  0.00    +0.000 A 
ATOM     16  C   UNL     1     -16.716  17.325 -45.161  0.00  0.00    +0.000 A 
ATOM     17  C   UNL     1     -15.894  15.084 -44.812  0.00  0.00    +0.000 A 
ATOM     18  C   UNL     1     -17.962  16.818 -45.541  0.00  0.00    +0.000 A 
ATOM     19  C   UNL     1     -17.139  14.573 -45.189  0.00  0.00    +0.000 A 
ATOM     20  C   UNL     1     -18.178  15.437 -45.548  0.00  0.00    +0.000 A 
ENDBRANCH  12  15
ENDBRANCH  11  12
ENDBRANCH   9  11
ENDBRANCH   4  10
BRANCH   5  21
ATOM     21  S   UNL     1     -12.432  17.879 -48.508  0.00  0.00    +0.000 S 
BRANCH  21  22
ATOM     22  C   UNL     1     -12.907  16.132 -48.601  0.00  0.00    +0.000 C 
BRANCH  22  24
ATOM     23 CL   UNL     1     -18.409  15.412 -50.986  0.00  0.00    +0.000 Cl
ATOM     24  C   UNL     1     -14.290  15.961 -49.193  0.00  0.00    +0.000 A 
ATOM     25  C   UNL     1     -14.495  16.113 -50.574  0.00  0.00    +0.000 A 
ATOM     26  C   UNL     1     -15.390  15.661 -48.375  0.00  0.00    +0.000 A 
ATOM     27  C   UNL     1     -15.766  15.945 -51.129  0.00  0.00    +0.000 A 
ATOM     28  C   UNL     1     -16.664  15.493 -48.928  0.00  0.00    +0.000 A 
ATOM     29  C   UNL     1     -16.844  15.632 -50.303  0.00  0.00    +0.000 A 
ENDBRANCH  22  24
ENDBRANCH  21  22
ENDBRANCH   5  21
TORSDOF 7
ENDMDL
MODEL 5
REMARK VINA RESULT:      -4.1     17.861     19.490
REMARK  Name = 5929394
REMARK  7 active torsions:
REMARK  status: ('A' for Active; 'I' for Inactive)
REMARK    1  A    between atoms: S_4  and  C_11
REMARK    2  A    between atoms: S_4  and  C_14
REMARK    3  A    between atoms: O_6  and  N_9
REMARK    4  A    between atoms: O_6  and  C_21
REMARK    5  A    between atoms: C_10  and  C_16
REMARK    6  A    between atoms: C_14  and  C_15
REMARK    7  A    between atoms: C_20  and  C_21
REMARK                            x       y       z     vdW  Elec       q    Type
REMARK                         _______ _______ _______ _____ _____    ______ ____
ROOT
ATOM      1  S   UNL     1      -4.822   1.804 -50.870  0.00  0.00    +0.000 S 
ATOM      2  N   UNL     1      -5.970   0.704 -52.883  0.00  0.00    +0.000 N 
ATOM      3  N   UNL     1      -6.372  -0.531 -51.068  0.00  0.00    +0.000 NA
ATOM      4  C   UNL     1      -6.703  -0.360 -53.343  0.00  0.00    +0.000 A 
ATOM      5  C   UNL     1      -6.925  -1.118 -52.192  0.00  0.00    +0.000 A 
ATOM      6  C   UNL     1      -5.801   0.538 -51.544  0.00  0.00    +0.000 A 
ATOM      7  C   UNL     1      -5.346   1.809 -53.424  0.00  0.00    +0.000 A 
ATOM      8  C   UNL     1      -4.681   2.511 -52.490  0.00  0.00    +0.000 A 
ENDROOT
BRANCH   4  10
ATOM      9  N   UNL     1      -6.193  -1.076 -55.546  0.00  0.00    +0.000 NA
ATOM     10  C   UNL     1      -7.041  -0.564 -54.719  0.00  0.00    +0.000 C 
BRANCH   9  11
ATOM     11  O   UNL     1      -6.735  -1.071 -56.841  0.00  0.00    +0.000 OA
BRANCH  11  12
ATOM     12  C   UNL     1      -5.644  -0.975 -57.764  0.00  0.00    +0.000 C 
BRANCH  12  15
ATOM     13 CL   UNL     1      -4.455   3.514 -60.076  0.00  0.00    +0.000 Cl
ATOM     14 CL   UNL     1      -6.767   2.894 -62.280  0.00  0.00    +0.000 Cl
ATOM     15  C   UNL     1      -5.952  -0.001 -58.875  0.00  0.00    +0.000 A 
ATOM     16  C   UNL     1      -5.197   1.180 -58.986  0.00  0.00    +0.000 A 
ATOM     17  C   UNL     1      -6.923  -0.269 -59.847  0.00  0.00    +0.000 A 
ATOM     18  C   UNL     1      -5.428   2.087 -60.024  0.00  0.00    +0.000 A 
ATOM     19  C   UNL     1      -7.159   0.636 -60.885  0.00  0.00    +0.000 A 
ATOM     20  C   UNL     1      -6.419   1.819 -60.973  0.00  0.00    +0.000 A 
ENDBRANCH  12  15
ENDBRANCH  11  12
ENDBRANCH   9  11
ENDBRANCH   4  10
BRANCH   5  21
ATOM     21  S   UNL     1      -7.776  -2.649 -52.096  0.00  0.00    +0.000 S 
BRANCH  21  22
ATOM     22  C   UNL     1      -6.971  -3.418 -50.665  0.00  0.00    +0.000 C 
BRANCH  22  24
ATOM     23 CL   UNL     1     -10.988  -6.207 -47.119  0.00  0.00    +0.000 Cl
ATOM     24  C   UNL     1      -7.974  -4.111 -49.767  0.00  0.00    +0.000 A 
ATOM     25  C   UNL     1      -9.352  -3.912 -49.955  0.00  0.00    +0.000 A 
ATOM     26  C   UNL     1      -7.548  -4.951 -48.727  0.00  0.00    +0.000 A 
ATOM     27  C   UNL     1     -10.283  -4.557 -49.137  0.00  0.00    +0.000 A 
ATOM     28  C   UNL     1      -8.479  -5.597 -47.908  0.00  0.00    +0.000 A 
ATOM     29  C   UNL     1      -9.842  -5.401 -48.119  0.00  0.00    +0.000 A 
ENDBRANCH  22  24
ENDBRANCH  21  22
ENDBRANCH   5  21
TORSDOF 7
ENDMDL
MODEL 6
REMARK VINA RESULT:      -4.0     16.475     17.688
REMARK  Name = 5929394
REMARK  7 active torsions:
REMARK  status: ('A' for Active; 'I' for Inactive)
REMARK    1  A    between atoms: S_4  and  C_11
REMARK    2  A    between atoms: S_4  and  C_14
REMARK    3  A    between atoms: O_6  and  N_9
REMARK    4  A    between atoms: O_6  and  C_21
REMARK    5  A    between atoms: C_10  and  C_16
REMARK    6  A    between atoms: C_14  and  C_15
REMARK    7  A    between atoms: C_20  and  C_21
REMARK                            x       y       z     vdW  Elec       q    Type
REMARK                         _______ _______ _______ _____ _____    ______ ____
ROOT
ATOM      1  S   UNL     1      -0.202   0.351 -50.871  0.00  0.00    +0.000 S 
ATOM      2  N   UNL     1      -2.454  -0.842 -51.171  0.00  0.00    +0.000 N 
ATOM      3  N   UNL     1      -2.811   1.360 -51.134  0.00  0.00    +0.000 NA
ATOM      4  C   UNL     1      -3.814  -0.710 -51.278  0.00  0.00    +0.000 A 
ATOM      5  C   UNL     1      -4.007   0.671 -51.238  0.00  0.00    +0.000 A 
ATOM      6  C   UNL     1      -1.926   0.407 -51.080  0.00  0.00    +0.000 A 
ATOM      7  C   UNL     1      -1.544  -1.876 -51.081  0.00  0.00    +0.000 A 
ATOM      8  C   UNL     1      -0.290  -1.419 -50.913  0.00  0.00    +0.000 A 
ENDROOT
BRANCH   4  10
ATOM      9  N   UNL     1      -5.868  -1.773 -50.752  0.00  0.00    +0.000 NA
ATOM     10  C   UNL     1      -4.722  -1.814 -51.344  0.00  0.00    +0.000 C 
BRANCH   9  11
ATOM     11  O   UNL     1      -6.514  -3.012 -50.885  0.00  0.00    +0.000 OA
BRANCH  11  12
ATOM     12  C   UNL     1      -7.925  -2.768 -50.864  0.00  0.00    +0.000 C 
BRANCH  12  15
ATOM     13 CL   UNL     1      -7.556  -6.128 -46.929  0.00  0.00    +0.000 Cl
ATOM     14 CL   UNL     1     -10.765  -6.612 -47.153  0.00  0.00    +0.000 Cl
ATOM     15  C   UNL     1      -8.636  -3.748 -49.964  0.00  0.00    +0.000 A 
ATOM     16  C   UNL     1      -7.905  -4.436 -48.979  0.00  0.00    +0.000 A 
ATOM     17  C   UNL     1     -10.021  -3.944 -50.029  0.00  0.00    +0.000 A 
ATOM     18  C   UNL     1      -8.537  -5.323 -48.103  0.00  0.00    +0.000 A 
ATOM     19  C   UNL     1     -10.655  -4.832 -49.156  0.00  0.00    +0.000 A 
ATOM     20  C   UNL     1      -9.916  -5.529 -48.196  0.00  0.00    +0.000 A 
ENDBRANCH  12  15
ENDBRANCH  11  12
ENDBRANCH   9  11
ENDBRANCH   4  10
BRANCH   5  21
ATOM     21  S   UNL     1      -5.543   1.516 -51.287  0.00  0.00    +0.000 S 
BRANCH  21  22
ATOM     22  C   UNL     1      -5.712   1.853 -53.060  0.00  0.00    +0.000 C 
BRANCH  22  24
ATOM     23 CL   UNL     1      -7.002  -3.150 -56.190  0.00  0.00    +0.000 Cl
ATOM     24  C   UNL     1      -6.027   0.593 -53.839  0.00  0.00    +0.000 A 
ATOM     25  C   UNL     1      -7.238  -0.086 -53.632  0.00  0.00    +0.000 A 
ATOM     26  C   UNL     1      -5.112   0.076 -54.770  0.00  0.00    +0.000 A 
ATOM     27  C   UNL     1      -7.540  -1.242 -54.356  0.00  0.00    +0.000 A 
ATOM     28  C   UNL     1      -5.412  -1.081 -55.495  0.00  0.00    +0.000 A 
ATOM     29  C   UNL     1      -6.626  -1.732 -55.288  0.00  0.00    +0.000 A 
ENDBRANCH  22  24
ENDBRANCH  21  22
ENDBRANCH   5  21
TORSDOF 7
ENDMDL
MODEL 7
REMARK VINA RESULT:      -4.0     15.818     16.915
REMARK  Name = 5929394
REMARK  7 active torsions:
REMARK  status: ('A' for Active; 'I' for Inactive)
REMARK    1  A    between atoms: S_4  and  C_11
REMARK    2  A    between atoms: S_4  and  C_14
REMARK    3  A    between atoms: O_6  and  N_9
REMARK    4  A    between atoms: O_6  and  C_21
REMARK    5  A    between atoms: C_10  and  C_16
REMARK    6  A    between atoms: C_14  and  C_15
REMARK    7  A    between atoms: C_20  and  C_21
REMARK                            x       y       z     vdW  Elec       q    Type
REMARK                         _______ _______ _______ _____ _____    ______ ____
ROOT
ATOM      1  S   UNL     1      -0.134  -1.395 -53.341  0.00  0.00    +0.000 S 
ATOM      2  N   UNL     1      -2.390  -1.407 -52.119  0.00  0.00    +0.000 N 
ATOM      3  N   UNL     1      -1.764   0.710 -52.442  0.00  0.00    +0.000 NA
ATOM      4  C   UNL     1      -3.376  -0.660 -51.528  0.00  0.00    +0.000 A 
ATOM      5  C   UNL     1      -2.951   0.653 -51.734  0.00  0.00    +0.000 A 
ATOM      6  C   UNL     1      -1.469  -0.545 -52.626  0.00  0.00    +0.000 A 
ATOM      7  C   UNL     1      -2.088  -2.746 -52.266  0.00  0.00    +0.000 A 
ATOM      8  C   UNL     1      -0.914  -2.924 -52.895  0.00  0.00    +0.000 A 
ENDROOT
BRANCH   4  10
ATOM      9  N   UNL     1      -5.326  -2.006 -51.436  0.00  0.00    +0.000 NA
ATOM     10  C   UNL     1      -4.498  -1.218 -50.837  0.00  0.00    +0.000 C 
BRANCH   9  11
ATOM     11  O   UNL     1      -6.383  -2.327 -50.569  0.00  0.00    +0.000 OA
BRANCH  11  12
ATOM     12  C   UNL     1      -7.606  -2.029 -51.252  0.00  0.00    +0.000 C 
BRANCH  12  15
ATOM     13 CL   UNL     1      -6.743  -4.170 -55.898  0.00  0.00    +0.000 Cl
ATOM     14 CL   UNL     1      -6.775  -1.183 -57.186  0.00  0.00    +0.000 Cl
ATOM     15  C   UNL     1      -7.369  -1.806 -52.726  0.00  0.00    +0.000 A 
ATOM     16  C   UNL     1      -7.170  -2.916 -53.568  0.00  0.00    +0.000 A 
ATOM     17  C   UNL     1      -7.409  -0.530 -53.299  0.00  0.00    +0.000 A 
ATOM     18  C   UNL     1      -6.985  -2.750 -54.944  0.00  0.00    +0.000 A 
ATOM     19  C   UNL     1      -7.221  -0.360 -54.673  0.00  0.00    +0.000 A 
ATOM     20  C   UNL     1      -7.002  -1.467 -55.498  0.00  0.00    +0.000 A 
ENDBRANCH  12  15
ENDBRANCH  11  12
ENDBRANCH   9  11
ENDBRANCH   4  10
BRANCH   5  21
ATOM     21  S   UNL     1      -3.752   2.112 -51.180  0.00  0.00    +0.000 S 
BRANCH  21  22
ATOM     22  C   UNL     1      -5.254   2.105 -52.195  0.00  0.00    +0.000 C 
BRANCH  22  24
ATOM     23 CL   UNL     1      -4.372   4.744 -57.556  0.00  0.00    +0.000 Cl
ATOM     24  C   UNL     1      -5.024   2.773 -53.534  0.00  0.00    +0.000 A 
ATOM     25  C   UNL     1      -4.592   2.020 -54.639  0.00  0.00    +0.000 A 
ATOM     26  C   UNL     1      -5.225   4.153 -53.694  0.00  0.00    +0.000 A 
ATOM     27  C   UNL     1      -4.390   2.627 -55.880  0.00  0.00    +0.000 A 
ATOM     28  C   UNL     1      -5.021   4.763 -54.936  0.00  0.00    +0.000 A 
ATOM     29  C   UNL     1      -4.609   3.996 -56.024  0.00  0.00    +0.000 A 
ENDBRANCH  22  24
ENDBRANCH  21  22
ENDBRANCH   5  21
TORSDOF 7
ENDMDL
MODEL 8
REMARK VINA RESULT:      -4.0     15.919     17.358
REMARK  Name = 5929394
REMARK  7 active torsions:
REMARK  status: ('A' for Active; 'I' for Inactive)
REMARK    1  A    between atoms: S_4  and  C_11
REMARK    2  A    between atoms: S_4  and  C_14
REMARK    3  A    between atoms: O_6  and  N_9
REMARK    4  A    between atoms: O_6  and  C_21
REMARK    5  A    between atoms: C_10  and  C_16
REMARK    6  A    between atoms: C_14  and  C_15
REMARK    7  A    between atoms: C_20  and  C_21
REMARK                            x       y       z     vdW  Elec       q    Type
REMARK                         _______ _______ _______ _____ _____    ______ ____
ROOT
ATOM      1  S   UNL     1       1.541   4.778 -58.148  0.00  0.00    +0.000 S 
ATOM      2  N   UNL     1      -0.855   4.972 -57.248  0.00  0.00    +0.000 N 
ATOM      3  N   UNL     1      -0.583   6.466 -58.884  0.00  0.00    +0.000 NA
ATOM      4  C   UNL     1      -2.050   5.640 -57.310  0.00  0.00    +0.000 A 
ATOM      5  C   UNL     1      -1.845   6.572 -58.328  0.00  0.00    +0.000 A 
ATOM      6  C   UNL     1      -0.034   5.511 -58.189  0.00  0.00    +0.000 A 
ATOM      7  C   UNL     1      -0.290   3.982 -56.470  0.00  0.00    +0.000 A 
ATOM      8  C   UNL     1       0.990   3.751 -56.812  0.00  0.00    +0.000 A 
ENDROOT
BRANCH   4  10
ATOM      9  N   UNL     1      -3.924   4.367 -56.609  0.00  0.00    +0.000 NA
ATOM     10  C   UNL     1      -3.154   5.387 -56.435  0.00  0.00    +0.000 C 
BRANCH   9  11
ATOM     11  O   UNL     1      -4.981   4.410 -55.685  0.00  0.00    +0.000 OA
BRANCH  11  12
ATOM     12  C   UNL     1      -4.405   4.477 -54.375  0.00  0.00    +0.000 C 
BRANCH  12  15
ATOM     13 CL   UNL     1      -7.030   0.010 -54.129  0.00  0.00    +0.000 Cl
ATOM     14 CL   UNL     1      -6.028  -0.312 -51.051  0.00  0.00    +0.000 Cl
ATOM     15  C   UNL     1      -4.830   3.302 -53.529  0.00  0.00    +0.000 A 
ATOM     16  C   UNL     1      -5.644   2.304 -54.095  0.00  0.00    +0.000 A 
ATOM     17  C   UNL     1      -4.383   3.136 -52.214  0.00  0.00    +0.000 A 
ATOM     18  C   UNL     1      -6.026   1.182 -53.353  0.00  0.00    +0.000 A 
ATOM     19  C   UNL     1      -4.765   2.018 -51.468  0.00  0.00    +0.000 A 
ATOM     20  C   UNL     1      -5.592   1.042 -52.032  0.00  0.00    +0.000 A 
ENDBRANCH  12  15
ENDBRANCH  11  12
ENDBRANCH   9  11
ENDBRANCH   4  10
BRANCH   5  21
ATOM     21  S   UNL     1      -2.986   7.782 -58.885  0.00  0.00    +0.000 S 
BRANCH  21  22
ATOM     22  C   UNL     1      -3.442   7.123 -60.512  0.00  0.00    +0.000 C 
BRANCH  22  24
ATOM     23 CL   UNL     1      -6.044   1.692 -60.031  0.00  0.00    +0.000 Cl
ATOM     24  C   UNL     1      -4.103   5.766 -60.398  0.00  0.00    +0.000 A 
ATOM     25  C   UNL     1      -3.516   4.637 -60.993  0.00  0.00    +0.000 A 
ATOM     26  C   UNL     1      -5.316   5.612 -59.708  0.00  0.00    +0.000 A 
ATOM     27  C   UNL     1      -4.115   3.380 -60.882  0.00  0.00    +0.000 A 
ATOM     28  C   UNL     1      -5.917   4.354 -59.597  0.00  0.00    +0.000 A 
ATOM     29  C   UNL     1      -5.311   3.244 -60.180  0.00  0.00    +0.000 A 
ENDBRANCH  22  24
ENDBRANCH  21  22
ENDBRANCH   5  21
TORSDOF 7
ENDMDL
MODEL 9
REMARK VINA RESULT:      -4.0      7.624     11.759
REMARK  Name = 5929394
REMARK  7 active torsions:
REMARK  status: ('A' for Active; 'I' for Inactive)
REMARK    1  A    between atoms: S_4  and  C_11
REMARK    2  A    between atoms: S_4  and  C_14
REMARK    3  A    between atoms: O_6  and  N_9
REMARK    4  A    between atoms: O_6  and  C_21
REMARK    5  A    between atoms: C_10  and  C_16
REMARK    6  A    between atoms: C_14  and  C_15
REMARK    7  A    between atoms: C_20  and  C_21
REMARK                            x       y       z     vdW  Elec       q    Type
REMARK                         _______ _______ _______ _____ _____    ______ ____
ROOT
ATOM      1  S   UNL     1      -8.129  22.367 -44.370  0.00  0.00    +0.000 S 
ATOM      2  N   UNL     1      -7.571  19.944 -43.738  0.00  0.00    +0.000 N 
ATOM      3  N   UNL     1      -9.725  20.055 -44.310  0.00  0.00    +0.000 NA
ATOM      4  C   UNL     1      -8.044  18.670 -43.555  0.00  0.00    +0.000 A 
ATOM      5  C   UNL     1      -9.391  18.775 -43.906  0.00  0.00    +0.000 A 
ATOM      6  C   UNL     1      -8.608  20.709 -44.171  0.00  0.00    +0.000 A 
ATOM      7  C   UNL     1      -6.381  20.616 -43.546  0.00  0.00    +0.000 A 
ATOM      8  C   UNL     1      -6.499  21.925 -43.832  0.00  0.00    +0.000 A 
ENDROOT
BRANCH   4  10
ATOM      9  N   UNL     1      -7.016  16.545 -43.775  0.00  0.00    +0.000 NA
ATOM     10  C   UNL     1      -7.254  17.587 -43.054  0.00  0.00    +0.000 C 
BRANCH   9  11
ATOM     11  O   UNL     1      -6.312  15.596 -43.017  0.00  0.00    +0.000 OA
BRANCH  11  12
ATOM     12  C   UNL     1      -5.733  14.657 -43.930  0.00  0.00    +0.000 C 
BRANCH  12  15
ATOM     13 CL   UNL     1      -2.770  13.772 -39.765  0.00  0.00    +0.000 Cl
ATOM     14 CL   UNL     1      -2.052  10.850 -41.001  0.00  0.00    +0.000 Cl
ATOM     15  C   UNL     1      -4.792  13.714 -43.222  0.00  0.00    +0.000 A 
ATOM     16  C   UNL     1      -4.245  14.089 -41.981  0.00  0.00    +0.000 A 
ATOM     17  C   UNL     1      -4.497  12.443 -43.727  0.00  0.00    +0.000 A 
ATOM     18  C   UNL     1      -3.398  13.225 -41.278  0.00  0.00    +0.000 A 
ATOM     19  C   UNL     1      -3.650  11.578 -43.029  0.00  0.00    +0.000 A 
ATOM     20  C   UNL     1      -3.093  11.968 -41.808  0.00  0.00    +0.000 A 
ENDBRANCH  12  15
ENDBRANCH  11  12
ENDBRANCH   9  11
ENDBRANCH   4  10
BRANCH   5  21
ATOM     21  S   UNL     1     -10.589  17.495 -43.852  0.00  0.00    +0.000 S 
BRANCH  21  22
ATOM     22  C   UNL     1     -10.871  17.193 -45.617  0.00  0.00    +0.000 C 
BRANCH  22  24
ATOM     23 CL   UNL     1     -16.298  14.720 -46.578  0.00  0.00    +0.000 Cl
ATOM     24  C   UNL     1     -12.227  16.565 -45.865  0.00  0.00    +0.000 A 
ATOM     25  C   UNL     1     -12.921  15.936 -44.818  0.00  0.00    +0.000 A 
ATOM     26  C   UNL     1     -12.808  16.588 -47.143  0.00  0.00    +0.000 A 
ATOM     27  C   UNL     1     -14.177  15.365 -45.037  0.00  0.00    +0.000 A 
ATOM     28  C   UNL     1     -14.064  16.017 -47.364  0.00  0.00    +0.000 A 
ATOM     29  C   UNL     1     -14.745  15.412 -46.309  0.00  0.00    +0.000 A 
ENDBRANCH  22  24
ENDBRANCH  21  22
ENDBRANCH   5  21
TORSDOF 7
ENDMDL
MODEL 10
REMARK VINA RESULT:      -3.9     15.602     16.882
REMARK  Name = 5929394
REMARK  7 active torsions:
REMARK  status: ('A' for Active; 'I' for Inactive)
REMARK    1  A    between atoms: S_4  and  C_11
REMARK    2  A    between atoms: S_4  and  C_14
REMARK    3  A    between atoms: O_6  and  N_9
REMARK    4  A    between atoms: O_6  and  C_21
REMARK    5  A    between atoms: C_10  and  C_16
REMARK    6  A    between atoms: C_14  and  C_15
REMARK    7  A    between atoms: C_20  and  C_21
REMARK                            x       y       z     vdW  Elec       q    Type
REMARK                         _______ _______ _______ _____ _____    ______ ____
ROOT
ATOM      1  S   UNL     1      -0.470  -0.329 -54.312  0.00  0.00    +0.000 S 
ATOM      2  N   UNL     1      -2.514  -0.736 -52.815  0.00  0.00    +0.000 N 
ATOM      3  N   UNL     1      -2.547   1.385 -53.508  0.00  0.00    +0.000 NA
ATOM      4  C   UNL     1      -3.616  -0.191 -52.209  0.00  0.00    +0.000 A 
ATOM      5  C   UNL     1      -3.602   1.133 -52.649  0.00  0.00    +0.000 A 
ATOM      6  C   UNL     1      -1.924   0.242 -53.553  0.00  0.00    +0.000 A 
ATOM      7  C   UNL     1      -1.857  -1.950 -52.813  0.00  0.00    +0.000 A 
ATOM      8  C   UNL     1      -0.740  -1.911 -53.560  0.00  0.00    +0.000 A 
ENDROOT
BRANCH   4  10
ATOM      9  N   UNL     1      -5.433  -1.642 -51.741  0.00  0.00    +0.000 NA
ATOM     10  C   UNL     1      -4.468  -0.904 -51.307  0.00  0.00    +0.000 C 
BRANCH   9  11
ATOM     11  O   UNL     1      -6.171  -2.141 -50.656  0.00  0.00    +0.000 OA
BRANCH  11  12
ATOM     12  C   UNL     1      -6.862  -3.311 -51.107  0.00  0.00    +0.000 C 
BRANCH  12  15
ATOM     13 CL   UNL     1     -11.052  -4.985 -48.547  0.00  0.00    +0.000 Cl
ATOM     14 CL   UNL     1      -9.072  -6.600 -46.533  0.00  0.00    +0.000 Cl
ATOM     15  C   UNL     1      -7.403  -4.109 -49.945  0.00  0.00    +0.000 A 
ATOM     16  C   UNL     1      -8.794  -4.189 -49.752  0.00  0.00    +0.000 A 
ATOM     17  C   UNL     1      -6.565  -4.832 -49.089  0.00  0.00    +0.000 A 
ATOM     18  C   UNL     1      -9.332  -4.949 -48.709  0.00  0.00    +0.000 A 
ATOM     19  C   UNL     1      -7.099  -5.590 -48.044  0.00  0.00    +0.000 A 
ATOM     20  C   UNL     1      -8.482  -5.646 -47.846  0.00  0.00    +0.000 A 
ENDBRANCH  12  15
ENDBRANCH  11  12
ENDBRANCH   9  11
ENDBRANCH   4  10
BRANCH   5  21
ATOM     21  S   UNL     1      -4.734   2.396 -52.202  0.00  0.00    +0.000 S 
BRANCH  21  22
ATOM     22  C   UNL     1      -5.550   2.725 -53.787  0.00  0.00    +0.000 C 
BRANCH  22  24
ATOM     23 CL   UNL     1      -3.018   7.428 -56.610  0.00  0.00    +0.000 Cl
ATOM     24  C   UNL     1      -4.925   3.905 -54.502  0.00  0.00    +0.000 A 
ATOM     25  C   UNL     1      -4.742   5.126 -53.832  0.00  0.00    +0.000 A 
ATOM     26  C   UNL     1      -4.529   3.804 -55.845  0.00  0.00    +0.000 A 
ATOM     27  C   UNL     1      -4.155   6.214 -54.482  0.00  0.00    +0.000 A 
ATOM     28  C   UNL     1      -3.941   4.893 -56.497  0.00  0.00    +0.000 A 
ATOM     29  C   UNL     1      -3.754   6.091 -55.811  0.00  0.00    +0.000 A 
ENDBRANCH  22  24
ENDBRANCH  21  22
ENDBRANCH   5  21
TORSDOF 7
ENDMDL
