REMARK  Name = 5929394
REMARK  7 active torsions:
REMARK  status: ('A' for Active; 'I' for Inactive)
REMARK    1  A    between atoms: S_4  and  C_11
REMARK    2  A    between atoms: S_4  and  C_14
REMARK    3  A    between atoms: O_6  and  N_9
REMARK    4  A    between atoms: O_6  and  C_21
REMARK    5  A    between atoms: C_10  and  C_16
REMARK    6  A    between atoms: C_14  and  C_15
REMARK    7  A    between atoms: C_20  and  C_21
REMARK                            x       y       z     vdW  Elec       q    Type
REMARK                         _______ _______ _______ _____ _____    ______ ____
ROOT
ATOM      1  S   UNL     1       6.558   2.520  -2.432  0.00  0.00    +0.000 S 
ATOM      2  N   UNL     1       5.543   2.634  -0.078  0.00  0.00    +0.000 N 
ATOM      3  N   UNL     1       5.438   0.525  -0.800  0.00  0.00    +0.000 NA
ATOM      4  C   UNL     1       4.912   1.953   0.931  0.00  0.00    +0.000 A 
ATOM      5  C   UNL     1       4.849   0.646   0.446  0.00  0.00    +0.000 A 
ATOM      6  C   UNL     1       5.815   1.742  -1.068  0.00  0.00    +0.000 A 
ATOM      7  C   UNL     1       5.898   3.940  -0.347  0.00  0.00    +0.000 A 
ATOM      8  C   UNL     1       6.452   4.063  -1.566  0.00  0.00    +0.000 A 
ENDROOT
BRANCH   4  10
ATOM      9  N   UNL     1       3.408   2.084   2.760  0.00  0.00    +0.000 NA
ATOM     10  C   UNL     1       4.423   2.568   2.127  0.00  0.00    +0.000 C 
BRANCH   9  11
ATOM     11  O   UNL     1       3.073   2.928   3.831  0.00  0.00    +0.000 OA
BRANCH  11  12
ATOM     12  C   UNL     1       1.693   2.704   4.141  0.00  0.00    +0.000 C 
BRANCH  12  15
ATOM     13 CL   UNL     1      -2.207   5.451   6.179  0.00  0.00    +0.000 Cl
ATOM     14 CL   UNL     1      -0.244   6.247   8.648  0.00  0.00    +0.000 Cl
ATOM     15  C   UNL     1       1.228   3.612   5.253  0.00  0.00    +0.000 A 
ATOM     16  C   UNL     1      -0.094   4.092   5.244  0.00  0.00    +0.000 A 
ATOM     17  C   UNL     1       2.052   3.939   6.336  0.00  0.00    +0.000 A 
ATOM     18  C   UNL     1      -0.571   4.905   6.277  0.00  0.00    +0.000 A 
ATOM     19  C   UNL     1       1.580   4.753   7.369  0.00  0.00    +0.000 A 
ATOM     20  C   UNL     1       0.271   5.244   7.340  0.00  0.00    +0.000 A 
ENDBRANCH  12  15
ENDBRANCH  11  12
ENDBRANCH   9  11
ENDBRANCH   4  10
BRANCH   5  21
ATOM     21  S   UNL     1       4.114  -0.732   1.244  0.00  0.00    +0.000 S 
BRANCH  21  22
ATOM     22  C   UNL     1       4.979  -2.112   0.448  0.00  0.00    +0.000 C 
BRANCH  22  24
ATOM     23 CL   UNL     1       2.905  -7.466   2.325  0.00  0.00    +0.000 Cl
ATOM     24  C   UNL     1       4.455  -3.449   0.928  0.00  0.00    +0.000 A 
ATOM     25  C   UNL     1       3.412  -4.092   0.241  0.00  0.00    +0.000 A 
ATOM     26  C   UNL     1       4.991  -4.063   2.071  0.00  0.00    +0.000 A 
ATOM     27  C   UNL     1       2.932  -5.331   0.672  0.00  0.00    +0.000 A 
ATOM     28  C   UNL     1       4.511  -5.303   2.504  0.00  0.00    +0.000 A 
ATOM     29  C   UNL     1       3.487  -5.933   1.800  0.00  0.00    +0.000 A 
ENDBRANCH  22  24
ENDBRANCH  21  22
ENDBRANCH   5  21
TORSDOF 7
