MODEL 1
REMARK VINA RESULT:      -5.5      0.000      0.000
REMARK  Name = 5929121
REMARK  6 active torsions:
REMARK  status: ('A' for Active; 'I' for Inactive)
REMARK    1  A    between atoms: O_4  and  N_7
REMARK    2  A    between atoms: O_4  and  C_22
REMARK    3  A    between atoms: C_8  and  C_10
REMARK    4  A    between atoms: C_9  and  C_15
REMARK    5  A    between atoms: C_16  and  C_20
REMARK    6  A    between atoms: C_21  and  C_22
REMARK                            x       y       z     vdW  Elec       q    Type
REMARK                         _______ _______ _______ _____ _____    ______ ____
ROOT
ATOM      1  S   UNL     1      -7.294 -11.075  18.903  0.00  0.00    +0.000 S 
ATOM      2  N   UNL     1      -5.420 -10.898  17.157  0.00  0.00    +0.000 N 
ATOM      3  N   UNL     1      -7.385 -10.827  16.107  0.00  0.00    +0.000 NA
ATOM      4  C   UNL     1      -6.339 -10.745  15.192  0.00  0.00    +0.000 A 
ATOM      5  C   UNL     1      -5.094 -10.800  15.830  0.00  0.00    +0.000 A 
ATOM      6  C   UNL     1      -6.780 -10.907  17.255  0.00  0.00    +0.000 A 
ATOM      7  C   UNL     1      -4.746 -11.030  18.355  0.00  0.00    +0.000 A 
ATOM      8  C   UNL     1      -5.594 -11.138  19.393  0.00  0.00    +0.000 A 
ENDROOT
BRANCH   4   9
ATOM      9  C   UNL     1      -6.602 -10.624  13.759  0.00  0.00    +0.000 A 
ATOM     10  C   UNL     1      -6.493  -9.406  13.075  0.00  0.00    +0.000 A 
ATOM     11  C   UNL     1      -7.006 -11.754  13.036  0.00  0.00    +0.000 A 
ATOM     12  C   UNL     1      -7.093 -10.465  10.977  0.00  0.00    +0.000 A 
ATOM     13  C   UNL     1      -6.716  -9.330  11.697  0.00  0.00    +0.000 A 
ATOM     14  C   UNL     1      -7.254 -11.675  11.660  0.00  0.00    +0.000 A 
ATOM     15  C   UNL     1      -7.385 -10.373   9.509  0.00  0.00    +0.000 C 
ENDBRANCH   4   9
BRANCH   5  17
ATOM     16  N   UNL     1      -3.222 -11.929  14.953  0.00  0.00    +0.000 NA
ATOM     17  C   UNL     1      -3.753 -10.815  15.330  0.00  0.00    +0.000 C 
BRANCH  16  18
ATOM     18  O   UNL     1      -1.933 -11.705  14.457  0.00  0.00    +0.000 OA
BRANCH  18  19
ATOM     19  C   UNL     1      -1.793 -12.479  13.261  0.00  0.00    +0.000 C 
BRANCH  19  22
ATOM     20 CL   UNL     1      -3.767 -14.036  11.355  0.00  0.00    +0.000 Cl
ATOM     21  F   UNL     1      -1.310  -9.768  12.754  0.00  0.00    +0.000 F 
ATOM     22  C   UNL     1      -2.407 -11.766  12.092  0.00  0.00    +0.000 A 
ATOM     23  C   UNL     1      -3.297 -12.378  11.199  0.00  0.00    +0.000 A 
ATOM     24  C   UNL     1      -2.132 -10.406  11.908  0.00  0.00    +0.000 A 
ATOM     25  C   UNL     1      -3.867 -11.650  10.146  0.00  0.00    +0.000 A 
ATOM     26  C   UNL     1      -2.703  -9.672  10.870  0.00  0.00    +0.000 A 
ATOM     27  C   UNL     1      -3.571 -10.298   9.982  0.00  0.00    +0.000 A 
ENDBRANCH  19  22
ENDBRANCH  18  19
ENDBRANCH  16  18
ENDBRANCH   5  17
TORSDOF 5
ENDMDL
MODEL 2
REMARK VINA RESULT:      -5.1      4.157      7.586
REMARK  Name = 5929121
REMARK  6 active torsions:
REMARK  status: ('A' for Active; 'I' for Inactive)
REMARK    1  A    between atoms: O_4  and  N_7
REMARK    2  A    between atoms: O_4  and  C_22
REMARK    3  A    between atoms: C_8  and  C_10
REMARK    4  A    between atoms: C_9  and  C_15
REMARK    5  A    between atoms: C_16  and  C_20
REMARK    6  A    between atoms: C_21  and  C_22
REMARK                            x       y       z     vdW  Elec       q    Type
REMARK                         _______ _______ _______ _____ _____    ______ ____
ROOT
ATOM      1  S   UNL     1      -4.872  -9.464  10.153  0.00  0.00    +0.000 S 
ATOM      2  N   UNL     1      -6.546  -9.569  12.097  0.00  0.00    +0.000 N 
ATOM      3  N   UNL     1      -4.562 -10.280  12.823  0.00  0.00    +0.000 NA
ATOM      4  C   UNL     1      -5.504 -10.333  13.847  0.00  0.00    +0.000 A 
ATOM      5  C   UNL     1      -6.762  -9.901  13.409  0.00  0.00    +0.000 A 
ATOM      6  C   UNL     1      -5.235  -9.812  11.814  0.00  0.00    +0.000 A 
ATOM      7  C   UNL     1      -7.302  -9.118  11.033  0.00  0.00    +0.000 A 
ATOM      8  C   UNL     1      -6.565  -9.004   9.914  0.00  0.00    +0.000 A 
ENDROOT
BRANCH   4   9
ATOM      9  C   UNL     1      -5.137 -10.799  15.182  0.00  0.00    +0.000 A 
ATOM     10  C   UNL     1      -4.750 -12.122  15.436  0.00  0.00    +0.000 A 
ATOM     11  C   UNL     1      -5.197  -9.909  16.262  0.00  0.00    +0.000 A 
ATOM     12  C   UNL     1      -4.406 -11.630  17.787  0.00  0.00    +0.000 A 
ATOM     13  C   UNL     1      -4.370 -12.528  16.719  0.00  0.00    +0.000 A 
ATOM     14  C   UNL     1      -4.840 -10.320  17.553  0.00  0.00    +0.000 A 
ATOM     15  C   UNL     1      -4.052 -12.079  19.173  0.00  0.00    +0.000 C 
ENDBRANCH   4   9
BRANCH   5  17
ATOM     16  N   UNL     1      -8.633 -10.917  14.418  0.00  0.00    +0.000 NA
ATOM     17  C   UNL     1      -8.037  -9.832  14.055  0.00  0.00    +0.000 C 
BRANCH  16  18
ATOM     18  O   UNL     1      -9.833 -10.615  15.069  0.00  0.00    +0.000 OA
BRANCH  18  19
ATOM     19  C   UNL     1     -10.179 -11.743  15.879  0.00  0.00    +0.000 C 
BRANCH  19  22
ATOM     20 CL   UNL     1     -10.765  -9.633  18.149  0.00  0.00    +0.000 Cl
ATOM     21  F   UNL     1      -8.187 -13.661  16.323  0.00  0.00    +0.000 F 
ATOM     22  C   UNL     1      -9.360 -11.765  17.137  0.00  0.00    +0.000 A 
ATOM     23  C   UNL     1      -9.555 -10.869  18.197  0.00  0.00    +0.000 A 
ATOM     24  C   UNL     1      -8.391 -12.761  17.297  0.00  0.00    +0.000 A 
ATOM     25  C   UNL     1      -8.784 -10.961  19.363  0.00  0.00    +0.000 A 
ATOM     26  C   UNL     1      -7.626 -12.867  18.457  0.00  0.00    +0.000 A 
ATOM     27  C   UNL     1      -7.820 -11.960  19.493  0.00  0.00    +0.000 A 
ENDBRANCH  19  22
ENDBRANCH  18  19
ENDBRANCH  16  18
ENDBRANCH   5  17
TORSDOF 5
ENDMDL
MODEL 3
REMARK VINA RESULT:      -5.1     28.298     29.971
REMARK  Name = 5929121
REMARK  6 active torsions:
REMARK  status: ('A' for Active; 'I' for Inactive)
REMARK    1  A    between atoms: O_4  and  N_7
REMARK    2  A    between atoms: O_4  and  C_22
REMARK    3  A    between atoms: C_8  and  C_10
REMARK    4  A    between atoms: C_9  and  C_15
REMARK    5  A    between atoms: C_16  and  C_20
REMARK    6  A    between atoms: C_21  and  C_22
REMARK                            x       y       z     vdW  Elec       q    Type
REMARK                         _______ _______ _______ _____ _____    ______ ____
ROOT
ATOM      1  S   UNL     1      15.311  11.419  15.243  0.00  0.00    +0.000 S 
ATOM      2  N   UNL     1      14.541  11.829  17.657  0.00  0.00    +0.000 N 
ATOM      3  N   UNL     1      14.100   9.712  17.116  0.00  0.00    +0.000 NA
ATOM      4  C   UNL     1      13.686   9.980  18.418  0.00  0.00    +0.000 A 
ATOM      5  C   UNL     1      13.943  11.310  18.775  0.00  0.00    +0.000 A 
ATOM      6  C   UNL     1      14.607  10.842  16.719  0.00  0.00    +0.000 A 
ATOM      7  C   UNL     1      15.026  13.057  17.251  0.00  0.00    +0.000 A 
ATOM      8  C   UNL     1      15.477  13.018  15.984  0.00  0.00    +0.000 A 
ENDROOT
BRANCH   4   9
ATOM      9  C   UNL     1      13.064   8.941  19.237  0.00  0.00    +0.000 A 
ATOM     10  C   UNL     1      13.781   7.842  19.729  0.00  0.00    +0.000 A 
ATOM     11  C   UNL     1      11.696   9.021  19.526  0.00  0.00    +0.000 A 
ATOM     12  C   UNL     1      11.806   6.983  20.846  0.00  0.00    +0.000 A 
ATOM     13  C   UNL     1      13.165   6.884  20.540  0.00  0.00    +0.000 A 
ATOM     14  C   UNL     1      11.071   8.050  20.318  0.00  0.00    +0.000 A 
ATOM     15  C   UNL     1      11.133   5.927  21.671  0.00  0.00    +0.000 C 
ENDBRANCH   4   9
BRANCH   5  17
ATOM     16  N   UNL     1      14.340  11.873  21.027  0.00  0.00    +0.000 NA
ATOM     17  C   UNL     1      13.651  12.066  19.954  0.00  0.00    +0.000 C 
BRANCH  16  18
ATOM     18  O   UNL     1      13.921  12.748  22.035  0.00  0.00    +0.000 OA
BRANCH  18  19
ATOM     19  C   UNL     1      12.526  12.997  21.834  0.00  0.00    +0.000 C 
BRANCH  19  22
ATOM     20 CL   UNL     1      11.363  10.431  23.252  0.00  0.00    +0.000 Cl
ATOM     21  F   UNL     1      12.269  15.468  23.127  0.00  0.00    +0.000 F 
ATOM     22  C   UNL     1      11.817  13.138  23.149  0.00  0.00    +0.000 A 
ATOM     23  C   UNL     1      11.274  12.052  23.850  0.00  0.00    +0.000 A 
ATOM     24  C   UNL     1      11.738  14.402  23.745  0.00  0.00    +0.000 A 
ATOM     25  C   UNL     1      10.655  12.240  25.093  0.00  0.00    +0.000 A 
ATOM     26  C   UNL     1      11.133  14.596  24.985  0.00  0.00    +0.000 A 
ATOM     27  C   UNL     1      10.585  13.512  25.660  0.00  0.00    +0.000 A 
ENDBRANCH  19  22
ENDBRANCH  18  19
ENDBRANCH  16  18
ENDBRANCH   5  17
TORSDOF 5
ENDMDL
MODEL 4
REMARK VINA RESULT:      -5.0      6.854      9.700
REMARK  Name = 5929121
REMARK  6 active torsions:
REMARK  status: ('A' for Active; 'I' for Inactive)
REMARK    1  A    between atoms: O_4  and  N_7
REMARK    2  A    between atoms: O_4  and  C_22
REMARK    3  A    between atoms: C_8  and  C_10
REMARK    4  A    between atoms: C_9  and  C_15
REMARK    5  A    between atoms: C_16  and  C_20
REMARK    6  A    between atoms: C_21  and  C_22
REMARK                            x       y       z     vdW  Elec       q    Type
REMARK                         _______ _______ _______ _____ _____    ______ ____
ROOT
ATOM      1  S   UNL     1      -4.806 -10.498  17.293  0.00  0.00    +0.000 S 
ATOM      2  N   UNL     1      -7.126 -11.085  18.224  0.00  0.00    +0.000 N 
ATOM      3  N   UNL     1      -7.337  -9.389  16.793  0.00  0.00    +0.000 NA
ATOM      4  C   UNL     1      -8.575  -9.732  17.331  0.00  0.00    +0.000 A 
ATOM      5  C   UNL     1      -8.463 -10.788  18.243  0.00  0.00    +0.000 A 
ATOM      6  C   UNL     1      -6.519 -10.230  17.353  0.00  0.00    +0.000 A 
ATOM      7  C   UNL     1      -6.277 -11.960  18.873  0.00  0.00    +0.000 A 
ATOM      8  C   UNL     1      -4.999 -11.784  18.495  0.00  0.00    +0.000 A 
ENDROOT
BRANCH   4   9
ATOM      9  C   UNL     1      -9.789  -9.018  16.938  0.00  0.00    +0.000 A 
ATOM     10  C   UNL     1      -9.984  -7.659  17.216  0.00  0.00    +0.000 A 
ATOM     11  C   UNL     1     -10.814  -9.713  16.284  0.00  0.00    +0.000 A 
ATOM     12  C   UNL     1     -12.149  -7.687  16.120  0.00  0.00    +0.000 A 
ATOM     13  C   UNL     1     -11.141  -6.996  16.795  0.00  0.00    +0.000 A 
ATOM     14  C   UNL     1     -11.984  -9.057  15.883  0.00  0.00    +0.000 A 
ATOM     15  C   UNL     1     -13.413  -6.990  15.717  0.00  0.00    +0.000 C 
ENDBRANCH   4   9
BRANCH   5  17
ATOM     16  N   UNL     1     -10.046 -10.768  19.987  0.00  0.00    +0.000 NA
ATOM     17  C   UNL     1      -9.419 -11.442  19.084  0.00  0.00    +0.000 C 
BRANCH  16  18
ATOM     18  O   UNL     1     -10.961 -11.589  20.655  0.00  0.00    +0.000 OA
BRANCH  18  19
ATOM     19  C   UNL     1     -12.074 -11.793  19.779  0.00  0.00    +0.000 C 
BRANCH  19  22
ATOM     20 CL   UNL     1     -13.678 -13.325  22.023  0.00  0.00    +0.000 Cl
ATOM     21  F   UNL     1     -12.986  -9.270  18.976  0.00  0.00    +0.000 F 
ATOM     22  C   UNL     1     -13.319 -11.176  20.350  0.00  0.00    +0.000 A 
ATOM     23  C   UNL     1     -14.088 -11.784  21.351  0.00  0.00    +0.000 A 
ATOM     24  C   UNL     1     -13.707  -9.905  19.912  0.00  0.00    +0.000 A 
ATOM     25  C   UNL     1     -15.220 -11.143  21.872  0.00  0.00    +0.000 A 
ATOM     26  C   UNL     1     -14.826  -9.256  20.431  0.00  0.00    +0.000 A 
ATOM     27  C   UNL     1     -15.589  -9.880  21.412  0.00  0.00    +0.000 A 
ENDBRANCH  19  22
ENDBRANCH  18  19
ENDBRANCH  16  18
ENDBRANCH   5  17
TORSDOF 5
ENDMDL
MODEL 5
REMARK VINA RESULT:      -5.0     14.351     16.981
REMARK  Name = 5929121
REMARK  6 active torsions:
REMARK  status: ('A' for Active; 'I' for Inactive)
REMARK    1  A    between atoms: O_4  and  N_7
REMARK    2  A    between atoms: O_4  and  C_22
REMARK    3  A    between atoms: C_8  and  C_10
REMARK    4  A    between atoms: C_9  and  C_15
REMARK    5  A    between atoms: C_16  and  C_20
REMARK    6  A    between atoms: C_21  and  C_22
REMARK                            x       y       z     vdW  Elec       q    Type
REMARK                         _______ _______ _______ _____ _____    ______ ____
ROOT
ATOM      1  S   UNL     1      -2.370 -14.303   3.665  0.00  0.00    +0.000 S 
ATOM      2  N   UNL     1      -1.375 -14.013   1.316  0.00  0.00    +0.000 N 
ATOM      3  N   UNL     1       0.121 -15.047   2.604  0.00  0.00    +0.000 NA
ATOM      4  C   UNL     1       0.628 -14.860   1.321  0.00  0.00    +0.000 A 
ATOM      5  C   UNL     1      -0.293 -14.200   0.497  0.00  0.00    +0.000 A 
ATOM      6  C   UNL     1      -1.071 -14.534   2.538  0.00  0.00    +0.000 A 
ATOM      7  C   UNL     1      -2.617 -13.415   1.226  0.00  0.00    +0.000 A 
ATOM      8  C   UNL     1      -3.284 -13.478   2.391  0.00  0.00    +0.000 A 
ENDROOT
BRANCH   4   9
ATOM      9  C   UNL     1       1.968 -15.323   0.967  0.00  0.00    +0.000 A 
ATOM     10  C   UNL     1       2.984 -14.447   0.562  0.00  0.00    +0.000 A 
ATOM     11  C   UNL     1       2.254 -16.694   1.003  0.00  0.00    +0.000 A 
ATOM     12  C   UNL     1       4.553 -16.282   0.328  0.00  0.00    +0.000 A 
ATOM     13  C   UNL     1       4.267 -14.917   0.265  0.00  0.00    +0.000 A 
ATOM     14  C   UNL     1       3.532 -17.170   0.682  0.00  0.00    +0.000 A 
ATOM     15  C   UNL     1       5.913 -16.792  -0.043  0.00  0.00    +0.000 C 
ENDBRANCH   4   9
BRANCH   5  17
ATOM     16  N   UNL     1       0.052 -14.564  -1.805  0.00  0.00    +0.000 NA
ATOM     17  C   UNL     1      -0.218 -13.735  -0.854  0.00  0.00    +0.000 C 
BRANCH  16  18
ATOM     18  O   UNL     1       0.025 -13.908  -3.040  0.00  0.00    +0.000 OA
BRANCH  18  19
ATOM     19  C   UNL     1       1.116 -12.982  -3.059  0.00  0.00    +0.000 C 
BRANCH  19  22
ATOM     20 CL   UNL     1       3.533 -14.927  -3.634  0.00  0.00    +0.000 Cl
ATOM     21  F   UNL     1       0.213 -11.328  -5.130  0.00  0.00    +0.000 F 
ATOM     22  C   UNL     1       1.774 -12.964  -4.408  0.00  0.00    +0.000 A 
ATOM     23  C   UNL     1       2.849 -13.796  -4.750  0.00  0.00    +0.000 A 
ATOM     24  C   UNL     1       1.261 -12.122  -5.400  0.00  0.00    +0.000 A 
ATOM     25  C   UNL     1       3.399 -13.760  -6.039  0.00  0.00    +0.000 A 
ATOM     26  C   UNL     1       1.795 -12.087  -6.687  0.00  0.00    +0.000 A 
ATOM     27  C   UNL     1       2.872 -12.906  -7.006  0.00  0.00    +0.000 A 
ENDBRANCH  19  22
ENDBRANCH  18  19
ENDBRANCH  16  18
ENDBRANCH   5  17
TORSDOF 5
ENDMDL
MODEL 6
REMARK VINA RESULT:      -4.9      2.863      5.194
REMARK  Name = 5929121
REMARK  6 active torsions:
REMARK  status: ('A' for Active; 'I' for Inactive)
REMARK    1  A    between atoms: O_4  and  N_7
REMARK    2  A    between atoms: O_4  and  C_22
REMARK    3  A    between atoms: C_8  and  C_10
REMARK    4  A    between atoms: C_9  and  C_15
REMARK    5  A    between atoms: C_16  and  C_20
REMARK    6  A    between atoms: C_21  and  C_22
REMARK                            x       y       z     vdW  Elec       q    Type
REMARK                         _______ _______ _______ _____ _____    ______ ____
ROOT
ATOM      1  S   UNL     1      -1.534 -11.032  15.354  0.00  0.00    +0.000 S 
ATOM      2  N   UNL     1      -3.883 -10.522  14.452  0.00  0.00    +0.000 N 
ATOM      3  N   UNL     1      -4.022 -10.875  16.648  0.00  0.00    +0.000 NA
ATOM      4  C   UNL     1      -5.280 -10.606  16.117  0.00  0.00    +0.000 A 
ATOM      5  C   UNL     1      -5.218 -10.393  14.734  0.00  0.00    +0.000 A 
ATOM      6  C   UNL     1      -3.234 -10.803  15.617  0.00  0.00    +0.000 A 
ATOM      7  C   UNL     1      -3.082 -10.487  13.328  0.00  0.00    +0.000 A 
ATOM      8  C   UNL     1      -1.795 -10.738  13.627  0.00  0.00    +0.000 A 
ENDROOT
BRANCH   4   9
ATOM      9  C   UNL     1      -6.466 -10.575  16.971  0.00  0.00    +0.000 A 
ATOM     10  C   UNL     1      -7.350  -9.488  16.990  0.00  0.00    +0.000 A 
ATOM     11  C   UNL     1      -6.725 -11.653  17.827  0.00  0.00    +0.000 A 
ATOM     12  C   UNL     1      -8.763 -10.594  18.624  0.00  0.00    +0.000 A 
ATOM     13  C   UNL     1      -8.496  -9.505  17.792  0.00  0.00    +0.000 A 
ATOM     14  C   UNL     1      -7.859 -11.661  18.649  0.00  0.00    +0.000 A 
ATOM     15  C   UNL     1      -9.962 -10.588  19.524  0.00  0.00    +0.000 C 
ENDBRANCH   4   9
BRANCH   5  17
ATOM     16  N   UNL     1      -6.561 -11.087  12.928  0.00  0.00    +0.000 NA
ATOM     17  C   UNL     1      -6.227 -10.150  13.748  0.00  0.00    +0.000 C 
BRANCH  16  18
ATOM     18  O   UNL     1      -7.593 -10.650  12.090  0.00  0.00    +0.000 OA
BRANCH  18  19
ATOM     19  C   UNL     1      -7.193  -9.394  11.535  0.00  0.00    +0.000 C 
BRANCH  19  22
ATOM     20 CL   UNL     1      -8.895 -10.519   9.129  0.00  0.00    +0.000 Cl
ATOM     21  F   UNL     1      -4.518  -8.707  11.070  0.00  0.00    +0.000 F 
ATOM     22  C   UNL     1      -6.541  -9.588  10.196  0.00  0.00    +0.000 A 
ATOM     23  C   UNL     1      -7.223 -10.077   9.073  0.00  0.00    +0.000 A 
ATOM     24  C   UNL     1      -5.204  -9.209  10.032  0.00  0.00    +0.000 A 
ATOM     25  C   UNL     1      -6.571 -10.202   7.839  0.00  0.00    +0.000 A 
ATOM     26  C   UNL     1      -4.551  -9.321   8.806  0.00  0.00    +0.000 A 
ATOM     27  C   UNL     1      -5.235  -9.824   7.706  0.00  0.00    +0.000 A 
ENDBRANCH  19  22
ENDBRANCH  18  19
ENDBRANCH  16  18
ENDBRANCH   5  17
TORSDOF 5
ENDMDL
MODEL 7
REMARK VINA RESULT:      -4.8     20.937     21.368
REMARK  Name = 5929121
REMARK  6 active torsions:
REMARK  status: ('A' for Active; 'I' for Inactive)
REMARK    1  A    between atoms: O_4  and  N_7
REMARK    2  A    between atoms: O_4  and  C_22
REMARK    3  A    between atoms: C_8  and  C_10
REMARK    4  A    between atoms: C_9  and  C_15
REMARK    5  A    between atoms: C_16  and  C_20
REMARK    6  A    between atoms: C_21  and  C_22
REMARK                            x       y       z     vdW  Elec       q    Type
REMARK                         _______ _______ _______ _____ _____    ______ ____
ROOT
ATOM      1  S   UNL     1     -16.736   3.326  23.820  0.00  0.00    +0.000 S 
ATOM      2  N   UNL     1     -15.522   5.072  22.382  0.00  0.00    +0.000 N 
ATOM      3  N   UNL     1     -17.354   4.405  21.302  0.00  0.00    +0.000 NA
ATOM      4  C   UNL     1     -16.658   5.347  20.548  0.00  0.00    +0.000 A 
ATOM      5  C   UNL     1     -15.496   5.771  21.204  0.00  0.00    +0.000 A 
ATOM      6  C   UNL     1     -16.638   4.290  22.381  0.00  0.00    +0.000 A 
ATOM      7  C   UNL     1     -14.713   4.937  23.493  0.00  0.00    +0.000 A 
ATOM      8  C   UNL     1     -15.211   4.043  24.365  0.00  0.00    +0.000 A 
ENDROOT
BRANCH   4   9
ATOM      9  C   UNL     1     -17.151   5.777  19.241  0.00  0.00    +0.000 A 
ATOM     10  C   UNL     1     -17.420   7.119  18.944  0.00  0.00    +0.000 A 
ATOM     11  C   UNL     1     -17.395   4.819  18.249  0.00  0.00    +0.000 A 
ATOM     12  C   UNL     1     -18.074   6.546  16.679  0.00  0.00    +0.000 A 
ATOM     13  C   UNL     1     -17.857   7.503  17.672  0.00  0.00    +0.000 A 
ATOM     14  C   UNL     1     -17.857   5.198  16.982  0.00  0.00    +0.000 A 
ATOM     15  C   UNL     1     -18.594   6.951  15.332  0.00  0.00    +0.000 C 
ENDBRANCH   4   9
BRANCH   5  17
ATOM     16  N   UNL     1     -14.555   7.925  21.044  0.00  0.00    +0.000 NA
ATOM     17  C   UNL     1     -14.441   6.660  20.821  0.00  0.00    +0.000 C 
BRANCH  16  18
ATOM     18  O   UNL     1     -13.395   8.594  20.637  0.00  0.00    +0.000 OA
BRANCH  18  19
ATOM     19  C   UNL     1     -12.604   7.665  19.890  0.00  0.00    +0.000 C 
BRANCH  19  22
ATOM     20 CL   UNL     1     -14.268   7.972  17.228  0.00  0.00    +0.000 Cl
ATOM     21  F   UNL     1     -10.019   8.740  19.978  0.00  0.00    +0.000 F 
ATOM     22  C   UNL     1     -11.979   8.336  18.701  0.00  0.00    +0.000 A 
ATOM     23  C   UNL     1     -12.647   8.519  17.482  0.00  0.00    +0.000 A 
ATOM     24  C   UNL     1     -10.688   8.863  18.821  0.00  0.00    +0.000 A 
ATOM     25  C   UNL     1     -12.025   9.186  16.419  0.00  0.00    +0.000 A 
ATOM     26  C   UNL     1     -10.066   9.537  17.772  0.00  0.00    +0.000 A 
ATOM     27  C   UNL     1     -10.735   9.695  16.564  0.00  0.00    +0.000 A 
ENDBRANCH  19  22
ENDBRANCH  18  19
ENDBRANCH  16  18
ENDBRANCH   5  17
TORSDOF 5
ENDMDL
MODEL 8
REMARK VINA RESULT:      -4.8     24.164     26.573
REMARK  Name = 5929121
REMARK  6 active torsions:
REMARK  status: ('A' for Active; 'I' for Inactive)
REMARK    1  A    between atoms: O_4  and  N_7
REMARK    2  A    between atoms: O_4  and  C_22
REMARK    3  A    between atoms: C_8  and  C_10
REMARK    4  A    between atoms: C_9  and  C_15
REMARK    5  A    between atoms: C_16  and  C_20
REMARK    6  A    between atoms: C_21  and  C_22
REMARK                            x       y       z     vdW  Elec       q    Type
REMARK                         _______ _______ _______ _____ _____    ______ ____
ROOT
ATOM      1  S   UNL     1       8.692   6.994   5.798  0.00  0.00    +0.000 S 
ATOM      2  N   UNL     1      10.073   5.489   4.242  0.00  0.00    +0.000 N 
ATOM      3  N   UNL     1       9.130   7.102   3.026  0.00  0.00    +0.000 NA
ATOM      4  C   UNL     1       9.881   6.254   2.215  0.00  0.00    +0.000 A 
ATOM      5  C   UNL     1      10.473   5.225   2.958  0.00  0.00    +0.000 A 
ATOM      6  C   UNL     1       9.289   6.604   4.216  0.00  0.00    +0.000 A 
ATOM      7  C   UNL     1      10.222   4.906   5.485  0.00  0.00    +0.000 A 
ATOM      8  C   UNL     1       9.549   5.581   6.434  0.00  0.00    +0.000 A 
ENDROOT
BRANCH   4   9
ATOM      9  C   UNL     1       9.979   6.483   0.775  0.00  0.00    +0.000 A 
ATOM     10  C   UNL     1       9.824   5.453  -0.162  0.00  0.00    +0.000 A 
ATOM     11  C   UNL     1      10.264   7.770   0.301  0.00  0.00    +0.000 A 
ATOM     12  C   UNL     1      10.147   7.001  -2.002  0.00  0.00    +0.000 A 
ATOM     13  C   UNL     1       9.888   5.711  -1.535  0.00  0.00    +0.000 A 
ATOM     14  C   UNL     1      10.352   8.027  -1.073  0.00  0.00    +0.000 A 
ATOM     15  C   UNL     1      10.269   7.268  -3.472  0.00  0.00    +0.000 C 
ENDBRANCH   4   9
BRANCH   5  17
ATOM     16  N   UNL     1      12.441   4.277   2.076  0.00  0.00    +0.000 NA
ATOM     17  C   UNL     1      11.267   4.096   2.581  0.00  0.00    +0.000 C 
BRANCH  16  18
ATOM     18  O   UNL     1      13.055   3.044   1.829  0.00  0.00    +0.000 OA
BRANCH  18  19
ATOM     19  C   UNL     1      14.264   3.304   1.109  0.00  0.00    +0.000 C 
BRANCH  19  22
ATOM     20 CL   UNL     1      15.399   6.240   0.903  0.00  0.00    +0.000 Cl
ATOM     21  F   UNL     1      12.829   2.273  -1.064  0.00  0.00    +0.000 F 
ATOM     22  C   UNL     1      13.985   4.120  -0.120  0.00  0.00    +0.000 A 
ATOM     23  C   UNL     1      14.453   5.428  -0.297  0.00  0.00    +0.000 A 
ATOM     24  C   UNL     1      13.273   3.535  -1.174  0.00  0.00    +0.000 A 
ATOM     25  C   UNL     1      14.192   6.127  -1.483  0.00  0.00    +0.000 A 
ATOM     26  C   UNL     1      13.017   4.219  -2.360  0.00  0.00    +0.000 A 
ATOM     27  C   UNL     1      13.474   5.523  -2.514  0.00  0.00    +0.000 A 
ENDBRANCH  19  22
ENDBRANCH  18  19
ENDBRANCH  16  18
ENDBRANCH   5  17
TORSDOF 5
ENDMDL
MODEL 9
REMARK VINA RESULT:      -4.7      3.972      6.965
REMARK  Name = 5929121
REMARK  6 active torsions:
REMARK  status: ('A' for Active; 'I' for Inactive)
REMARK    1  A    between atoms: O_4  and  N_7
REMARK    2  A    between atoms: O_4  and  C_22
REMARK    3  A    between atoms: C_8  and  C_10
REMARK    4  A    between atoms: C_9  and  C_15
REMARK    5  A    between atoms: C_16  and  C_20
REMARK    6  A    between atoms: C_21  and  C_22
REMARK                            x       y       z     vdW  Elec       q    Type
REMARK                         _______ _______ _______ _____ _____    ______ ____
ROOT
ATOM      1  S   UNL     1      -7.982  -8.589   7.444  0.00  0.00    +0.000 S 
ATOM      2  N   UNL     1      -7.937  -9.048   9.969  0.00  0.00    +0.000 N 
ATOM      3  N   UNL     1      -6.011  -9.736   9.083  0.00  0.00    +0.000 NA
ATOM      4  C   UNL     1      -6.032  -9.979  10.454  0.00  0.00    +0.000 A 
ATOM      5  C   UNL     1      -7.240  -9.565  11.030  0.00  0.00    +0.000 A 
ATOM      6  C   UNL     1      -7.162  -9.176   8.855  0.00  0.00    +0.000 A 
ATOM      7  C   UNL     1      -9.187  -8.502   9.754  0.00  0.00    +0.000 A 
ATOM      8  C   UNL     1      -9.380  -8.197   8.458  0.00  0.00    +0.000 A 
ENDROOT
BRANCH   4   9
ATOM      9  C   UNL     1      -4.891 -10.599  11.125  0.00  0.00    +0.000 A 
ATOM     10  C   UNL     1      -3.679  -9.925  11.322  0.00  0.00    +0.000 A 
ATOM     11  C   UNL     1      -4.991 -11.924  11.567  0.00  0.00    +0.000 A 
ATOM     12  C   UNL     1      -2.732 -11.847  12.462  0.00  0.00    +0.000 A 
ATOM     13  C   UNL     1      -2.618 -10.534  12.000  0.00  0.00    +0.000 A 
ATOM     14  C   UNL     1      -3.921 -12.544  12.225  0.00  0.00    +0.000 A 
ATOM     15  C   UNL     1      -1.576 -12.518  13.140  0.00  0.00    +0.000 C 
ENDBRANCH   4   9
BRANCH   5  17
ATOM     16  N   UNL     1      -7.935 -10.812  12.903  0.00  0.00    +0.000 NA
ATOM     17  C   UNL     1      -7.755  -9.655  12.362  0.00  0.00    +0.000 C 
BRANCH  16  18
ATOM     18  O   UNL     1      -8.395 -10.665  14.216  0.00  0.00    +0.000 OA
BRANCH  18  19
ATOM     19  C   UNL     1      -7.766  -9.503  14.764  0.00  0.00    +0.000 C 
BRANCH  19  22
ATOM     20 CL   UNL     1      -9.079  -9.655  17.628  0.00  0.00    +0.000 Cl
ATOM     21  F   UNL     1      -5.051 -10.140  14.506  0.00  0.00    +0.000 F 
ATOM     22  C   UNL     1      -6.917  -9.867  15.948  0.00  0.00    +0.000 A 
ATOM     23  C   UNL     1      -7.419  -9.962  17.253  0.00  0.00    +0.000 A 
ATOM     24  C   UNL     1      -5.570 -10.187  15.742  0.00  0.00    +0.000 A 
ATOM     25  C   UNL     1      -6.585 -10.343  18.313  0.00  0.00    +0.000 A 
ATOM     26  C   UNL     1      -4.737 -10.576  16.790  0.00  0.00    +0.000 A 
ATOM     27  C   UNL     1      -5.245 -10.650  18.081  0.00  0.00    +0.000 A 
ENDBRANCH  19  22
ENDBRANCH  18  19
ENDBRANCH  16  18
ENDBRANCH   5  17
TORSDOF 5
ENDMDL
MODEL 10
REMARK VINA RESULT:      -4.7      4.447      7.618
REMARK  Name = 5929121
REMARK  6 active torsions:
REMARK  status: ('A' for Active; 'I' for Inactive)
REMARK    1  A    between atoms: O_4  and  N_7
REMARK    2  A    between atoms: O_4  and  C_22
REMARK    3  A    between atoms: C_8  and  C_10
REMARK    4  A    between atoms: C_9  and  C_15
REMARK    5  A    between atoms: C_16  and  C_20
REMARK    6  A    between atoms: C_21  and  C_22
REMARK                            x       y       z     vdW  Elec       q    Type
REMARK                         _______ _______ _______ _____ _____    ______ ____
ROOT
ATOM      1  S   UNL     1      -3.156 -13.029  11.437  0.00  0.00    +0.000 S 
ATOM      2  N   UNL     1      -4.949 -11.452  12.381  0.00  0.00    +0.000 N 
ATOM      3  N   UNL     1      -4.017 -12.568  14.070  0.00  0.00    +0.000 NA
ATOM      4  C   UNL     1      -5.005 -11.707  14.540  0.00  0.00    +0.000 A 
ATOM      5  C   UNL     1      -5.613 -11.004  13.492  0.00  0.00    +0.000 A 
ATOM      6  C   UNL     1      -4.023 -12.366  12.786  0.00  0.00    +0.000 A 
ATOM      7  C   UNL     1      -5.015 -11.250  11.016  0.00  0.00    +0.000 A 
ATOM      8  C   UNL     1      -4.126 -12.014  10.357  0.00  0.00    +0.000 A 
ENDROOT
BRANCH   4   9
ATOM      9  C   UNL     1      -5.308 -11.618  15.967  0.00  0.00    +0.000 A 
ATOM     10  C   UNL     1      -6.243 -12.455  16.591  0.00  0.00    +0.000 A 
ATOM     11  C   UNL     1      -4.668 -10.645  16.746  0.00  0.00    +0.000 A 
ATOM     12  C   UNL     1      -5.823 -11.415  18.742  0.00  0.00    +0.000 A 
ATOM     13  C   UNL     1      -6.484 -12.368  17.965  0.00  0.00    +0.000 A 
ATOM     14  C   UNL     1      -4.926 -10.541  18.119  0.00  0.00    +0.000 A 
ATOM     15  C   UNL     1      -6.122 -11.285  20.206  0.00  0.00    +0.000 C 
ENDBRANCH   4   9
BRANCH   5  17
ATOM     16  N   UNL     1      -7.879 -10.473  13.128  0.00  0.00    +0.000 NA
ATOM     17  C   UNL     1      -6.698 -10.071  13.457  0.00  0.00    +0.000 C 
BRANCH  16  18
ATOM     18  O   UNL     1      -8.789  -9.414  13.209  0.00  0.00    +0.000 OA
BRANCH  18  19
ATOM     19  C   UNL     1      -9.894  -9.856  14.003  0.00  0.00    +0.000 C 
BRANCH  19  22
ATOM     20 CL   UNL     1      -8.336  -9.439  16.714  0.00  0.00    +0.000 Cl
ATOM     21  F   UNL     1     -12.015  -8.128  13.405  0.00  0.00    +0.000 F 
ATOM     22  C   UNL     1     -10.333  -8.777  14.950  0.00  0.00    +0.000 A 
ATOM     23  C   UNL     1      -9.697  -8.519  16.171  0.00  0.00    +0.000 A 
ATOM     24  C   UNL     1     -11.393  -7.941  14.579  0.00  0.00    +0.000 A 
ATOM     25  C   UNL     1     -10.129  -7.473  16.997  0.00  0.00    +0.000 A 
ATOM     26  C   UNL     1     -11.823  -6.892  15.389  0.00  0.00    +0.000 A 
ATOM     27  C   UNL     1     -11.192  -6.660  16.606  0.00  0.00    +0.000 A 
ENDBRANCH  19  22
ENDBRANCH  18  19
ENDBRANCH  16  18
ENDBRANCH   5  17
TORSDOF 5
ENDMDL
