MODEL 1
REMARK VINA RESULT:      -5.6      0.000      0.000
REMARK  Name = 5930771
REMARK  7 active torsions:
REMARK  status: ('A' for Active; 'I' for Inactive)
REMARK    1  A    between atoms: S_3  and  C_10
REMARK    2  A    between atoms: S_3  and  C_13
REMARK    3  A    between atoms: O_5  and  N_8
REMARK    4  A    between atoms: O_5  and  C_20
REMARK    5  A    between atoms: C_9  and  C_15
REMARK    6  A    between atoms: C_13  and  C_14
REMARK    7  A    between atoms: C_17  and  C_20
REMARK                            x       y       z     vdW  Elec       q    Type
REMARK                         _______ _______ _______ _____ _____    ______ ____
ROOT
ATOM      1  S   UNL     1      15.182  13.324  14.942  0.00  0.00    +0.000 S 
ATOM      2  N   UNL     1      14.137  12.551  17.155  0.00  0.00    +0.000 N 
ATOM      3  N   UNL     1      14.951  10.762  16.083  0.00  0.00    +0.000 NA
ATOM      4  C   UNL     1      13.866  11.492  17.978  0.00  0.00    +0.000 A 
ATOM      5  C   UNL     1      14.347  10.391  17.271  0.00  0.00    +0.000 A 
ATOM      6  C   UNL     1      14.796  12.058  16.068  0.00  0.00    +0.000 A 
ATOM      7  C   UNL     1      13.894  13.910  17.132  0.00  0.00    +0.000 A 
ATOM      8  C   UNL     1      14.380  14.485  16.017  0.00  0.00    +0.000 A 
ENDROOT
BRANCH   4  10
ATOM      9  N   UNL     1      13.964  11.306  20.324  0.00  0.00    +0.000 NA
ATOM     10  C   UNL     1      13.255  11.553  19.273  0.00  0.00    +0.000 C 
BRANCH   9  11
ATOM     11  O   UNL     1      13.140  11.301  21.466  0.00  0.00    +0.000 OA
BRANCH  11  12
ATOM     12  C   UNL     1      13.935  10.852  22.568  0.00  0.00    +0.000 C 
BRANCH  12  15
ATOM     13 CL   UNL     1      15.650   6.235  20.890  0.00  0.00    +0.000 Cl
ATOM     14 CL   UNL     1      18.660   7.471  20.893  0.00  0.00    +0.000 Cl
ATOM     15  C   UNL     1      15.094  10.012  22.092  0.00  0.00    +0.000 A 
ATOM     16  C   UNL     1      14.896   8.677  21.709  0.00  0.00    +0.000 A 
ATOM     17  C   UNL     1      16.395  10.534  22.079  0.00  0.00    +0.000 A 
ATOM     18  C   UNL     1      15.979   7.874  21.330  0.00  0.00    +0.000 A 
ATOM     19  C   UNL     1      17.478   9.735  21.701  0.00  0.00    +0.000 A 
ATOM     20  C   UNL     1      17.274   8.404  21.330  0.00  0.00    +0.000 A 
ENDBRANCH  12  15
ENDBRANCH  11  12
ENDBRANCH   9  11
ENDBRANCH   4  10
BRANCH   5  21
ATOM     21  S   UNL     1      14.210   8.722  17.784  0.00  0.00    +0.000 S 
BRANCH  21  22
ATOM     22  C   UNL     1      12.411   8.466  17.827  0.00  0.00    +0.000 C 
BRANCH  22  23
ATOM     23  C   UNL     1      11.958   7.978  19.188  0.00  0.00    +0.000 A 
ATOM     24  C   UNL     1      12.442   6.766  19.707  0.00  0.00    +0.000 A 
ATOM     25  C   UNL     1      11.030   8.708  19.947  0.00  0.00    +0.000 A 
ATOM     26  C   UNL     1      12.019   6.304  20.958  0.00  0.00    +0.000 A 
ATOM     27  C   UNL     1      10.610   8.246  21.199  0.00  0.00    +0.000 A 
ATOM     28  C   UNL     1      11.105   7.045  21.703  0.00  0.00    +0.000 A 
ENDBRANCH  22  23
ENDBRANCH  21  22
ENDBRANCH   5  21
TORSDOF 7
ENDMDL
MODEL 2
REMARK VINA RESULT:      -5.5     29.316     32.206
REMARK  Name = 5930771
REMARK  7 active torsions:
REMARK  status: ('A' for Active; 'I' for Inactive)
REMARK    1  A    between atoms: S_3  and  C_10
REMARK    2  A    between atoms: S_3  and  C_13
REMARK    3  A    between atoms: O_5  and  N_8
REMARK    4  A    between atoms: O_5  and  C_20
REMARK    5  A    between atoms: C_9  and  C_15
REMARK    6  A    between atoms: C_13  and  C_14
REMARK    7  A    between atoms: C_17  and  C_20
REMARK                            x       y       z     vdW  Elec       q    Type
REMARK                         _______ _______ _______ _____ _____    ______ ____
ROOT
ATOM      1  S   UNL     1     -20.750   2.365  21.161  0.00  0.00    +0.000 S 
ATOM      2  N   UNL     1     -19.099   2.019  23.095  0.00  0.00    +0.000 N 
ATOM      3  N   UNL     1     -18.344   3.681  21.798  0.00  0.00    +0.000 NA
ATOM      4  C   UNL     1     -17.934   2.430  23.686  0.00  0.00    +0.000 A 
ATOM      5  C   UNL     1     -17.469   3.434  22.839  0.00  0.00    +0.000 A 
ATOM      6  C   UNL     1     -19.295   2.809  22.002  0.00  0.00    +0.000 A 
ATOM      7  C   UNL     1     -20.051   1.040  23.295  0.00  0.00    +0.000 A 
ATOM      8  C   UNL     1     -21.008   1.075  22.350  0.00  0.00    +0.000 A 
ENDROOT
BRANCH   4  10
ATOM      9  N   UNL     1     -17.603   2.564  26.014  0.00  0.00    +0.000 NA
ATOM     10  C   UNL     1     -17.378   1.932  24.910  0.00  0.00    +0.000 C 
BRANCH   9  11
ATOM     11  O   UNL     1     -16.866   1.976  27.060  0.00  0.00    +0.000 OA
BRANCH  11  12
ATOM     12  C   UNL     1     -15.972   2.970  27.569  0.00  0.00    +0.000 C 
BRANCH  12  15
ATOM     13 CL   UNL     1     -15.100  -0.558  31.292  0.00  0.00    +0.000 Cl
ATOM     14 CL   UNL     1     -14.744   1.902  33.393  0.00  0.00    +0.000 Cl
ATOM     15  C   UNL     1     -15.609   2.687  29.005  0.00  0.00    +0.000 A 
ATOM     16  C   UNL     1     -15.488   1.366  29.462  0.00  0.00    +0.000 A 
ATOM     17  C   UNL     1     -15.444   3.737  29.919  0.00  0.00    +0.000 A 
ATOM     18  C   UNL     1     -15.215   1.098  30.810  0.00  0.00    +0.000 A 
ATOM     19  C   UNL     1     -15.172   3.472  31.265  0.00  0.00    +0.000 A 
ATOM     20  C   UNL     1     -15.061   2.154  31.714  0.00  0.00    +0.000 A 
ENDBRANCH  12  15
ENDBRANCH  11  12
ENDBRANCH   9  11
ENDBRANCH   4  10
BRANCH   5  21
ATOM     21  S   UNL     1     -15.955   4.295  23.030  0.00  0.00    +0.000 S 
BRANCH  21  22
ATOM     22  C   UNL     1     -16.066   5.581  21.750  0.00  0.00    +0.000 C 
BRANCH  22  23
ATOM     23  C   UNL     1     -14.690   6.076  21.350  0.00  0.00    +0.000 A 
ATOM     24  C   UNL     1     -13.536   5.481  21.885  0.00  0.00    +0.000 A 
ATOM     25  C   UNL     1     -14.538   7.153  20.462  0.00  0.00    +0.000 A 
ATOM     26  C   UNL     1     -12.264   5.942  21.528  0.00  0.00    +0.000 A 
ATOM     27  C   UNL     1     -13.266   7.611  20.105  0.00  0.00    +0.000 A 
ATOM     28  C   UNL     1     -12.130   7.005  20.638  0.00  0.00    +0.000 A 
ENDBRANCH  22  23
ENDBRANCH  21  22
ENDBRANCH   5  21
TORSDOF 7
ENDMDL
MODEL 3
REMARK VINA RESULT:      -5.4     11.032     12.389
REMARK  Name = 5930771
REMARK  7 active torsions:
REMARK  status: ('A' for Active; 'I' for Inactive)
REMARK    1  A    between atoms: S_3  and  C_10
REMARK    2  A    between atoms: S_3  and  C_13
REMARK    3  A    between atoms: O_5  and  N_8
REMARK    4  A    between atoms: O_5  and  C_20
REMARK    5  A    between atoms: C_9  and  C_15
REMARK    6  A    between atoms: C_13  and  C_14
REMARK    7  A    between atoms: C_17  and  C_20
REMARK                            x       y       z     vdW  Elec       q    Type
REMARK                         _______ _______ _______ _____ _____    ______ ____
ROOT
ATOM      1  S   UNL     1       7.082  17.172  15.249  0.00  0.00    +0.000 S 
ATOM      2  N   UNL     1       6.477  16.292  17.583  0.00  0.00    +0.000 N 
ATOM      3  N   UNL     1       4.709  16.022  16.236  0.00  0.00    +0.000 NA
ATOM      4  C   UNL     1       5.518  15.711  18.369  0.00  0.00    +0.000 A 
ATOM      5  C   UNL     1       4.421  15.591  17.518  0.00  0.00    +0.000 A 
ATOM      6  C   UNL     1       5.947  16.428  16.335  0.00  0.00    +0.000 A 
ATOM      7  C   UNL     1       7.759  16.779  17.736  0.00  0.00    +0.000 A 
ATOM      8  C   UNL     1       8.238  17.292  16.588  0.00  0.00    +0.000 A 
ENDROOT
BRANCH   4  10
ATOM      9  N   UNL     1       6.841  15.292  20.271  0.00  0.00    +0.000 NA
ATOM     10  C   UNL     1       5.666  15.309  19.736  0.00  0.00    +0.000 C 
BRANCH   9  11
ATOM     11  O   UNL     1       6.769  14.752  21.570  0.00  0.00    +0.000 OA
BRANCH  11  12
ATOM     12  C   UNL     1       7.173  15.773  22.485  0.00  0.00    +0.000 C 
BRANCH  12  15
ATOM     13 CL   UNL     1       5.312  19.400  25.718  0.00  0.00    +0.000 Cl
ATOM     14 CL   UNL     1       2.409  17.945  25.511  0.00  0.00    +0.000 Cl
ATOM     15  C   UNL     1       5.983  16.362  23.201  0.00  0.00    +0.000 A 
ATOM     16  C   UNL     1       6.130  17.498  24.011  0.00  0.00    +0.000 A 
ATOM     17  C   UNL     1       4.725  15.751  23.113  0.00  0.00    +0.000 A 
ATOM     18  C   UNL     1       5.041  18.009  24.730  0.00  0.00    +0.000 A 
ATOM     19  C   UNL     1       3.636  16.259  23.829  0.00  0.00    +0.000 A 
ATOM     20  C   UNL     1       3.792  17.385  24.641  0.00  0.00    +0.000 A 
ENDBRANCH  12  15
ENDBRANCH  11  12
ENDBRANCH   9  11
ENDBRANCH   4  10
BRANCH   5  21
ATOM     21  S   UNL     1       2.844  14.985  17.982  0.00  0.00    +0.000 S 
BRANCH  21  22
ATOM     22  C   UNL     1       2.052  16.452  18.706  0.00  0.00    +0.000 C 
BRANCH  22  23
ATOM     23  C   UNL     1       1.396  16.123  20.032  0.00  0.00    +0.000 A 
ATOM     24  C   UNL     1       1.122  14.790  20.379  0.00  0.00    +0.000 A 
ATOM     25  C   UNL     1       1.024  17.138  20.928  0.00  0.00    +0.000 A 
ATOM     26  C   UNL     1       0.506  14.481  21.596  0.00  0.00    +0.000 A 
ATOM     27  C   UNL     1       0.410  16.827  22.145  0.00  0.00    +0.000 A 
ATOM     28  C   UNL     1       0.152  15.498  22.479  0.00  0.00    +0.000 A 
ENDBRANCH  22  23
ENDBRANCH  21  22
ENDBRANCH   5  21
TORSDOF 7
ENDMDL
MODEL 4
REMARK VINA RESULT:      -5.2     28.664     30.597
REMARK  Name = 5930771
REMARK  7 active torsions:
REMARK  status: ('A' for Active; 'I' for Inactive)
REMARK    1  A    between atoms: S_3  and  C_10
REMARK    2  A    between atoms: S_3  and  C_13
REMARK    3  A    between atoms: O_5  and  N_8
REMARK    4  A    between atoms: O_5  and  C_20
REMARK    5  A    between atoms: C_9  and  C_15
REMARK    6  A    between atoms: C_13  and  C_14
REMARK    7  A    between atoms: C_17  and  C_20
REMARK                            x       y       z     vdW  Elec       q    Type
REMARK                         _______ _______ _______ _____ _____    ______ ____
ROOT
ATOM      1  S   UNL     1     -14.525  -8.038  15.876  0.00  0.00    +0.000 S 
ATOM      2  N   UNL     1     -12.371  -9.194  15.096  0.00  0.00    +0.000 N 
ATOM      3  N   UNL     1     -12.336  -9.046  17.330  0.00  0.00    +0.000 NA
ATOM      4  C   UNL     1     -11.190  -9.775  15.472  0.00  0.00    +0.000 A 
ATOM      5  C   UNL     1     -11.177  -9.634  16.858  0.00  0.00    +0.000 A 
ATOM      6  C   UNL     1     -13.009  -8.805  16.236  0.00  0.00    +0.000 A 
ATOM      7  C   UNL     1     -13.025  -8.887  13.920  0.00  0.00    +0.000 A 
ATOM      8  C   UNL     1     -14.194  -8.260  14.148  0.00  0.00    +0.000 A 
ENDROOT
BRANCH   4  10
ATOM      9  N   UNL     1      -9.257  -9.702  14.128  0.00  0.00    +0.000 NA
ATOM     10  C   UNL     1     -10.234 -10.399  14.605  0.00  0.00    +0.000 C 
BRANCH   9  11
ATOM     11  O   UNL     1      -8.519 -10.476  13.211  0.00  0.00    +0.000 OA
BRANCH  11  12
ATOM     12  C   UNL     1      -7.980  -9.584  12.231  0.00  0.00    +0.000 C 
BRANCH  12  15
ATOM     13 CL   UNL     1      -3.658  -8.881   9.421  0.00  0.00    +0.000 Cl
ATOM     14 CL   UNL     1      -2.014 -10.451  11.749  0.00  0.00    +0.000 Cl
ATOM     15  C   UNL     1      -6.483  -9.741  12.122  0.00  0.00    +0.000 A 
ATOM     16  C   UNL     1      -5.799  -9.272  10.991  0.00  0.00    +0.000 A 
ATOM     17  C   UNL     1      -5.761 -10.407  13.122  0.00  0.00    +0.000 A 
ATOM     18  C   UNL     1      -4.420  -9.474  10.854  0.00  0.00    +0.000 A 
ATOM     19  C   UNL     1      -4.384 -10.609  12.989  0.00  0.00    +0.000 A 
ATOM     20  C   UNL     1      -3.712 -10.148  11.855  0.00  0.00    +0.000 A 
ENDBRANCH  12  15
ENDBRANCH  11  12
ENDBRANCH   9  11
ENDBRANCH   4  10
BRANCH   5  21
ATOM     21  S   UNL     1      -9.864 -10.120  17.911  0.00  0.00    +0.000 S 
BRANCH  21  22
ATOM     22  C   UNL     1      -8.530  -8.983  17.432  0.00  0.00    +0.000 C 
BRANCH  22  23
ATOM     23  C   UNL     1      -7.172  -9.643  17.564  0.00  0.00    +0.000 A 
ATOM     24  C   UNL     1      -6.837 -10.353  18.729  0.00  0.00    +0.000 A 
ATOM     25  C   UNL     1      -6.213  -9.540  16.543  0.00  0.00    +0.000 A 
ATOM     26  C   UNL     1      -5.581 -10.955  18.862  0.00  0.00    +0.000 A 
ATOM     27  C   UNL     1      -4.960 -10.144  16.677  0.00  0.00    +0.000 A 
ATOM     28  C   UNL     1      -4.644 -10.851  17.836  0.00  0.00    +0.000 A 
ENDBRANCH  22  23
ENDBRANCH  21  22
ENDBRANCH   5  21
TORSDOF 7
ENDMDL
MODEL 5
REMARK VINA RESULT:      -5.1     15.663     17.100
REMARK  Name = 5930771
REMARK  7 active torsions:
REMARK  status: ('A' for Active; 'I' for Inactive)
REMARK    1  A    between atoms: S_3  and  C_10
REMARK    2  A    between atoms: S_3  and  C_13
REMARK    3  A    between atoms: O_5  and  N_8
REMARK    4  A    between atoms: O_5  and  C_20
REMARK    5  A    between atoms: C_9  and  C_15
REMARK    6  A    between atoms: C_13  and  C_14
REMARK    7  A    between atoms: C_17  and  C_20
REMARK                            x       y       z     vdW  Elec       q    Type
REMARK                         _______ _______ _______ _____ _____    ______ ____
ROOT
ATOM      1  S   UNL     1      -2.965  20.654  21.295  0.00  0.00    +0.000 S 
ATOM      2  N   UNL     1      -1.915  18.319  21.464  0.00  0.00    +0.000 N 
ATOM      3  N   UNL     1      -3.019  18.468  19.522  0.00  0.00    +0.000 NA
ATOM      4  C   UNL     1      -1.734  17.104  20.859  0.00  0.00    +0.000 A 
ATOM      5  C   UNL     1      -2.461  17.212  19.675  0.00  0.00    +0.000 A 
ATOM      6  C   UNL     1      -2.661  19.083  20.617  0.00  0.00    +0.000 A 
ATOM      7  C   UNL     1      -1.583  18.918  22.663  0.00  0.00    +0.000 A 
ATOM      8  C   UNL     1      -2.067  20.170  22.745  0.00  0.00    +0.000 A 
ENDROOT
BRANCH   4  10
ATOM      9  N   UNL     1       0.343  16.122  21.376  0.00  0.00    +0.000 NA
ATOM     10  C   UNL     1      -0.944  16.015  21.353  0.00  0.00    +0.000 C 
BRANCH   9  11
ATOM     11  O   UNL     1       0.917  14.900  21.779  0.00  0.00    +0.000 OA
BRANCH  11  12
ATOM     12  C   UNL     1       1.118  14.964  23.194  0.00  0.00    +0.000 C 
BRANCH  12  15
ATOM     13 CL   UNL     1       6.275  15.568  22.869  0.00  0.00    +0.000 Cl
ATOM     14 CL   UNL     1       5.983  18.188  24.777  0.00  0.00    +0.000 Cl
ATOM     15  C   UNL     1       2.334  15.789  23.532  0.00  0.00    +0.000 A 
ATOM     16  C   UNL     1       3.605  15.400  23.083  0.00  0.00    +0.000 A 
ATOM     17  C   UNL     1       2.222  16.925  24.345  0.00  0.00    +0.000 A 
ATOM     18  C   UNL     1       4.746  16.126  23.449  0.00  0.00    +0.000 A 
ATOM     19  C   UNL     1       3.358  17.652  24.711  0.00  0.00    +0.000 A 
ATOM     20  C   UNL     1       4.621  17.253  24.268  0.00  0.00    +0.000 A 
ENDBRANCH  12  15
ENDBRANCH  11  12
ENDBRANCH   9  11
ENDBRANCH   4  10
BRANCH   5  21
ATOM     21  S   UNL     1      -2.678  15.929  18.502  0.00  0.00    +0.000 S 
BRANCH  21  22
ATOM     22  C   UNL     1      -4.486  15.843  18.337  0.00  0.00    +0.000 C 
BRANCH  22  23
ATOM     23  C   UNL     1      -4.887  15.217  17.016  0.00  0.00    +0.000 A 
ATOM     24  C   UNL     1      -4.335  15.683  15.812  0.00  0.00    +0.000 A 
ATOM     25  C   UNL     1      -5.833  14.181  16.963  0.00  0.00    +0.000 A 
ATOM     26  C   UNL     1      -4.710  15.117  14.589  0.00  0.00    +0.000 A 
ATOM     27  C   UNL     1      -6.205  13.615  15.740  0.00  0.00    +0.000 A 
ATOM     28  C   UNL     1      -5.643  14.083  14.553  0.00  0.00    +0.000 A 
ENDBRANCH  22  23
ENDBRANCH  21  22
ENDBRANCH   5  21
TORSDOF 7
ENDMDL
MODEL 6
REMARK VINA RESULT:      -5.1      6.832      9.868
REMARK  Name = 5930771
REMARK  7 active torsions:
REMARK  status: ('A' for Active; 'I' for Inactive)
REMARK    1  A    between atoms: S_3  and  C_10
REMARK    2  A    between atoms: S_3  and  C_13
REMARK    3  A    between atoms: O_5  and  N_8
REMARK    4  A    between atoms: O_5  and  C_20
REMARK    5  A    between atoms: C_9  and  C_15
REMARK    6  A    between atoms: C_13  and  C_14
REMARK    7  A    between atoms: C_17  and  C_20
REMARK                            x       y       z     vdW  Elec       q    Type
REMARK                         _______ _______ _______ _____ _____    ______ ____
ROOT
ATOM      1  S   UNL     1      23.329   9.936  23.229  0.00  0.00    +0.000 S 
ATOM      2  N   UNL     1      21.375   8.591  22.249  0.00  0.00    +0.000 N 
ATOM      3  N   UNL     1      22.919   7.159  23.010  0.00  0.00    +0.000 NA
ATOM      4  C   UNL     1      20.861   7.348  21.994  0.00  0.00    +0.000 A 
ATOM      5  C   UNL     1      21.857   6.480  22.441  0.00  0.00    +0.000 A 
ATOM      6  C   UNL     1      22.576   8.412  22.867  0.00  0.00    +0.000 A 
ATOM      7  C   UNL     1      21.020   9.905  22.019  0.00  0.00    +0.000 A 
ATOM      8  C   UNL     1      21.952  10.761  22.474  0.00  0.00    +0.000 A 
ENDROOT
BRANCH   4  10
ATOM      9  N   UNL     1      19.508   6.377  20.329  0.00  0.00    +0.000 NA
ATOM     10  C   UNL     1      19.579   7.056  21.426  0.00  0.00    +0.000 C 
BRANCH   9  11
ATOM     11  O   UNL     1      18.172   6.315  19.890  0.00  0.00    +0.000 OA
BRANCH  11  12
ATOM     12  C   UNL     1      17.333   6.540  21.027  0.00  0.00    +0.000 C 
BRANCH  12  15
ATOM     13 CL   UNL     1      14.006   7.518  17.148  0.00  0.00    +0.000 Cl
ATOM     14 CL   UNL     1      11.767   8.248  19.394  0.00  0.00    +0.000 Cl
ATOM     15  C   UNL     1      15.933   6.908  20.603  0.00  0.00    +0.000 A 
ATOM     16  C   UNL     1      15.604   7.003  19.242  0.00  0.00    +0.000 A 
ATOM     17  C   UNL     1      14.956   7.217  21.559  0.00  0.00    +0.000 A 
ATOM     18  C   UNL     1      14.323   7.409  18.844  0.00  0.00    +0.000 A 
ATOM     19  C   UNL     1      13.678   7.622  21.164  0.00  0.00    +0.000 A 
ATOM     20  C   UNL     1      13.360   7.723  19.808  0.00  0.00    +0.000 A 
ENDBRANCH  12  15
ENDBRANCH  11  12
ENDBRANCH   9  11
ENDBRANCH   4  10
BRANCH   5  21
ATOM     21  S   UNL     1      21.812   4.735  22.304  0.00  0.00    +0.000 S 
BRANCH  21  22
ATOM     22  C   UNL     1      23.190   4.217  23.370  0.00  0.00    +0.000 C 
BRANCH  22  23
ATOM     23  C   UNL     1      23.825   2.938  22.861  0.00  0.00    +0.000 A 
ATOM     24  C   UNL     1      24.723   2.220  23.668  0.00  0.00    +0.000 A 
ATOM     25  C   UNL     1      23.554   2.458  21.570  0.00  0.00    +0.000 A 
ATOM     26  C   UNL     1      25.321   1.045  23.200  0.00  0.00    +0.000 A 
ATOM     27  C   UNL     1      24.151   1.282  21.105  0.00  0.00    +0.000 A 
ATOM     28  C   UNL     1      25.034   0.576  21.920  0.00  0.00    +0.000 A 
ENDBRANCH  22  23
ENDBRANCH  21  22
ENDBRANCH   5  21
TORSDOF 7
ENDMDL
MODEL 7
REMARK VINA RESULT:      -4.9      3.951      5.151
REMARK  Name = 5930771
REMARK  7 active torsions:
REMARK  status: ('A' for Active; 'I' for Inactive)
REMARK    1  A    between atoms: S_3  and  C_10
REMARK    2  A    between atoms: S_3  and  C_13
REMARK    3  A    between atoms: O_5  and  N_8
REMARK    4  A    between atoms: O_5  and  C_20
REMARK    5  A    between atoms: C_9  and  C_15
REMARK    6  A    between atoms: C_13  and  C_14
REMARK    7  A    between atoms: C_17  and  C_20
REMARK                            x       y       z     vdW  Elec       q    Type
REMARK                         _______ _______ _______ _____ _____    ______ ____
ROOT
ATOM      1  S   UNL     1      15.668  13.741  14.949  0.00  0.00    +0.000 S 
ATOM      2  N   UNL     1      14.394  12.982  17.043  0.00  0.00    +0.000 N 
ATOM      3  N   UNL     1      15.253  11.177  16.035  0.00  0.00    +0.000 NA
ATOM      4  C   UNL     1      14.014  11.925  17.825  0.00  0.00    +0.000 A 
ATOM      5  C   UNL     1      14.527  10.816  17.155  0.00  0.00    +0.000 A 
ATOM      6  C   UNL     1      15.139  12.478  16.019  0.00  0.00    +0.000 A 
ATOM      7  C   UNL     1      14.195  14.348  17.012  0.00  0.00    +0.000 A 
ATOM      8  C   UNL     1      14.802  14.917  15.955  0.00  0.00    +0.000 A 
ENDROOT
BRANCH   4  10
ATOM      9  N   UNL     1      13.854  11.630  20.156  0.00  0.00    +0.000 NA
ATOM     10  C   UNL     1      13.283  11.994  19.056  0.00  0.00    +0.000 C 
BRANCH   9  11
ATOM     11  O   UNL     1      12.922  11.662  21.212  0.00  0.00    +0.000 OA
BRANCH  11  12
ATOM     12  C   UNL     1      13.015  12.949  21.830  0.00  0.00    +0.000 C 
BRANCH  12  15
ATOM     13 CL   UNL     1       9.008  15.731  20.022  0.00  0.00    +0.000 Cl
ATOM     14 CL   UNL     1       7.630  15.458  22.957  0.00  0.00    +0.000 Cl
ATOM     15  C   UNL     1      11.646  13.531  22.077  0.00  0.00    +0.000 A 
ATOM     16  C   UNL     1      10.986  14.250  21.068  0.00  0.00    +0.000 A 
ATOM     17  C   UNL     1      11.037  13.414  23.333  0.00  0.00    +0.000 A 
ATOM     18  C   UNL     1       9.744  14.849  21.313  0.00  0.00    +0.000 A 
ATOM     19  C   UNL     1       9.797  14.010  23.580  0.00  0.00    +0.000 A 
ATOM     20  C   UNL     1       9.150  14.732  22.574  0.00  0.00    +0.000 A 
ENDBRANCH  12  15
ENDBRANCH  11  12
ENDBRANCH   9  11
ENDBRANCH   4  10
BRANCH   5  21
ATOM     21  S   UNL     1      14.292   9.148  17.635  0.00  0.00    +0.000 S 
BRANCH  21  22
ATOM     22  C   UNL     1      12.495   9.058  17.893  0.00  0.00    +0.000 C 
BRANCH  22  23
ATOM     23  C   UNL     1      12.163   8.347  19.189  0.00  0.00    +0.000 A 
ATOM     24  C   UNL     1      10.970   8.634  19.873  0.00  0.00    +0.000 A 
ATOM     25  C   UNL     1      13.046   7.409  19.748  0.00  0.00    +0.000 A 
ATOM     26  C   UNL     1      10.663   7.989  21.075  0.00  0.00    +0.000 A 
ATOM     27  C   UNL     1      12.736   6.764  20.950  0.00  0.00    +0.000 A 
ATOM     28  C   UNL     1      11.545   7.054  21.612  0.00  0.00    +0.000 A 
ENDBRANCH  22  23
ENDBRANCH  21  22
ENDBRANCH   5  21
TORSDOF 7
ENDMDL
MODEL 8
REMARK VINA RESULT:      -4.9      6.879      9.111
REMARK  Name = 5930771
REMARK  7 active torsions:
REMARK  status: ('A' for Active; 'I' for Inactive)
REMARK    1  A    between atoms: S_3  and  C_10
REMARK    2  A    between atoms: S_3  and  C_13
REMARK    3  A    between atoms: O_5  and  N_8
REMARK    4  A    between atoms: O_5  and  C_20
REMARK    5  A    between atoms: C_9  and  C_15
REMARK    6  A    between atoms: C_13  and  C_14
REMARK    7  A    between atoms: C_17  and  C_20
REMARK                            x       y       z     vdW  Elec       q    Type
REMARK                         _______ _______ _______ _____ _____    ______ ____
ROOT
ATOM      1  S   UNL     1       7.696  17.221  22.767  0.00  0.00    +0.000 S 
ATOM      2  N   UNL     1       9.413  15.333  23.031  0.00  0.00    +0.000 N 
ATOM      3  N   UNL     1       9.875  16.935  24.525  0.00  0.00    +0.000 NA
ATOM      4  C   UNL     1      10.509  14.876  23.713  0.00  0.00    +0.000 A 
ATOM      5  C   UNL     1      10.796  15.907  24.606  0.00  0.00    +0.000 A 
ATOM      6  C   UNL     1       9.077  16.538  23.570  0.00  0.00    +0.000 A 
ATOM      7  C   UNL     1       8.630  14.922  21.971  0.00  0.00    +0.000 A 
ATOM      8  C   UNL     1       7.663  15.813  21.689  0.00  0.00    +0.000 A 
ENDROOT
BRANCH   4  10
ATOM      9  N   UNL     1      10.861  12.628  24.320  0.00  0.00    +0.000 NA
ATOM     10  C   UNL     1      11.156  13.610  23.535  0.00  0.00    +0.000 C 
BRANCH   9  11
ATOM     11  O   UNL     1      11.698  11.529  24.048  0.00  0.00    +0.000 OA
BRANCH  11  12
ATOM     12  C   UNL     1      10.857  10.417  23.724  0.00  0.00    +0.000 C 
BRANCH  12  15
ATOM     13 CL   UNL     1      13.228  11.120  19.147  0.00  0.00    +0.000 Cl
ATOM     14 CL   UNL     1      11.899   8.322  18.148  0.00  0.00    +0.000 Cl
ATOM     15  C   UNL     1      11.174   9.881  22.351  0.00  0.00    +0.000 A 
ATOM     16  C   UNL     1      11.987  10.612  21.471  0.00  0.00    +0.000 A 
ATOM     17  C   UNL     1      10.616   8.673  21.911  0.00  0.00    +0.000 A 
ATOM     18  C   UNL     1      12.230  10.150  20.171  0.00  0.00    +0.000 A 
ATOM     19  C   UNL     1      10.857   8.209  20.614  0.00  0.00    +0.000 A 
ATOM     20  C   UNL     1      11.660   8.947  19.741  0.00  0.00    +0.000 A 
ENDBRANCH  12  15
ENDBRANCH  11  12
ENDBRANCH   9  11
ENDBRANCH   4  10
BRANCH   5  21
ATOM     21  S   UNL     1      12.159  15.939  25.706  0.00  0.00    +0.000 S 
BRANCH  21  22
ATOM     22  C   UNL     1      11.512  15.067  27.164  0.00  0.00    +0.000 C 
BRANCH  22  23
ATOM     23  C   UNL     1      11.303  16.020  28.324  0.00  0.00    +0.000 A 
ATOM     24  C   UNL     1      11.657  15.641  29.630  0.00  0.00    +0.000 A 
ATOM     25  C   UNL     1      10.730  17.287  28.127  0.00  0.00    +0.000 A 
ATOM     26  C   UNL     1      11.455  16.511  30.706  0.00  0.00    +0.000 A 
ATOM     27  C   UNL     1      10.532  18.157  29.204  0.00  0.00    +0.000 A 
ATOM     28  C   UNL     1      10.894  17.768  30.492  0.00  0.00    +0.000 A 
ENDBRANCH  22  23
ENDBRANCH  21  22
ENDBRANCH   5  21
TORSDOF 7
ENDMDL
MODEL 9
REMARK VINA RESULT:      -4.8     33.868     36.169
REMARK  Name = 5930771
REMARK  7 active torsions:
REMARK  status: ('A' for Active; 'I' for Inactive)
REMARK    1  A    between atoms: S_3  and  C_10
REMARK    2  A    between atoms: S_3  and  C_13
REMARK    3  A    between atoms: O_5  and  N_8
REMARK    4  A    between atoms: O_5  and  C_20
REMARK    5  A    between atoms: C_9  and  C_15
REMARK    6  A    between atoms: C_13  and  C_14
REMARK    7  A    between atoms: C_17  and  C_20
REMARK                            x       y       z     vdW  Elec       q    Type
REMARK                         _______ _______ _______ _____ _____    ______ ____
ROOT
ATOM      1  S   UNL     1      -5.870 -13.625  40.976  0.00  0.00    +0.000 S 
ATOM      2  N   UNL     1      -6.669 -11.352  40.092  0.00  0.00    +0.000 N 
ATOM      3  N   UNL     1      -7.351 -12.950  38.680  0.00  0.00    +0.000 NA
ATOM      4  C   UNL     1      -7.353 -10.688  39.110  0.00  0.00    +0.000 A 
ATOM      5  C   UNL     1      -7.731 -11.699  38.228  0.00  0.00    +0.000 A 
ATOM      6  C   UNL     1      -6.723 -12.681  39.793  0.00  0.00    +0.000 A 
ATOM      7  C   UNL     1      -5.948 -11.031  41.225  0.00  0.00    +0.000 A 
ATOM      8  C   UNL     1      -5.444 -12.126  41.823  0.00  0.00    +0.000 A 
ENDROOT
BRANCH   4  10
ATOM      9  N   UNL     1      -6.660  -8.461  38.785  0.00  0.00    +0.000 NA
ATOM     10  C   UNL     1      -7.619  -9.281  39.059  0.00  0.00    +0.000 C 
BRANCH   9  11
ATOM     11  O   UNL     1      -7.114  -7.134  38.911  0.00  0.00    +0.000 OA
BRANCH  11  12
ATOM     12  C   UNL     1      -7.709  -7.002  40.205  0.00  0.00    +0.000 C 
BRANCH  12  15
ATOM     13 CL   UNL     1      -8.669  -1.973  39.281  0.00  0.00    +0.000 Cl
ATOM     14 CL   UNL     1     -11.627  -2.410  40.567  0.00  0.00    +0.000 Cl
ATOM     15  C   UNL     1      -8.694  -5.861  40.235  0.00  0.00    +0.000 A 
ATOM     16  C   UNL     1      -8.323  -4.589  39.772  0.00  0.00    +0.000 A 
ATOM     17  C   UNL     1      -9.974  -6.037  40.778  0.00  0.00    +0.000 A 
ATOM     18  C   UNL     1      -9.212  -3.510  39.858  0.00  0.00    +0.000 A 
ATOM     19  C   UNL     1     -10.863  -4.961  40.865  0.00  0.00    +0.000 A 
ATOM     20  C   UNL     1     -10.484  -3.696  40.410  0.00  0.00    +0.000 A 
ENDBRANCH  12  15
ENDBRANCH  11  12
ENDBRANCH   9  11
ENDBRANCH   4  10
BRANCH   5  21
ATOM     21  S   UNL     1      -8.575 -11.454  36.713  0.00  0.00    +0.000 S 
BRANCH  21  22
ATOM     22  C   UNL     1     -10.291 -11.196  37.252  0.00  0.00    +0.000 C 
BRANCH  22  23
ATOM     23  C   UNL     1     -11.273 -11.765  36.247  0.00  0.00    +0.000 A 
ATOM     24  C   UNL     1     -10.999 -12.978  35.593  0.00  0.00    +0.000 A 
ATOM     25  C   UNL     1     -12.459 -11.085  35.928  0.00  0.00    +0.000 A 
ATOM     26  C   UNL     1     -11.896 -13.502  34.656  0.00  0.00    +0.000 A 
ATOM     27  C   UNL     1     -13.356 -11.612  34.993  0.00  0.00    +0.000 A 
ATOM     28  C   UNL     1     -13.074 -12.820  34.358  0.00  0.00    +0.000 A 
ENDBRANCH  22  23
ENDBRANCH  21  22
ENDBRANCH   5  21
TORSDOF 7
ENDMDL
MODEL 10
REMARK VINA RESULT:      -4.8     29.793     32.248
REMARK  Name = 5930771
REMARK  7 active torsions:
REMARK  status: ('A' for Active; 'I' for Inactive)
REMARK    1  A    between atoms: S_3  and  C_10
REMARK    2  A    between atoms: S_3  and  C_13
REMARK    3  A    between atoms: O_5  and  N_8
REMARK    4  A    between atoms: O_5  and  C_20
REMARK    5  A    between atoms: C_9  and  C_15
REMARK    6  A    between atoms: C_13  and  C_14
REMARK    7  A    between atoms: C_17  and  C_20
REMARK                            x       y       z     vdW  Elec       q    Type
REMARK                         _______ _______ _______ _____ _____    ______ ____
ROOT
ATOM      1  S   UNL     1       8.465 -25.146   9.944  0.00  0.00    +0.000 S 
ATOM      2  N   UNL     1       8.987 -22.670  10.368  0.00  0.00    +0.000 N 
ATOM      3  N   UNL     1       6.784 -22.890  10.029  0.00  0.00    +0.000 NA
ATOM      4  C   UNL     1       8.482 -21.402  10.484  0.00  0.00    +0.000 A 
ATOM      5  C   UNL     1       7.121 -21.564  10.231  0.00  0.00    +0.000 A 
ATOM      6  C   UNL     1       7.935 -23.501  10.122  0.00  0.00    +0.000 A 
ATOM      7  C   UNL     1      10.225 -23.278  10.400  0.00  0.00    +0.000 A 
ATOM      8  C   UNL     1      10.136 -24.604  10.187  0.00  0.00    +0.000 A 
ENDROOT
BRANCH   4  10
ATOM      9  N   UNL     1       9.892 -19.608   9.904  0.00  0.00    +0.000 NA
ATOM     10  C   UNL     1       9.218 -20.220  10.820  0.00  0.00    +0.000 C 
BRANCH   9  11
ATOM     11  O   UNL     1      10.630 -18.554  10.477  0.00  0.00    +0.000 OA
BRANCH  11  12
ATOM     12  C   UNL     1      10.992 -17.659   9.421  0.00  0.00    +0.000 C 
BRANCH  12  15
ATOM     13 CL   UNL     1      16.008 -17.322  10.765  0.00  0.00    +0.000 Cl
ATOM     14 CL   UNL     1      16.772 -18.179   7.720  0.00  0.00    +0.000 Cl
ATOM     15  C   UNL     1      12.438 -17.840   9.030  0.00  0.00    +0.000 A 
ATOM     16  C   UNL     1      13.463 -17.577   9.952  0.00  0.00    +0.000 A 
ATOM     17  C   UNL     1      12.781 -18.217   7.725  0.00  0.00    +0.000 A 
ATOM     18  C   UNL     1      14.808 -17.680   9.573  0.00  0.00    +0.000 A 
ATOM     19  C   UNL     1      14.123 -18.321   7.345  0.00  0.00    +0.000 A 
ATOM     20  C   UNL     1      15.138 -18.049   8.265  0.00  0.00    +0.000 A 
ENDBRANCH  12  15
ENDBRANCH  11  12
ENDBRANCH   9  11
ENDBRANCH   4  10
BRANCH   5  21
ATOM     21  S   UNL     1       5.947 -20.266  10.155  0.00  0.00    +0.000 S 
BRANCH  21  22
ATOM     22  C   UNL     1       6.239 -19.562   8.505  0.00  0.00    +0.000 C 
BRANCH  22  23
ATOM     23  C   UNL     1       5.025 -18.802   8.010  0.00  0.00    +0.000 A 
ATOM     24  C   UNL     1       4.797 -18.643   6.633  0.00  0.00    +0.000 A 
ATOM     25  C   UNL     1       4.118 -18.219   8.911  0.00  0.00    +0.000 A 
ATOM     26  C   UNL     1       3.684 -17.932   6.171  0.00  0.00    +0.000 A 
ATOM     27  C   UNL     1       3.005 -17.512   8.447  0.00  0.00    +0.000 A 
ATOM     28  C   UNL     1       2.789 -17.369   7.077  0.00  0.00    +0.000 A 
ENDBRANCH  22  23
ENDBRANCH  21  22
ENDBRANCH   5  21
TORSDOF 7
ENDMDL
