REMARK  Name = 5930083
REMARK  5 active torsions:
REMARK  status: ('A' for Active; 'I' for Inactive)
REMARK    1  A    between atoms: O_4  and  N_7
REMARK    2  A    between atoms: O_4  and  C_20
REMARK    3  A    between atoms: C_8  and  C_13
REMARK    4  A    between atoms: C_9  and  C_11
REMARK    5  A    between atoms: C_17  and  C_20
REMARK                            x       y       z     vdW  Elec       q    Type
REMARK                         _______ _______ _______ _____ _____    ______ ____
ROOT
ATOM      1  S   UNL     1       5.489   4.655   4.447  0.00  0.00    +0.000 S 
ATOM      2  N   UNL     1       3.215   3.543   4.020  0.00  0.00    +0.000 N 
ATOM      3  N   UNL     1       3.380   5.355   2.728  0.00  0.00    +0.000 NA
ATOM      4  C   UNL     1       2.012   3.610   3.357  0.00  0.00    +0.000 A 
ATOM      5  C   UNL     1       2.149   4.742   2.544  0.00  0.00    +0.000 A 
ATOM      6  C   UNL     1       3.951   4.620   3.635  0.00  0.00    +0.000 A 
ATOM      7  C   UNL     1       3.840   2.696   4.913  0.00  0.00    +0.000 A 
ATOM      8  C   UNL     1       5.051   3.151   5.271  0.00  0.00    +0.000 A 
ENDROOT
BRANCH   5   9
ATOM      9  C   UNL     1       1.174   5.252   1.583  0.00  0.00    +0.000 A 
ATOM     10  C   UNL     1       1.627   5.902   0.425  0.00  0.00    +0.000 A 
ATOM     11  C   UNL     1      -0.208   5.104   1.767  0.00  0.00    +0.000 A 
ATOM     12  C   UNL     1       0.725   6.326  -0.556  0.00  0.00    +0.000 A 
ATOM     13  C   UNL     1      -1.109   5.512   0.778  0.00  0.00    +0.000 A 
ATOM     14  C   UNL     1      -0.642   6.110  -0.388  0.00  0.00    +0.000 A 
ENDBRANCH   5   9
BRANCH   4  16
ATOM     15  N   UNL     1       0.456   2.149   4.560  0.00  0.00    +0.000 NA
ATOM     16  C   UNL     1       0.927   2.676   3.467  0.00  0.00    +0.000 C 
BRANCH  15  17
ATOM     17  O   UNL     1       1.105   2.631   5.707  0.00  0.00    +0.000 OA
BRANCH  17  18
ATOM     18  C   UNL     1       0.355   2.323   6.883  0.00  0.00    +0.000 C 
BRANCH  18  21
ATOM     19 CL   UNL     1       2.841   1.909   8.731  0.00  0.00    +0.000 Cl
ATOM     20 CL   UNL     1      -1.572   0.015   6.029  0.00  0.00    +0.000 Cl
ATOM     21  C   UNL     1       0.639   0.931   7.396  0.00  0.00    +0.000 A 
ATOM     22  C   UNL     1       1.736   0.669   8.241  0.00  0.00    +0.000 A 
ATOM     23  C   UNL     1      -0.181  -0.158   7.045  0.00  0.00    +0.000 A 
ATOM     24  C   UNL     1       1.982  -0.619   8.737  0.00  0.00    +0.000 A 
ATOM     25  C   UNL     1       0.078  -1.446   7.531  0.00  0.00    +0.000 A 
ATOM     26  C   UNL     1       1.154  -1.677   8.384  0.00  0.00    +0.000 A 
ENDBRANCH  18  21
ENDBRANCH  17  18
ENDBRANCH  15  17
ENDBRANCH   4  16
TORSDOF 5
