MODEL 1
REMARK VINA RESULT:      -5.8      0.000      0.000
REMARK  Name = 5930083
REMARK  5 active torsions:
REMARK  status: ('A' for Active; 'I' for Inactive)
REMARK    1  A    between atoms: O_4  and  N_7
REMARK    2  A    between atoms: O_4  and  C_20
REMARK    3  A    between atoms: C_8  and  C_13
REMARK    4  A    between atoms: C_9  and  C_11
REMARK    5  A    between atoms: C_17  and  C_20
REMARK                            x       y       z     vdW  Elec       q    Type
REMARK                         _______ _______ _______ _____ _____    ______ ____
ROOT
ATOM      1  S   UNL     1      -1.049 -11.261  15.109  0.00  0.00    +0.000 S 
ATOM      2  N   UNL     1      -3.420 -10.609  14.372  0.00  0.00    +0.000 N 
ATOM      3  N   UNL     1      -2.228 -11.141  12.562  0.00  0.00    +0.000 NA
ATOM      4  C   UNL     1      -4.275 -10.399  13.315  0.00  0.00    +0.000 A 
ATOM      5  C   UNL     1      -3.510 -10.756  12.198  0.00  0.00    +0.000 A 
ATOM      6  C   UNL     1      -2.225 -11.002  13.854  0.00  0.00    +0.000 A 
ATOM      7  C   UNL     1      -3.468 -10.545  15.750  0.00  0.00    +0.000 A 
ATOM      8  C   UNL     1      -2.282 -10.834  16.306  0.00  0.00    +0.000 A 
ENDROOT
BRANCH   5   9
ATOM      9  C   UNL     1      -3.950 -10.771  10.805  0.00  0.00    +0.000 A 
ATOM     10  C   UNL     1      -4.105  -9.555  10.121  0.00  0.00    +0.000 A 
ATOM     11  C   UNL     1      -4.212 -11.962  10.115  0.00  0.00    +0.000 A 
ATOM     12  C   UNL     1      -4.441  -9.537   8.764  0.00  0.00    +0.000 A 
ATOM     13  C   UNL     1      -4.531 -11.944   8.753  0.00  0.00    +0.000 A 
ATOM     14  C   UNL     1      -4.632 -10.734   8.075  0.00  0.00    +0.000 A 
ENDBRANCH   5   9
BRANCH   4  16
ATOM     15  N   UNL     1      -6.648 -10.650  13.872  0.00  0.00    +0.000 NA
ATOM     16  C   UNL     1      -5.643  -9.970  13.401  0.00  0.00    +0.000 C 
BRANCH  15  17
ATOM     17  O   UNL     1      -6.259 -11.904  14.366  0.00  0.00    +0.000 OA
BRANCH  17  18
ATOM     18  C   UNL     1      -7.071 -12.288  15.477  0.00  0.00    +0.000 C 
BRANCH  18  21
ATOM     19 CL   UNL     1      -5.124 -14.491  16.536  0.00  0.00    +0.000 Cl
ATOM     20 CL   UNL     1      -7.678  -9.631  17.008  0.00  0.00    +0.000 Cl
ATOM     21  C   UNL     1      -6.381 -12.054  16.800  0.00  0.00    +0.000 A 
ATOM     22  C   UNL     1      -5.483 -12.998  17.337  0.00  0.00    +0.000 A 
ATOM     23  C   UNL     1      -6.614 -10.885  17.548  0.00  0.00    +0.000 A 
ATOM     24  C   UNL     1      -4.824 -12.767  18.552  0.00  0.00    +0.000 A 
ATOM     25  C   UNL     1      -5.964 -10.666  18.770  0.00  0.00    +0.000 A 
ATOM     26  C   UNL     1      -5.063 -11.602  19.270  0.00  0.00    +0.000 A 
ENDBRANCH  18  21
ENDBRANCH  17  18
ENDBRANCH  15  17
ENDBRANCH   4  16
TORSDOF 5
ENDMDL
MODEL 2
REMARK VINA RESULT:      -5.7     25.844     27.672
REMARK  Name = 5930083
REMARK  5 active torsions:
REMARK  status: ('A' for Active; 'I' for Inactive)
REMARK    1  A    between atoms: O_4  and  N_7
REMARK    2  A    between atoms: O_4  and  C_20
REMARK    3  A    between atoms: C_8  and  C_13
REMARK    4  A    between atoms: C_9  and  C_11
REMARK    5  A    between atoms: C_17  and  C_20
REMARK                            x       y       z     vdW  Elec       q    Type
REMARK                         _______ _______ _______ _____ _____    ______ ____
ROOT
ATOM      1  S   UNL     1      -9.388  -9.941  40.522  0.00  0.00    +0.000 S 
ATOM      2  N   UNL     1      -7.835  -8.071  39.698  0.00  0.00    +0.000 N 
ATOM      3  N   UNL     1      -9.660  -7.145  40.588  0.00  0.00    +0.000 NA
ATOM      4  C   UNL     1      -7.660  -6.718  39.525  0.00  0.00    +0.000 A 
ATOM      5  C   UNL     1      -8.807  -6.163  40.105  0.00  0.00    +0.000 A 
ATOM      6  C   UNL     1      -9.046  -8.251  40.288  0.00  0.00    +0.000 A 
ATOM      7  C   UNL     1      -7.123  -9.229  39.456  0.00  0.00    +0.000 A 
ATOM      8  C   UNL     1      -7.814 -10.324  39.809  0.00  0.00    +0.000 A 
ENDROOT
BRANCH   5   9
ATOM      9  C   UNL     1      -9.117  -4.742  40.244  0.00  0.00    +0.000 A 
ATOM     10  C   UNL     1      -8.536  -4.012  41.292  0.00  0.00    +0.000 A 
ATOM     11  C   UNL     1      -9.970  -4.071  39.356  0.00  0.00    +0.000 A 
ATOM     12  C   UNL     1      -8.743  -2.633  41.403  0.00  0.00    +0.000 A 
ATOM     13  C   UNL     1     -10.163  -2.689  39.457  0.00  0.00    +0.000 A 
ATOM     14  C   UNL     1      -9.539  -1.969  40.471  0.00  0.00    +0.000 A 
ENDBRANCH   5   9
BRANCH   4  16
ATOM     15  N   UNL     1      -5.400  -5.771  39.524  0.00  0.00    +0.000 NA
ATOM     16  C   UNL     1      -6.519  -6.076  38.934  0.00  0.00    +0.000 C 
BRANCH  15  17
ATOM     17  O   UNL     1      -5.374  -6.185  40.865  0.00  0.00    +0.000 OA
BRANCH  17  18
ATOM     18  C   UNL     1      -4.049  -6.540  41.262  0.00  0.00    +0.000 C 
BRANCH  18  21
ATOM     19 CL   UNL     1      -1.827  -5.769  39.203  0.00  0.00    +0.000 Cl
ATOM     20 CL   UNL     1      -4.595  -4.950  43.897  0.00  0.00    +0.000 Cl
ATOM     21  C   UNL     1      -3.194  -5.329  41.554  0.00  0.00    +0.000 A 
ATOM     22  C   UNL     1      -2.180  -4.915  40.668  0.00  0.00    +0.000 A 
ATOM     23  C   UNL     1      -3.378  -4.571  42.725  0.00  0.00    +0.000 A 
ATOM     24  C   UNL     1      -1.406  -3.775  40.928  0.00  0.00    +0.000 A 
ATOM     25  C   UNL     1      -2.592  -3.441  42.989  0.00  0.00    +0.000 A 
ATOM     26  C   UNL     1      -1.611  -3.037  42.087  0.00  0.00    +0.000 A 
ENDBRANCH  18  21
ENDBRANCH  17  18
ENDBRANCH  15  17
ENDBRANCH   4  16
TORSDOF 5
ENDMDL
MODEL 3
REMARK VINA RESULT:      -5.4     24.759     26.701
REMARK  Name = 5930083
REMARK  5 active torsions:
REMARK  status: ('A' for Active; 'I' for Inactive)
REMARK    1  A    between atoms: O_4  and  N_7
REMARK    2  A    between atoms: O_4  and  C_20
REMARK    3  A    between atoms: C_8  and  C_13
REMARK    4  A    between atoms: C_9  and  C_11
REMARK    5  A    between atoms: C_17  and  C_20
REMARK                            x       y       z     vdW  Elec       q    Type
REMARK                         _______ _______ _______ _____ _____    ______ ____
ROOT
ATOM      1  S   UNL     1      21.829  -6.367  25.327  0.00  0.00    +0.000 S 
ATOM      2  N   UNL     1      20.299  -4.618  26.419  0.00  0.00    +0.000 N 
ATOM      3  N   UNL     1      19.785  -4.768  24.252  0.00  0.00    +0.000 NA
ATOM      4  C   UNL     1      19.309  -3.683  26.229  0.00  0.00    +0.000 A 
ATOM      5  C   UNL     1      18.994  -3.810  24.871  0.00  0.00    +0.000 A 
ATOM      6  C   UNL     1      20.557  -5.186  25.210  0.00  0.00    +0.000 A 
ATOM      7  C   UNL     1      21.043  -5.115  27.470  0.00  0.00    +0.000 A 
ATOM      8  C   UNL     1      21.930  -6.037  27.063  0.00  0.00    +0.000 A 
ENDROOT
BRANCH   5   9
ATOM      9  C   UNL     1      17.961  -3.080  24.140  0.00  0.00    +0.000 A 
ATOM     10  C   UNL     1      18.241  -1.793  23.656  0.00  0.00    +0.000 A 
ATOM     11  C   UNL     1      16.693  -3.625  23.889  0.00  0.00    +0.000 A 
ATOM     12  C   UNL     1      17.305  -1.102  22.880  0.00  0.00    +0.000 A 
ATOM     13  C   UNL     1      15.764  -2.941  23.099  0.00  0.00    +0.000 A 
ATOM     14  C   UNL     1      16.075  -1.687  22.584  0.00  0.00    +0.000 A 
ENDBRANCH   5   9
BRANCH   4  16
ATOM     15  N   UNL     1      17.793  -3.165  28.083  0.00  0.00    +0.000 NA
ATOM     16  C   UNL     1      18.729  -2.842  27.238  0.00  0.00    +0.000 C 
BRANCH  15  17
ATOM     17  O   UNL     1      17.397  -4.505  27.954  0.00  0.00    +0.000 OA
BRANCH  17  18
ATOM     18  C   UNL     1      17.461  -5.178  29.212  0.00  0.00    +0.000 C 
BRANCH  18  21
ATOM     19 CL   UNL     1      15.570  -7.411  28.115  0.00  0.00    +0.000 Cl
ATOM     20 CL   UNL     1      16.689  -3.247  31.546  0.00  0.00    +0.000 Cl
ATOM     21  C   UNL     1      16.100  -5.336  29.847  0.00  0.00    +0.000 A 
ATOM     22  C   UNL     1      15.196  -6.327  29.412  0.00  0.00    +0.000 A 
ATOM     23  C   UNL     1      15.681  -4.496  30.896  0.00  0.00    +0.000 A 
ATOM     24  C   UNL     1      13.944  -6.489  30.021  0.00  0.00    +0.000 A 
ATOM     25  C   UNL     1      14.422  -4.652  31.491  0.00  0.00    +0.000 A 
ATOM     26  C   UNL     1      13.556  -5.653  31.061  0.00  0.00    +0.000 A 
ENDBRANCH  18  21
ENDBRANCH  17  18
ENDBRANCH  15  17
ENDBRANCH   4  16
TORSDOF 5
ENDMDL
MODEL 4
REMARK VINA RESULT:      -5.3     25.993     27.883
REMARK  Name = 5930083
REMARK  5 active torsions:
REMARK  status: ('A' for Active; 'I' for Inactive)
REMARK    1  A    between atoms: O_4  and  N_7
REMARK    2  A    between atoms: O_4  and  C_20
REMARK    3  A    between atoms: C_8  and  C_13
REMARK    4  A    between atoms: C_9  and  C_11
REMARK    5  A    between atoms: C_17  and  C_20
REMARK                            x       y       z     vdW  Elec       q    Type
REMARK                         _______ _______ _______ _____ _____    ______ ____
ROOT
ATOM      1  S   UNL     1      -7.453  -8.780  44.319  0.00  0.00    +0.000 S 
ATOM      2  N   UNL     1      -7.242  -8.281  41.810  0.00  0.00    +0.000 N 
ATOM      3  N   UNL     1      -8.595  -6.764  42.730  0.00  0.00    +0.000 NA
ATOM      4  C   UNL     1      -7.647  -7.491  40.759  0.00  0.00    +0.000 A 
ATOM      5  C   UNL     1      -8.479  -6.542  41.365  0.00  0.00    +0.000 A 
ATOM      6  C   UNL     1      -7.869  -7.824  42.926  0.00  0.00    +0.000 A 
ATOM      7  C   UNL     1      -6.391  -9.349  42.012  0.00  0.00    +0.000 A 
ATOM      8  C   UNL     1      -6.402  -9.763  43.288  0.00  0.00    +0.000 A 
ENDROOT
BRANCH   5   9
ATOM      9  C   UNL     1      -9.146  -5.419  40.712  0.00  0.00    +0.000 A 
ATOM     10  C   UNL     1      -8.421  -4.246  40.451  0.00  0.00    +0.000 A 
ATOM     11  C   UNL     1     -10.491  -5.472  40.318  0.00  0.00    +0.000 A 
ATOM     12  C   UNL     1      -9.004  -3.186  39.750  0.00  0.00    +0.000 A 
ATOM     13  C   UNL     1     -11.069  -4.419  39.602  0.00  0.00    +0.000 A 
ATOM     14  C   UNL     1     -10.322  -3.282  39.307  0.00  0.00    +0.000 A 
ENDBRANCH   5   9
BRANCH   4  16
ATOM     15  N   UNL     1      -6.252  -6.999  38.806  0.00  0.00    +0.000 NA
ATOM     16  C   UNL     1      -7.236  -7.620  39.390  0.00  0.00    +0.000 C 
BRANCH  15  17
ATOM     17  O   UNL     1      -5.547  -6.168  39.691  0.00  0.00    +0.000 OA
BRANCH  17  18
ATOM     18  C   UNL     1      -4.235  -6.679  39.931  0.00  0.00    +0.000 C 
BRANCH  18  21
ATOM     19 CL   UNL     1      -4.900  -5.909  42.886  0.00  0.00    +0.000 Cl
ATOM     20 CL   UNL     1      -1.838  -5.476  38.325  0.00  0.00    +0.000 Cl
ATOM     21  C   UNL     1      -3.346  -5.673  40.624  0.00  0.00    +0.000 A 
ATOM     22  C   UNL     1      -3.578  -5.284  41.959  0.00  0.00    +0.000 A 
ATOM     23  C   UNL     1      -2.254  -5.084  39.959  0.00  0.00    +0.000 A 
ATOM     24  C   UNL     1      -2.736  -4.370  42.608  0.00  0.00    +0.000 A 
ATOM     25  C   UNL     1      -1.425  -4.159  40.607  0.00  0.00    +0.000 A 
ATOM     26  C   UNL     1      -1.659  -3.808  41.934  0.00  0.00    +0.000 A 
ENDBRANCH  18  21
ENDBRANCH  17  18
ENDBRANCH  15  17
ENDBRANCH   4  16
TORSDOF 5
ENDMDL
MODEL 5
REMARK VINA RESULT:      -5.2     29.299     30.671
REMARK  Name = 5930083
REMARK  5 active torsions:
REMARK  status: ('A' for Active; 'I' for Inactive)
REMARK    1  A    between atoms: O_4  and  N_7
REMARK    2  A    between atoms: O_4  and  C_20
REMARK    3  A    between atoms: C_8  and  C_13
REMARK    4  A    between atoms: C_9  and  C_11
REMARK    5  A    between atoms: C_17  and  C_20
REMARK                            x       y       z     vdW  Elec       q    Type
REMARK                         _______ _______ _______ _____ _____    ______ ____
ROOT
ATOM      1  S   UNL     1       2.768  21.081  23.419  0.00  0.00    +0.000 S 
ATOM      2  N   UNL     1       2.889  18.585  24.006  0.00  0.00    +0.000 N 
ATOM      3  N   UNL     1       4.602  19.090  22.669  0.00  0.00    +0.000 NA
ATOM      4  C   UNL     1       3.543  17.391  23.811  0.00  0.00    +0.000 A 
ATOM      5  C   UNL     1       4.619  17.739  22.985  0.00  0.00    +0.000 A 
ATOM      6  C   UNL     1       3.539  19.529  23.274  0.00  0.00    +0.000 A 
ATOM      7  C   UNL     1       1.811  19.049  24.733  0.00  0.00    +0.000 A 
ATOM      8  C   UNL     1       1.585  20.354  24.516  0.00  0.00    +0.000 A 
ENDROOT
BRANCH   5   9
ATOM      9  C   UNL     1       5.676  16.852  22.504  0.00  0.00    +0.000 A 
ATOM     10  C   UNL     1       6.761  16.560  23.344  0.00  0.00    +0.000 A 
ATOM     11  C   UNL     1       5.640  16.265  21.232  0.00  0.00    +0.000 A 
ATOM     12  C   UNL     1       7.745  15.648  22.949  0.00  0.00    +0.000 A 
ATOM     13  C   UNL     1       6.615  15.340  20.843  0.00  0.00    +0.000 A 
ATOM     14  C   UNL     1       7.659  15.022  21.707  0.00  0.00    +0.000 A 
ENDBRANCH   5   9
BRANCH   4  16
ATOM     15  N   UNL     1       2.234  15.331  24.016  0.00  0.00    +0.000 NA
ATOM     16  C   UNL     1       3.194  16.125  24.391  0.00  0.00    +0.000 C 
BRANCH  15  17
ATOM     17  O   UNL     1       1.546  15.818  22.894  0.00  0.00    +0.000 OA
BRANCH  17  18
ATOM     18  C   UNL     1       0.135  15.797  23.114  0.00  0.00    +0.000 C 
BRANCH  18  21
ATOM     19 CL   UNL     1       0.079  13.798  20.712  0.00  0.00    +0.000 Cl
ATOM     20 CL   UNL     1      -1.323  18.561  23.101  0.00  0.00    +0.000 Cl
ATOM     21  C   UNL     1      -0.644  16.186  21.879  0.00  0.00    +0.000 A 
ATOM     22  C   UNL     1      -0.722  15.332  20.761  0.00  0.00    +0.000 A 
ATOM     23  C   UNL     1      -1.317  17.419  21.800  0.00  0.00    +0.000 A 
ATOM     24  C   UNL     1      -1.467  15.684  19.626  0.00  0.00    +0.000 A 
ATOM     25  C   UNL     1      -2.048  17.773  20.658  0.00  0.00    +0.000 A 
ATOM     26  C   UNL     1      -2.131  16.903  19.574  0.00  0.00    +0.000 A 
ENDBRANCH  18  21
ENDBRANCH  17  18
ENDBRANCH  15  17
ENDBRANCH   4  16
TORSDOF 5
ENDMDL
MODEL 6
REMARK VINA RESULT:      -5.2     21.555     23.808
REMARK  Name = 5930083
REMARK  5 active torsions:
REMARK  status: ('A' for Active; 'I' for Inactive)
REMARK    1  A    between atoms: O_4  and  N_7
REMARK    2  A    between atoms: O_4  and  C_20
REMARK    3  A    between atoms: C_8  and  C_13
REMARK    4  A    between atoms: C_9  and  C_11
REMARK    5  A    between atoms: C_17  and  C_20
REMARK                            x       y       z     vdW  Elec       q    Type
REMARK                         _______ _______ _______ _____ _____    ______ ____
ROOT
ATOM      1  S   UNL     1     -17.686  10.584  19.301  0.00  0.00    +0.000 S 
ATOM      2  N   UNL     1     -15.518  10.572  20.676  0.00  0.00    +0.000 N 
ATOM      3  N   UNL     1     -16.265   8.477  20.498  0.00  0.00    +0.000 NA
ATOM      4  C   UNL     1     -14.624   9.820  21.402  0.00  0.00    +0.000 A 
ATOM      5  C   UNL     1     -15.106   8.513  21.260  0.00  0.00    +0.000 A 
ATOM      6  C   UNL     1     -16.475   9.727  20.210  0.00  0.00    +0.000 A 
ATOM      7  C   UNL     1     -15.671  11.892  20.302  0.00  0.00    +0.000 A 
ATOM      8  C   UNL     1     -16.791  12.084  19.588  0.00  0.00    +0.000 A 
ENDROOT
BRANCH   5   9
ATOM      9  C   UNL     1     -14.501   7.295  21.795  0.00  0.00    +0.000 A 
ATOM     10  C   UNL     1     -15.149   6.603  22.829  0.00  0.00    +0.000 A 
ATOM     11  C   UNL     1     -13.294   6.779  21.301  0.00  0.00    +0.000 A 
ATOM     12  C   UNL     1     -14.643   5.390  23.304  0.00  0.00    +0.000 A 
ATOM     13  C   UNL     1     -12.797   5.557  21.764  0.00  0.00    +0.000 A 
ATOM     14  C   UNL     1     -13.477   4.856  22.755  0.00  0.00    +0.000 A 
ENDBRANCH   5   9
BRANCH   4  16
ATOM     15  N   UNL     1     -12.256  10.421  21.585  0.00  0.00    +0.000 NA
ATOM     16  C   UNL     1     -13.455  10.307  22.079  0.00  0.00    +0.000 C 
BRANCH  15  17
ATOM     17  O   UNL     1     -12.198  10.048  20.234  0.00  0.00    +0.000 OA
BRANCH  17  18
ATOM     18  C   UNL     1     -10.844   9.959  19.788  0.00  0.00    +0.000 C 
BRANCH  18  21
ATOM     19 CL   UNL     1     -10.357  12.447  17.960  0.00  0.00    +0.000 Cl
ATOM     20 CL   UNL     1     -11.145   7.044  18.703  0.00  0.00    +0.000 Cl
ATOM     21  C   UNL     1     -10.744   9.740  18.297  0.00  0.00    +0.000 A 
ATOM     22  C   UNL     1     -10.516  10.812  17.411  0.00  0.00    +0.000 A 
ATOM     23  C   UNL     1     -10.879   8.456  17.737  0.00  0.00    +0.000 A 
ATOM     24  C   UNL     1     -10.398  10.602  16.030  0.00  0.00    +0.000 A 
ATOM     25  C   UNL     1     -10.775   8.254  16.355  0.00  0.00    +0.000 A 
ATOM     26  C   UNL     1     -10.526   9.325  15.500  0.00  0.00    +0.000 A 
ENDBRANCH  18  21
ENDBRANCH  17  18
ENDBRANCH  15  17
ENDBRANCH   4  16
TORSDOF 5
ENDMDL
MODEL 7
REMARK VINA RESULT:      -5.2     29.304     30.726
REMARK  Name = 5930083
REMARK  5 active torsions:
REMARK  status: ('A' for Active; 'I' for Inactive)
REMARK    1  A    between atoms: O_4  and  N_7
REMARK    2  A    between atoms: O_4  and  C_20
REMARK    3  A    between atoms: C_8  and  C_13
REMARK    4  A    between atoms: C_9  and  C_11
REMARK    5  A    between atoms: C_17  and  C_20
REMARK                            x       y       z     vdW  Elec       q    Type
REMARK                         _______ _______ _______ _____ _____    ______ ____
ROOT
ATOM      1  S   UNL     1       2.770  21.091  23.410  0.00  0.00    +0.000 S 
ATOM      2  N   UNL     1       2.887  18.596  24.005  0.00  0.00    +0.000 N 
ATOM      3  N   UNL     1       4.608  19.097  22.677  0.00  0.00    +0.000 NA
ATOM      4  C   UNL     1       3.542  17.402  23.818  0.00  0.00    +0.000 A 
ATOM      5  C   UNL     1       4.623  17.747  22.997  0.00  0.00    +0.000 A 
ATOM      6  C   UNL     1       3.542  19.538  23.274  0.00  0.00    +0.000 A 
ATOM      7  C   UNL     1       1.805  19.062  24.724  0.00  0.00    +0.000 A 
ATOM      8  C   UNL     1       1.581  20.367  24.503  0.00  0.00    +0.000 A 
ENDROOT
BRANCH   5   9
ATOM      9  C   UNL     1       5.682  16.858  22.526  0.00  0.00    +0.000 A 
ATOM     10  C   UNL     1       6.765  16.571  23.371  0.00  0.00    +0.000 A 
ATOM     11  C   UNL     1       5.652  16.263  21.256  0.00  0.00    +0.000 A 
ATOM     12  C   UNL     1       7.751  15.658  22.985  0.00  0.00    +0.000 A 
ATOM     13  C   UNL     1       6.629  15.337  20.877  0.00  0.00    +0.000 A 
ATOM     14  C   UNL     1       7.670  15.025  21.746  0.00  0.00    +0.000 A 
ENDBRANCH   5   9
BRANCH   4  16
ATOM     15  N   UNL     1       2.222  15.348  24.030  0.00  0.00    +0.000 NA
ATOM     16  C   UNL     1       3.189  16.138  24.400  0.00  0.00    +0.000 C 
BRANCH  15  17
ATOM     17  O   UNL     1       1.531  15.840  22.912  0.00  0.00    +0.000 OA
BRANCH  17  18
ATOM     18  C   UNL     1       0.119  15.755  23.109  0.00  0.00    +0.000 C 
BRANCH  18  21
ATOM     19 CL   UNL     1      -1.323  18.528  23.130  0.00  0.00    +0.000 Cl
ATOM     20 CL   UNL     1       0.036  13.778  20.690  0.00  0.00    +0.000 Cl
ATOM     21  C   UNL     1      -0.657  16.165  21.880  0.00  0.00    +0.000 A 
ATOM     22  C   UNL     1      -1.326  17.404  21.813  0.00  0.00    +0.000 A 
ATOM     23  C   UNL     1      -0.746  15.321  20.757  0.00  0.00    +0.000 A 
ATOM     24  C   UNL     1      -2.024  17.793  20.661  0.00  0.00    +0.000 A 
ATOM     25  C   UNL     1      -1.457  15.708  19.614  0.00  0.00    +0.000 A 
ATOM     26  C   UNL     1      -2.090  16.947  19.561  0.00  0.00    +0.000 A 
ENDBRANCH  18  21
ENDBRANCH  17  18
ENDBRANCH  15  17
ENDBRANCH   4  16
TORSDOF 5
ENDMDL
MODEL 8
REMARK VINA RESULT:      -5.2     25.229     27.335
REMARK  Name = 5930083
REMARK  5 active torsions:
REMARK  status: ('A' for Active; 'I' for Inactive)
REMARK    1  A    between atoms: O_4  and  N_7
REMARK    2  A    between atoms: O_4  and  C_20
REMARK    3  A    between atoms: C_8  and  C_13
REMARK    4  A    between atoms: C_9  and  C_11
REMARK    5  A    between atoms: C_17  and  C_20
REMARK                            x       y       z     vdW  Elec       q    Type
REMARK                         _______ _______ _______ _____ _____    ______ ____
ROOT
ATOM      1  S   UNL     1      16.089  11.100   3.715  0.00  0.00    +0.000 S 
ATOM      2  N   UNL     1      15.263   9.098   5.095  0.00  0.00    +0.000 N 
ATOM      3  N   UNL     1      14.506   8.890   3.006  0.00  0.00    +0.000 NA
ATOM      4  C   UNL     1      14.502   7.953   5.112  0.00  0.00    +0.000 A 
ATOM      5  C   UNL     1      14.055   7.837   3.790  0.00  0.00    +0.000 A 
ATOM      6  C   UNL     1      15.186   9.618   3.840  0.00  0.00    +0.000 A 
ATOM      7  C   UNL     1      16.058   9.806   5.974  0.00  0.00    +0.000 A 
ATOM      8  C   UNL     1      16.557  10.919   5.413  0.00  0.00    +0.000 A 
ENDROOT
BRANCH   5   9
ATOM      9  C   UNL     1      13.241   6.760   3.233  0.00  0.00    +0.000 A 
ATOM     10  C   UNL     1      13.800   5.904   2.272  0.00  0.00    +0.000 A 
ATOM     11  C   UNL     1      11.917   6.536   3.634  0.00  0.00    +0.000 A 
ATOM     12  C   UNL     1      13.078   4.811   1.781  0.00  0.00    +0.000 A 
ATOM     13  C   UNL     1      11.201   5.434   3.157  0.00  0.00    +0.000 A 
ATOM     14  C   UNL     1      11.786   4.564   2.242  0.00  0.00    +0.000 A 
ENDBRANCH   5   9
BRANCH   4  16
ATOM     15  N   UNL     1      13.344   7.160   7.120  0.00  0.00    +0.000 NA
ATOM     16  C   UNL     1      14.297   7.085   6.237  0.00  0.00    +0.000 C 
BRANCH  15  17
ATOM     17  O   UNL     1      12.442   8.199   6.844  0.00  0.00    +0.000 OA
BRANCH  17  18
ATOM     18  C   UNL     1      11.187   7.967   7.484  0.00  0.00    +0.000 C 
BRANCH  18  21
ATOM     19 CL   UNL     1       9.870   5.133   7.505  0.00  0.00    +0.000 Cl
ATOM     20 CL   UNL     1      10.350  10.251   5.522  0.00  0.00    +0.000 Cl
ATOM     21  C   UNL     1      10.081   7.686   6.494  0.00  0.00    +0.000 A 
ATOM     22  C   UNL     1       9.434   6.435   6.450  0.00  0.00    +0.000 A 
ATOM     23  C   UNL     1       9.659   8.665   5.574  0.00  0.00    +0.000 A 
ATOM     24  C   UNL     1       8.390   6.186   5.548  0.00  0.00    +0.000 A 
ATOM     25  C   UNL     1       8.626   8.406   4.664  0.00  0.00    +0.000 A 
ATOM     26  C   UNL     1       7.984   7.170   4.655  0.00  0.00    +0.000 A 
ENDBRANCH  18  21
ENDBRANCH  17  18
ENDBRANCH  15  17
ENDBRANCH   4  16
TORSDOF 5
ENDMDL
MODEL 9
REMARK VINA RESULT:      -5.2      3.996      6.142
REMARK  Name = 5930083
REMARK  5 active torsions:
REMARK  status: ('A' for Active; 'I' for Inactive)
REMARK    1  A    between atoms: O_4  and  N_7
REMARK    2  A    between atoms: O_4  and  C_20
REMARK    3  A    between atoms: C_8  and  C_13
REMARK    4  A    between atoms: C_9  and  C_11
REMARK    5  A    between atoms: C_17  and  C_20
REMARK                            x       y       z     vdW  Elec       q    Type
REMARK                         _______ _______ _______ _____ _____    ______ ____
ROOT
ATOM      1  S   UNL     1      -9.627  -9.443   8.379  0.00  0.00    +0.000 S 
ATOM      2  N   UNL     1      -7.083  -9.123   8.506  0.00  0.00    +0.000 N 
ATOM      3  N   UNL     1      -7.513 -11.015   7.403  0.00  0.00    +0.000 NA
ATOM      4  C   UNL     1      -5.845  -9.650   8.220  0.00  0.00    +0.000 A 
ATOM      5  C   UNL     1      -6.144 -10.823   7.516  0.00  0.00    +0.000 A 
ATOM      6  C   UNL     1      -8.014  -9.996   8.036  0.00  0.00    +0.000 A 
ATOM      7  C   UNL     1      -7.594  -7.986   9.099  0.00  0.00    +0.000 A 
ATOM      8  C   UNL     1      -8.935  -8.003   9.143  0.00  0.00    +0.000 A 
ENDROOT
BRANCH   5   9
ATOM      9  C   UNL     1      -5.187 -11.755   6.924  0.00  0.00    +0.000 A 
ATOM     10  C   UNL     1      -4.674 -11.492   5.645  0.00  0.00    +0.000 A 
ATOM     11  C   UNL     1      -4.748 -12.905   7.596  0.00  0.00    +0.000 A 
ATOM     12  C   UNL     1      -3.694 -12.317   5.085  0.00  0.00    +0.000 A 
ATOM     13  C   UNL     1      -3.754 -13.720   7.043  0.00  0.00    +0.000 A 
ATOM     14  C   UNL     1      -3.218 -13.419   5.795  0.00  0.00    +0.000 A 
ENDBRANCH   5   9
BRANCH   4  16
ATOM     15  N   UNL     1      -3.928  -9.162   9.665  0.00  0.00    +0.000 NA
ATOM     16  C   UNL     1      -4.576  -9.061   8.541  0.00  0.00    +0.000 C 
BRANCH  15  17
ATOM     17  O   UNL     1      -4.590  -9.985  10.590  0.00  0.00    +0.000 OA
BRANCH  17  18
ATOM     18  C   UNL     1      -3.771 -11.096  10.959  0.00  0.00    +0.000 C 
BRANCH  18  21
ATOM     19 CL   UNL     1      -5.597 -12.495  13.074  0.00  0.00    +0.000 Cl
ATOM     20 CL   UNL     1      -1.131  -9.584  11.678  0.00  0.00    +0.000 Cl
ATOM     21  C   UNL     1      -3.353 -11.043  12.409  0.00  0.00    +0.000 A 
ATOM     22  C   UNL     1      -4.120 -11.659  13.418  0.00  0.00    +0.000 A 
ATOM     23  C   UNL     1      -2.181 -10.372  12.807  0.00  0.00    +0.000 A 
ATOM     24  C   UNL     1      -3.716 -11.631  14.760  0.00  0.00    +0.000 A 
ATOM     25  C   UNL     1      -1.789 -10.334  14.152  0.00  0.00    +0.000 A 
ATOM     26  C   UNL     1      -2.551 -10.970  15.128  0.00  0.00    +0.000 A 
ENDBRANCH  18  21
ENDBRANCH  17  18
ENDBRANCH  15  17
ENDBRANCH   4  16
TORSDOF 5
ENDMDL
MODEL 10
REMARK VINA RESULT:      -5.1     25.170     27.518
REMARK  Name = 5930083
REMARK  5 active torsions:
REMARK  status: ('A' for Active; 'I' for Inactive)
REMARK    1  A    between atoms: O_4  and  N_7
REMARK    2  A    between atoms: O_4  and  C_20
REMARK    3  A    between atoms: C_8  and  C_13
REMARK    4  A    between atoms: C_9  and  C_11
REMARK    5  A    between atoms: C_17  and  C_20
REMARK                            x       y       z     vdW  Elec       q    Type
REMARK                         _______ _______ _______ _____ _____    ______ ____
ROOT
ATOM      1  S   UNL     1       8.642  10.221   3.175  0.00  0.00    +0.000 S 
ATOM      2  N   UNL     1       9.469   7.952   4.046  0.00  0.00    +0.000 N 
ATOM      3  N   UNL     1      11.239   9.207   3.521  0.00  0.00    +0.000 NA
ATOM      4  C   UNL     1      10.555   7.145   4.292  0.00  0.00    +0.000 A 
ATOM      5  C   UNL     1      11.648   7.960   3.971  0.00  0.00    +0.000 A 
ATOM      6  C   UNL     1       9.942   9.130   3.557  0.00  0.00    +0.000 A 
ATOM      7  C   UNL     1       8.097   7.883   4.182  0.00  0.00    +0.000 A 
ATOM      8  C   UNL     1       7.494   8.997   3.738  0.00  0.00    +0.000 A 
ENDROOT
BRANCH   5   9
ATOM      9  C   UNL     1      13.062   7.616   4.097  0.00  0.00    +0.000 A 
ATOM     10  C   UNL     1      13.767   7.182   2.963  0.00  0.00    +0.000 A 
ATOM     11  C   UNL     1      13.753   7.717   5.313  0.00  0.00    +0.000 A 
ATOM     12  C   UNL     1      15.140   6.927   3.029  0.00  0.00    +0.000 A 
ATOM     13  C   UNL     1      15.130   7.479   5.375  0.00  0.00    +0.000 A 
ATOM     14  C   UNL     1      15.825   7.097   4.231  0.00  0.00    +0.000 A 
ENDBRANCH   5   9
BRANCH   4  16
ATOM     15  N   UNL     1      10.716   4.704   4.148  0.00  0.00    +0.000 NA
ATOM     16  C   UNL     1      10.520   5.807   4.812  0.00  0.00    +0.000 C 
BRANCH  15  17
ATOM     17  O   UNL     1      11.031   4.941   2.801  0.00  0.00    +0.000 OA
BRANCH  17  18
ATOM     18  C   UNL     1      11.720   3.825   2.236  0.00  0.00    +0.000 C 
BRANCH  18  21
ATOM     19 CL   UNL     1       9.885   4.896  -0.055  0.00  0.00    +0.000 Cl
ATOM     20 CL   UNL     1      14.801   3.394   1.930  0.00  0.00    +0.000 Cl
ATOM     21  C   UNL     1      12.358   4.158   0.908  0.00  0.00    +0.000 A 
ATOM     22  C   UNL     1      11.596   4.654  -0.169  0.00  0.00    +0.000 A 
ATOM     23  C   UNL     1      13.738   3.980   0.695  0.00  0.00    +0.000 A 
ATOM     24  C   UNL     1      12.194   4.987  -1.392  0.00  0.00    +0.000 A 
ATOM     25  C   UNL     1      14.328   4.299  -0.534  0.00  0.00    +0.000 A 
ATOM     26  C   UNL     1      13.560   4.811  -1.576  0.00  0.00    +0.000 A 
ENDBRANCH  18  21
ENDBRANCH  17  18
ENDBRANCH  15  17
ENDBRANCH   4  16
TORSDOF 5
ENDMDL
