MODEL 1
REMARK VINA RESULT:      -5.1      0.000      0.000
REMARK  Name = 5930083
REMARK  5 active torsions:
REMARK  status: ('A' for Active; 'I' for Inactive)
REMARK    1  A    between atoms: O_4  and  N_7
REMARK    2  A    between atoms: O_4  and  C_20
REMARK    3  A    between atoms: C_8  and  C_13
REMARK    4  A    between atoms: C_9  and  C_11
REMARK    5  A    between atoms: C_17  and  C_20
REMARK                            x       y       z     vdW  Elec       q    Type
REMARK                         _______ _______ _______ _____ _____    ______ ____
ROOT
ATOM      1  S   UNL     1     -24.679   3.627 -55.260  0.00  0.00    +0.000 S 
ATOM      2  N   UNL     1     -23.599   5.800 -54.422  0.00  0.00    +0.000 N 
ATOM      3  N   UNL     1     -22.406   5.023 -56.140  0.00  0.00    +0.000 NA
ATOM      4  C   UNL     1     -22.555   6.685 -54.550  0.00  0.00    +0.000 A 
ATOM      5  C   UNL     1     -21.834   6.185 -55.642  0.00  0.00    +0.000 A 
ATOM      6  C   UNL     1     -23.425   4.828 -55.358  0.00  0.00    +0.000 A 
ATOM      7  C   UNL     1     -24.730   5.664 -53.641  0.00  0.00    +0.000 A 
ATOM      8  C   UNL     1     -25.409   4.544 -53.934  0.00  0.00    +0.000 A 
ENDROOT
BRANCH   5   9
ATOM      9  C   UNL     1     -20.643   6.775 -56.247  0.00  0.00    +0.000 A 
ATOM     10  C   UNL     1     -19.931   7.759 -55.545  0.00  0.00    +0.000 A 
ATOM     11  C   UNL     1     -20.171   6.383 -57.508  0.00  0.00    +0.000 A 
ATOM     12  C   UNL     1     -18.740   8.283 -56.057  0.00  0.00    +0.000 A 
ATOM     13  C   UNL     1     -18.970   6.893 -58.013  0.00  0.00    +0.000 A 
ATOM     14  C   UNL     1     -18.249   7.832 -57.282  0.00  0.00    +0.000 A 
ENDBRANCH   5   9
BRANCH   4  16
ATOM     15  N   UNL     1     -22.777   9.063 -54.005  0.00  0.00    +0.000 NA
ATOM     16  C   UNL     1     -22.337   7.863 -53.759  0.00  0.00    +0.000 C 
BRANCH  15  17
ATOM     17  O   UNL     1     -23.574   9.113 -55.159  0.00  0.00    +0.000 OA
BRANCH  17  18
ATOM     18  C   UNL     1     -23.300  10.292 -55.917  0.00  0.00    +0.000 C 
BRANCH  18  21
ATOM     19 CL   UNL     1     -24.346   8.090 -57.872  0.00  0.00    +0.000 Cl
ATOM     20 CL   UNL     1     -20.674  11.921 -56.386  0.00  0.00    +0.000 Cl
ATOM     21  C   UNL     1     -22.494  10.001 -57.160  0.00  0.00    +0.000 A 
ATOM     22  C   UNL     1     -22.908   9.029 -58.093  0.00  0.00    +0.000 A 
ATOM     23  C   UNL     1     -21.297  10.689 -57.432  0.00  0.00    +0.000 A 
ATOM     24  C   UNL     1     -22.172   8.779 -59.260  0.00  0.00    +0.000 A 
ATOM     25  C   UNL     1     -20.557  10.426 -58.592  0.00  0.00    +0.000 A 
ATOM     26  C   UNL     1     -20.997   9.477 -59.511  0.00  0.00    +0.000 A 
ENDBRANCH  18  21
ENDBRANCH  17  18
ENDBRANCH  15  17
ENDBRANCH   4  16
TORSDOF 5
ENDMDL
MODEL 2
REMARK VINA RESULT:      -5.0     17.849     19.811
REMARK  Name = 5930083
REMARK  5 active torsions:
REMARK  status: ('A' for Active; 'I' for Inactive)
REMARK    1  A    between atoms: O_4  and  N_7
REMARK    2  A    between atoms: O_4  and  C_20
REMARK    3  A    between atoms: C_8  and  C_13
REMARK    4  A    between atoms: C_9  and  C_11
REMARK    5  A    between atoms: C_17  and  C_20
REMARK                            x       y       z     vdW  Elec       q    Type
REMARK                         _______ _______ _______ _____ _____    ______ ____
ROOT
ATOM      1  S   UNL     1      -5.054  -7.535 -53.795  0.00  0.00    +0.000 S 
ATOM      2  N   UNL     1      -5.647  -5.656 -52.150  0.00  0.00    +0.000 N 
ATOM      3  N   UNL     1      -6.200  -5.004 -54.211  0.00  0.00    +0.000 NA
ATOM      4  C   UNL     1      -6.127  -4.377 -51.994  0.00  0.00    +0.000 A 
ATOM      5  C   UNL     1      -6.482  -4.000 -53.296  0.00  0.00    +0.000 A 
ATOM      6  C   UNL     1      -5.679  -5.943 -53.479  0.00  0.00    +0.000 A 
ATOM      7  C   UNL     1      -5.184  -6.675 -51.342  0.00  0.00    +0.000 A 
ATOM      8  C   UNL     1      -4.797  -7.744 -52.057  0.00  0.00    +0.000 A 
ENDROOT
BRANCH   5   9
ATOM      9  C   UNL     1      -7.098  -2.740 -53.704  0.00  0.00    +0.000 A 
ATOM     10  C   UNL     1      -6.918  -2.282 -55.018  0.00  0.00    +0.000 A 
ATOM     11  C   UNL     1      -7.880  -1.971 -52.831  0.00  0.00    +0.000 A 
ATOM     12  C   UNL     1      -7.564  -1.126 -55.467  0.00  0.00    +0.000 A 
ATOM     13  C   UNL     1      -8.540  -0.824 -53.285  0.00  0.00    +0.000 A 
ATOM     14  C   UNL     1      -8.393  -0.409 -54.605  0.00  0.00    +0.000 A 
ENDBRANCH   5   9
BRANCH   4  16
ATOM     15  N   UNL     1      -5.493  -2.720 -50.304  0.00  0.00    +0.000 NA
ATOM     16  C   UNL     1      -6.266  -3.665 -50.755  0.00  0.00    +0.000 C 
BRANCH  15  17
ATOM     17  O   UNL     1      -4.467  -2.396 -51.205  0.00  0.00    +0.000 OA
BRANCH  17  18
ATOM     18  C   UNL     1      -4.041  -1.045 -51.025  0.00  0.00    +0.000 C 
BRANCH  18  21
ATOM     19 CL   UNL     1      -5.943   1.341 -50.348  0.00  0.00    +0.000 Cl
ATOM     20 CL   UNL     1      -3.022  -1.683 -53.910  0.00  0.00    +0.000 Cl
ATOM     21  C   UNL     1      -4.490  -0.147 -52.154  0.00  0.00    +0.000 A 
ATOM     22  C   UNL     1      -5.339   0.953 -51.925  0.00  0.00    +0.000 A 
ATOM     23  C   UNL     1      -4.077  -0.380 -53.480  0.00  0.00    +0.000 A 
ATOM     24  C   UNL     1      -5.733   1.800 -52.970  0.00  0.00    +0.000 A 
ATOM     25  C   UNL     1      -4.486   0.460 -54.524  0.00  0.00    +0.000 A 
ATOM     26  C   UNL     1      -5.307   1.556 -54.269  0.00  0.00    +0.000 A 
ENDBRANCH  18  21
ENDBRANCH  17  18
ENDBRANCH  15  17
ENDBRANCH   4  16
TORSDOF 5
ENDMDL
MODEL 3
REMARK VINA RESULT:      -4.9     17.411     19.001
REMARK  Name = 5930083
REMARK  5 active torsions:
REMARK  status: ('A' for Active; 'I' for Inactive)
REMARK    1  A    between atoms: O_4  and  N_7
REMARK    2  A    between atoms: O_4  and  C_20
REMARK    3  A    between atoms: C_8  and  C_13
REMARK    4  A    between atoms: C_9  and  C_11
REMARK    5  A    between atoms: C_17  and  C_20
REMARK                            x       y       z     vdW  Elec       q    Type
REMARK                         _______ _______ _______ _____ _____    ______ ____
ROOT
ATOM      1  S   UNL     1      -4.990   0.805 -59.896  0.00  0.00    +0.000 S 
ATOM      2  N   UNL     1      -4.117   1.026 -57.492  0.00  0.00    +0.000 N 
ATOM      3  N   UNL     1      -4.688   3.051 -58.236  0.00  0.00    +0.000 NA
ATOM      4  C   UNL     1      -3.802   1.879 -56.461  0.00  0.00    +0.000 A 
ATOM      5  C   UNL     1      -4.184   3.136 -56.946  0.00  0.00    +0.000 A 
ATOM      6  C   UNL     1      -4.592   1.785 -58.516  0.00  0.00    +0.000 A 
ATOM      7  C   UNL     1      -4.095  -0.333 -57.733  0.00  0.00    +0.000 A 
ATOM      8  C   UNL     1      -4.501  -0.628 -58.978  0.00  0.00    +0.000 A 
ENDROOT
BRANCH   5   9
ATOM      9  C   UNL     1      -4.116   4.408 -56.231  0.00  0.00    +0.000 A 
ATOM     10  C   UNL     1      -4.758   4.532 -54.990  0.00  0.00    +0.000 A 
ATOM     11  C   UNL     1      -3.417   5.514 -56.734  0.00  0.00    +0.000 A 
ATOM     12  C   UNL     1      -4.642   5.707 -54.240  0.00  0.00    +0.000 A 
ATOM     13  C   UNL     1      -3.286   6.682 -55.976  0.00  0.00    +0.000 A 
ATOM     14  C   UNL     1      -3.886   6.773 -54.724  0.00  0.00    +0.000 A 
ENDBRANCH   5   9
BRANCH   4  16
ATOM     15  N   UNL     1      -3.928   1.081 -54.148  0.00  0.00    +0.000 NA
ATOM     16  C   UNL     1      -3.263   1.506 -55.183  0.00  0.00    +0.000 C 
BRANCH  15  17
ATOM     17  O   UNL     1      -5.302   0.964 -54.407  0.00  0.00    +0.000 OA
BRANCH  17  18
ATOM     18  C   UNL     1      -6.060   1.089 -53.203  0.00  0.00    +0.000 C 
BRANCH  18  21
ATOM     19 CL   UNL     1      -4.425  -0.450 -51.029  0.00  0.00    +0.000 Cl
ATOM     20 CL   UNL     1      -8.728   0.027 -54.438  0.00  0.00    +0.000 Cl
ATOM     21  C   UNL     1      -6.590  -0.240 -52.719  0.00  0.00    +0.000 A 
ATOM     22  C   UNL     1      -5.913  -0.987 -51.734  0.00  0.00    +0.000 A 
ATOM     23  C   UNL     1      -7.781  -0.784 -53.237  0.00  0.00    +0.000 A 
ATOM     24  C   UNL     1      -6.421  -2.207 -51.267  0.00  0.00    +0.000 A 
ATOM     25  C   UNL     1      -8.276  -2.011 -52.778  0.00  0.00    +0.000 A 
ATOM     26  C   UNL     1      -7.602  -2.720 -51.787  0.00  0.00    +0.000 A 
ENDBRANCH  18  21
ENDBRANCH  17  18
ENDBRANCH  15  17
ENDBRANCH   4  16
TORSDOF 5
ENDMDL
MODEL 4
REMARK VINA RESULT:      -4.8     23.631     25.451
REMARK  Name = 5930083
REMARK  5 active torsions:
REMARK  status: ('A' for Active; 'I' for Inactive)
REMARK    1  A    between atoms: O_4  and  N_7
REMARK    2  A    between atoms: O_4  and  C_20
REMARK    3  A    between atoms: C_8  and  C_13
REMARK    4  A    between atoms: C_9  and  C_11
REMARK    5  A    between atoms: C_17  and  C_20
REMARK                            x       y       z     vdW  Elec       q    Type
REMARK                         _______ _______ _______ _____ _____    ______ ____
ROOT
ATOM      1  S   UNL     1     -11.526   9.161 -33.481  0.00  0.00    +0.000 S 
ATOM      2  N   UNL     1     -11.343   7.255 -35.191  0.00  0.00    +0.000 N 
ATOM      3  N   UNL     1      -9.287   7.861 -34.572  0.00  0.00    +0.000 NA
ATOM      4  C   UNL     1     -10.505   6.461 -35.938  0.00  0.00    +0.000 A 
ATOM      5  C   UNL     1      -9.227   6.848 -35.519  0.00  0.00    +0.000 A 
ATOM      6  C   UNL     1     -10.561   8.080 -34.444  0.00  0.00    +0.000 A 
ATOM      7  C   UNL     1     -12.702   7.406 -35.001  0.00  0.00    +0.000 A 
ATOM      8  C   UNL     1     -12.980   8.399 -34.142  0.00  0.00    +0.000 A 
ENDROOT
BRANCH   5   9
ATOM      9  C   UNL     1      -7.953   6.284 -35.958  0.00  0.00    +0.000 A 
ATOM     10  C   UNL     1      -7.509   5.075 -35.400  0.00  0.00    +0.000 A 
ATOM     11  C   UNL     1      -7.157   6.900 -36.934  0.00  0.00    +0.000 A 
ATOM     12  C   UNL     1      -6.338   4.464 -35.859  0.00  0.00    +0.000 A 
ATOM     13  C   UNL     1      -5.995   6.279 -37.405  0.00  0.00    +0.000 A 
ATOM     14  C   UNL     1      -5.594   5.056 -36.878  0.00  0.00    +0.000 A 
ENDBRANCH   5   9
BRANCH   4  16
ATOM     15  N   UNL     1     -11.149   4.194 -36.611  0.00  0.00    +0.000 NA
ATOM     16  C   UNL     1     -10.904   5.446 -36.872  0.00  0.00    +0.000 C 
BRANCH  15  17
ATOM     17  O   UNL     1     -11.030   3.902 -35.243  0.00  0.00    +0.000 OA
BRANCH  17  18
ATOM     18  C   UNL     1     -10.791   2.509 -35.040  0.00  0.00    +0.000 C 
BRANCH  18  21
ATOM     19 CL   UNL     1     -13.727   2.160 -34.028  0.00  0.00    +0.000 Cl
ATOM     20 CL   UNL     1      -8.274   2.056 -33.243  0.00  0.00    +0.000 Cl
ATOM     21  C   UNL     1     -11.006   2.094 -33.604  0.00  0.00    +0.000 A 
ATOM     22  C   UNL     1     -12.301   1.908 -33.079  0.00  0.00    +0.000 A 
ATOM     23  C   UNL     1      -9.920   1.881 -32.734  0.00  0.00    +0.000 A 
ATOM     24  C   UNL     1     -12.497   1.497 -31.753  0.00  0.00    +0.000 A 
ATOM     25  C   UNL     1     -10.122   1.486 -31.406  0.00  0.00    +0.000 A 
ATOM     26  C   UNL     1     -11.410   1.285 -30.916  0.00  0.00    +0.000 A 
ENDBRANCH  18  21
ENDBRANCH  17  18
ENDBRANCH  15  17
ENDBRANCH   4  16
TORSDOF 5
ENDMDL
MODEL 5
REMARK VINA RESULT:      -4.7      2.941      4.298
REMARK  Name = 5930083
REMARK  5 active torsions:
REMARK  status: ('A' for Active; 'I' for Inactive)
REMARK    1  A    between atoms: O_4  and  N_7
REMARK    2  A    between atoms: O_4  and  C_20
REMARK    3  A    between atoms: C_8  and  C_13
REMARK    4  A    between atoms: C_9  and  C_11
REMARK    5  A    between atoms: C_17  and  C_20
REMARK                            x       y       z     vdW  Elec       q    Type
REMARK                         _______ _______ _______ _____ _____    ______ ____
ROOT
ATOM      1  S   UNL     1     -23.916   9.050 -51.031  0.00  0.00    +0.000 S 
ATOM      2  N   UNL     1     -23.642   9.468 -53.549  0.00  0.00    +0.000 N 
ATOM      3  N   UNL     1     -22.185   7.899 -52.921  0.00  0.00    +0.000 NA
ATOM      4  C   UNL     1     -22.939   9.167 -54.692  0.00  0.00    +0.000 A 
ATOM      5  C   UNL     1     -22.047   8.172 -54.275  0.00  0.00    +0.000 A 
ATOM      6  C   UNL     1     -23.119   8.719 -52.542  0.00  0.00    +0.000 A 
ATOM      7  C   UNL     1     -24.699  10.279 -53.188  0.00  0.00    +0.000 A 
ATOM      8  C   UNL     1     -24.962  10.203 -51.874  0.00  0.00    +0.000 A 
ENDROOT
BRANCH   5   9
ATOM      9  C   UNL     1     -21.088   7.451 -55.108  0.00  0.00    +0.000 A 
ATOM     10  C   UNL     1     -19.891   8.082 -55.480  0.00  0.00    +0.000 A 
ATOM     11  C   UNL     1     -21.312   6.137 -55.544  0.00  0.00    +0.000 A 
ATOM     12  C   UNL     1     -18.914   7.392 -56.205  0.00  0.00    +0.000 A 
ATOM     13  C   UNL     1     -20.327   5.441 -56.253  0.00  0.00    +0.000 A 
ATOM     14  C   UNL     1     -19.125   6.064 -56.572  0.00  0.00    +0.000 A 
ENDBRANCH   5   9
BRANCH   4  16
ATOM     15  N   UNL     1     -23.762   9.170 -57.000  0.00  0.00    +0.000 NA
ATOM     16  C   UNL     1     -23.152   9.730 -55.995  0.00  0.00    +0.000 C 
BRANCH  15  17
ATOM     17  O   UNL     1     -24.269   7.903 -56.675  0.00  0.00    +0.000 OA
BRANCH  17  18
ATOM     18  C   UNL     1     -24.840   7.274 -57.824  0.00  0.00    +0.000 C 
BRANCH  18  21
ATOM     19 CL   UNL     1     -26.544   4.873 -56.777  0.00  0.00    +0.000 Cl
ATOM     20 CL   UNL     1     -22.092   6.945 -59.278  0.00  0.00    +0.000 Cl
ATOM     21  C   UNL     1     -24.309   5.876 -58.036  0.00  0.00    +0.000 A 
ATOM     22  C   UNL     1     -25.025   4.744 -57.600  0.00  0.00    +0.000 A 
ATOM     23  C   UNL     1     -23.074   5.653 -58.675  0.00  0.00    +0.000 A 
ATOM     24  C   UNL     1     -24.543   3.446 -57.821  0.00  0.00    +0.000 A 
ATOM     25  C   UNL     1     -22.589   4.355 -58.880  0.00  0.00    +0.000 A 
ATOM     26  C   UNL     1     -23.326   3.250 -58.462  0.00  0.00    +0.000 A 
ENDBRANCH  18  21
ENDBRANCH  17  18
ENDBRANCH  15  17
ENDBRANCH   4  16
TORSDOF 5
ENDMDL
MODEL 6
REMARK VINA RESULT:      -4.7     17.693     19.477
REMARK  Name = 5930083
REMARK  5 active torsions:
REMARK  status: ('A' for Active; 'I' for Inactive)
REMARK    1  A    between atoms: O_4  and  N_7
REMARK    2  A    between atoms: O_4  and  C_20
REMARK    3  A    between atoms: C_8  and  C_13
REMARK    4  A    between atoms: C_9  and  C_11
REMARK    5  A    between atoms: C_17  and  C_20
REMARK                            x       y       z     vdW  Elec       q    Type
REMARK                         _______ _______ _______ _____ _____    ______ ____
ROOT
ATOM      1  S   UNL     1      -0.614  -0.809 -50.785  0.00  0.00    +0.000 S 
ATOM      2  N   UNL     1      -2.474   0.956 -50.901  0.00  0.00    +0.000 N 
ATOM      3  N   UNL     1      -3.289  -0.992 -51.625  0.00  0.00    +0.000 NA
ATOM      4  C   UNL     1      -3.771   1.234 -51.267  0.00  0.00    +0.000 A 
ATOM      5  C   UNL     1      -4.261  -0.005 -51.700  0.00  0.00    +0.000 A 
ATOM      6  C   UNL     1      -2.247  -0.356 -51.178  0.00  0.00    +0.000 A 
ATOM      7  C   UNL     1      -1.409   1.628 -50.337  0.00  0.00    +0.000 A 
ATOM      8  C   UNL     1      -0.324   0.846 -50.228  0.00  0.00    +0.000 A 
ENDROOT
BRANCH   5   9
ATOM      9  C   UNL     1      -5.617  -0.297 -52.157  0.00  0.00    +0.000 A 
ATOM     10  C   UNL     1      -5.964  -0.035 -53.491  0.00  0.00    +0.000 A 
ATOM     11  C   UNL     1      -6.591  -0.848 -51.311  0.00  0.00    +0.000 A 
ATOM     12  C   UNL     1      -7.226  -0.382 -53.983  0.00  0.00    +0.000 A 
ATOM     13  C   UNL     1      -7.847  -1.211 -51.808  0.00  0.00    +0.000 A 
ATOM     14  C   UNL     1      -8.159  -0.991 -53.146  0.00  0.00    +0.000 A 
ENDBRANCH   5   9
BRANCH   4  16
ATOM     15  N   UNL     1      -4.636   3.366 -52.107  0.00  0.00    +0.000 NA
ATOM     16  C   UNL     1      -4.433   2.503 -51.155  0.00  0.00    +0.000 C 
BRANCH  15  17
ATOM     17  O   UNL     1      -4.166   2.912 -53.348  0.00  0.00    +0.000 OA
BRANCH  17  18
ATOM     18  C   UNL     1      -5.082   3.246 -54.392  0.00  0.00    +0.000 C 
BRANCH  18  21
ATOM     19 CL   UNL     1      -4.458   1.400 -56.836  0.00  0.00    +0.000 Cl
ATOM     20 CL   UNL     1      -4.346   6.282 -54.282  0.00  0.00    +0.000 Cl
ATOM     21  C   UNL     1      -4.390   3.855 -55.589  0.00  0.00    +0.000 A 
ATOM     22  C   UNL     1      -4.085   3.088 -56.731  0.00  0.00    +0.000 A 
ATOM     23  C   UNL     1      -4.022   5.214 -55.605  0.00  0.00    +0.000 A 
ATOM     24  C   UNL     1      -3.467   3.663 -57.850  0.00  0.00    +0.000 A 
ATOM     25  C   UNL     1      -3.390   5.779 -56.720  0.00  0.00    +0.000 A 
ATOM     26  C   UNL     1      -3.120   5.008 -57.847  0.00  0.00    +0.000 A 
ENDBRANCH  18  21
ENDBRANCH  17  18
ENDBRANCH  15  17
ENDBRANCH   4  16
TORSDOF 5
ENDMDL
MODEL 7
REMARK VINA RESULT:      -4.6      2.888      4.649
REMARK  Name = 5930083
REMARK  5 active torsions:
REMARK  status: ('A' for Active; 'I' for Inactive)
REMARK    1  A    between atoms: O_4  and  N_7
REMARK    2  A    between atoms: O_4  and  C_20
REMARK    3  A    between atoms: C_8  and  C_13
REMARK    4  A    between atoms: C_9  and  C_11
REMARK    5  A    between atoms: C_17  and  C_20
REMARK                            x       y       z     vdW  Elec       q    Type
REMARK                         _______ _______ _______ _____ _____    ______ ____
ROOT
ATOM      1  S   UNL     1     -23.911   2.287 -56.071  0.00  0.00    +0.000 S 
ATOM      2  N   UNL     1     -23.954   4.853 -55.993  0.00  0.00    +0.000 N 
ATOM      3  N   UNL     1     -21.878   4.185 -56.469  0.00  0.00    +0.000 NA
ATOM      4  C   UNL     1     -23.223   6.015 -56.075  0.00  0.00    +0.000 A 
ATOM      5  C   UNL     1     -21.934   5.569 -56.390  0.00  0.00    +0.000 A 
ATOM      6  C   UNL     1     -23.094   3.818 -56.192  0.00  0.00    +0.000 A 
ATOM      7  C   UNL     1     -25.270   4.489 -55.790  0.00  0.00    +0.000 A 
ATOM      8  C   UNL     1     -25.424   3.156 -55.773  0.00  0.00    +0.000 A 
ENDROOT
BRANCH   5   9
ATOM      9  C   UNL     1     -20.759   6.400 -56.645  0.00  0.00    +0.000 A 
ATOM     10  C   UNL     1     -20.221   7.167 -55.600  0.00  0.00    +0.000 A 
ATOM     11  C   UNL     1     -20.134   6.450 -57.899  0.00  0.00    +0.000 A 
ATOM     12  C   UNL     1     -19.049   7.906 -55.786  0.00  0.00    +0.000 A 
ATOM     13  C   UNL     1     -18.951   7.174 -58.080  0.00  0.00    +0.000 A 
ATOM     14  C   UNL     1     -18.402   7.891 -57.021  0.00  0.00    +0.000 A 
ENDBRANCH   5   9
BRANCH   4  16
ATOM     15  N   UNL     1     -23.827   8.028 -54.817  0.00  0.00    +0.000 NA
ATOM     16  C   UNL     1     -23.729   7.350 -55.923  0.00  0.00    +0.000 C 
BRANCH  15  17
ATOM     17  O   UNL     1     -23.324   7.323 -53.713  0.00  0.00    +0.000 OA
BRANCH  17  18
ATOM     18  C   UNL     1     -22.484   8.159 -52.915  0.00  0.00    +0.000 C 
BRANCH  18  21
ATOM     19 CL   UNL     1     -22.577   6.467 -50.289  0.00  0.00    +0.000 Cl
ATOM     20 CL   UNL     1     -23.822  10.968 -53.214  0.00  0.00    +0.000 Cl
ATOM     21  C   UNL     1     -23.212   8.732 -51.722  0.00  0.00    +0.000 A 
ATOM     22  C   UNL     1     -23.288   8.032 -50.502  0.00  0.00    +0.000 A 
ATOM     23  C   UNL     1     -23.846   9.988 -51.787  0.00  0.00    +0.000 A 
ATOM     24  C   UNL     1     -23.942   8.578 -49.388  0.00  0.00    +0.000 A 
ATOM     25  C   UNL     1     -24.511  10.522 -50.676  0.00  0.00    +0.000 A 
ATOM     26  C   UNL     1     -24.552   9.822 -49.473  0.00  0.00    +0.000 A 
ENDBRANCH  18  21
ENDBRANCH  17  18
ENDBRANCH  15  17
ENDBRANCH   4  16
TORSDOF 5
ENDMDL
MODEL 8
REMARK VINA RESULT:      -4.5      2.428      4.278
REMARK  Name = 5930083
REMARK  5 active torsions:
REMARK  status: ('A' for Active; 'I' for Inactive)
REMARK    1  A    between atoms: O_4  and  N_7
REMARK    2  A    between atoms: O_4  and  C_20
REMARK    3  A    between atoms: C_8  and  C_13
REMARK    4  A    between atoms: C_9  and  C_11
REMARK    5  A    between atoms: C_17  and  C_20
REMARK                            x       y       z     vdW  Elec       q    Type
REMARK                         _______ _______ _______ _____ _____    ______ ____
ROOT
ATOM      1  S   UNL     1     -27.995   4.486 -56.458  0.00  0.00    +0.000 S 
ATOM      2  N   UNL     1     -25.473   4.046 -56.263  0.00  0.00    +0.000 N 
ATOM      3  N   UNL     1     -25.995   5.797 -54.983  0.00  0.00    +0.000 NA
ATOM      4  C   UNL     1     -24.274   4.461 -55.734  0.00  0.00    +0.000 A 
ATOM      5  C   UNL     1     -24.632   5.546 -54.924  0.00  0.00    +0.000 A 
ATOM      6  C   UNL     1     -26.432   4.900 -55.815  0.00  0.00    +0.000 A 
ATOM      7  C   UNL     1     -25.930   3.026 -57.074  0.00  0.00    +0.000 A 
ATOM      8  C   UNL     1     -27.249   3.124 -57.306  0.00  0.00    +0.000 A 
ENDROOT
BRANCH   5   9
ATOM      9  C   UNL     1     -23.741   6.338 -54.079  0.00  0.00    +0.000 A 
ATOM     10  C   UNL     1     -22.752   7.132 -54.679  0.00  0.00    +0.000 A 
ATOM     11  C   UNL     1     -23.846   6.348 -52.681  0.00  0.00    +0.000 A 
ATOM     12  C   UNL     1     -21.939   7.967 -53.906  0.00  0.00    +0.000 A 
ATOM     13  C   UNL     1     -23.046   7.196 -51.910  0.00  0.00    +0.000 A 
ATOM     14  C   UNL     1     -22.103   8.015 -52.523  0.00  0.00    +0.000 A 
ENDBRANCH   5   9
BRANCH   4  16
ATOM     15  N   UNL     1     -22.082   4.220 -56.801  0.00  0.00    +0.000 NA
ATOM     16  C   UNL     1     -22.992   3.850 -55.948  0.00  0.00    +0.000 C 
BRANCH  15  17
ATOM     17  O   UNL     1     -22.455   5.369 -57.515  0.00  0.00    +0.000 OA
BRANCH  17  18
ATOM     18  C   UNL     1     -21.381   5.830 -58.335  0.00  0.00    +0.000 C 
BRANCH  18  21
ATOM     19 CL   UNL     1     -22.439   8.517 -59.530  0.00  0.00    +0.000 Cl
ATOM     20 CL   UNL     1     -19.149   5.664 -56.153  0.00  0.00    +0.000 Cl
ATOM     21  C   UNL     1     -20.784   7.121 -57.827  0.00  0.00    +0.000 A 
ATOM     22  C   UNL     1     -21.217   8.372 -58.311  0.00  0.00    +0.000 A 
ATOM     23  C   UNL     1     -19.769   7.122 -56.851  0.00  0.00    +0.000 A 
ATOM     24  C   UNL     1     -20.680   9.569 -57.818  0.00  0.00    +0.000 A 
ATOM     25  C   UNL     1     -19.225   8.321 -56.373  0.00  0.00    +0.000 A 
ATOM     26  C   UNL     1     -19.685   9.546 -56.849  0.00  0.00    +0.000 A 
ENDBRANCH  18  21
ENDBRANCH  17  18
ENDBRANCH  15  17
ENDBRANCH   4  16
TORSDOF 5
ENDMDL
MODEL 9
REMARK VINA RESULT:      -4.4     25.166     26.796
REMARK  Name = 5930083
REMARK  5 active torsions:
REMARK  status: ('A' for Active; 'I' for Inactive)
REMARK    1  A    between atoms: O_4  and  N_7
REMARK    2  A    between atoms: O_4  and  C_20
REMARK    3  A    between atoms: C_8  and  C_13
REMARK    4  A    between atoms: C_9  and  C_11
REMARK    5  A    between atoms: C_17  and  C_20
REMARK                            x       y       z     vdW  Elec       q    Type
REMARK                         _______ _______ _______ _____ _____    ______ ____
ROOT
ATOM      1  S   UNL     1      -4.893   2.169 -31.228  0.00  0.00    +0.000 S 
ATOM      2  N   UNL     1      -6.596   1.945 -33.137  0.00  0.00    +0.000 N 
ATOM      3  N   UNL     1      -5.737   4.004 -33.182  0.00  0.00    +0.000 NA
ATOM      4  C   UNL     1      -7.252   2.574 -34.168  0.00  0.00    +0.000 A 
ATOM      5  C   UNL     1      -6.684   3.854 -34.185  0.00  0.00    +0.000 A 
ATOM      6  C   UNL     1      -5.753   2.854 -32.576  0.00  0.00    +0.000 A 
ATOM      7  C   UNL     1      -6.561   0.687 -32.569  0.00  0.00    +0.000 A 
ATOM      8  C   UNL     1      -5.726   0.635 -31.518  0.00  0.00    +0.000 A 
ENDROOT
BRANCH   5   9
ATOM      9  C   UNL     1      -6.982   4.932 -35.125  0.00  0.00    +0.000 A 
ATOM     10  C   UNL     1      -8.154   5.684 -34.958  0.00  0.00    +0.000 A 
ATOM     11  C   UNL     1      -6.128   5.255 -36.190  0.00  0.00    +0.000 A 
ATOM     12  C   UNL     1      -8.427   6.776 -35.788  0.00  0.00    +0.000 A 
ATOM     13  C   UNL     1      -6.392   6.357 -37.009  0.00  0.00    +0.000 A 
ATOM     14  C   UNL     1      -7.533   7.125 -36.799  0.00  0.00    +0.000 A 
ENDBRANCH   5   9
BRANCH   4  16
ATOM     15  N   UNL     1      -9.531   2.018 -34.876  0.00  0.00    +0.000 NA
ATOM     16  C   UNL     1      -8.239   1.989 -35.032  0.00  0.00    +0.000 C 
BRANCH  15  17
ATOM     17  O   UNL     1      -9.915   2.755 -33.746  0.00  0.00    +0.000 OA
BRANCH  17  18
ATOM     18  C   UNL     1     -10.648   1.938 -32.831  0.00  0.00    +0.000 C 
BRANCH  18  21
ATOM     19 CL   UNL     1     -12.299  -0.258 -34.319  0.00  0.00    +0.000 Cl
ATOM     20 CL   UNL     1     -11.911   4.519 -31.600  0.00  0.00    +0.000 Cl
ATOM     21  C   UNL     1     -12.140   2.132 -32.959  0.00  0.00    +0.000 A 
ATOM     22  C   UNL     1     -12.952   1.179 -33.607  0.00  0.00    +0.000 A 
ATOM     23  C   UNL     1     -12.776   3.274 -32.436  0.00  0.00    +0.000 A 
ATOM     24  C   UNL     1     -14.340   1.348 -33.701  0.00  0.00    +0.000 A 
ATOM     25  C   UNL     1     -14.162   3.445 -32.546  0.00  0.00    +0.000 A 
ATOM     26  C   UNL     1     -14.947   2.480 -33.170  0.00  0.00    +0.000 A 
ENDBRANCH  18  21
ENDBRANCH  17  18
ENDBRANCH  15  17
ENDBRANCH   4  16
TORSDOF 5
ENDMDL
MODEL 10
REMARK VINA RESULT:      -4.4     10.248     12.833
REMARK  Name = 5930083
REMARK  5 active torsions:
REMARK  status: ('A' for Active; 'I' for Inactive)
REMARK    1  A    between atoms: O_4  and  N_7
REMARK    2  A    between atoms: O_4  and  C_20
REMARK    3  A    between atoms: C_8  and  C_13
REMARK    4  A    between atoms: C_9  and  C_11
REMARK    5  A    between atoms: C_17  and  C_20
REMARK                            x       y       z     vdW  Elec       q    Type
REMARK                         _______ _______ _______ _____ _____    ______ ____
ROOT
ATOM      1  S   UNL     1      -9.618  16.859 -60.500  0.00  0.00    +0.000 S 
ATOM      2  N   UNL     1      -9.935  14.323 -60.742  0.00  0.00    +0.000 N 
ATOM      3  N   UNL     1     -10.316  14.893 -58.618  0.00  0.00    +0.000 NA
ATOM      4  C   UNL     1     -10.200  13.134 -60.104  0.00  0.00    +0.000 A 
ATOM      5  C   UNL     1     -10.451  13.522 -58.782  0.00  0.00    +0.000 A 
ATOM      6  C   UNL     1      -9.978  15.306 -59.803  0.00  0.00    +0.000 A 
ATOM      7  C   UNL     1      -9.671  14.752 -62.027  0.00  0.00    +0.000 A 
ATOM      8  C   UNL     1      -9.447  16.075 -62.078  0.00  0.00    +0.000 A 
ENDROOT
BRANCH   5   9
ATOM      9  C   UNL     1     -10.838  12.652 -57.674  0.00  0.00    +0.000 A 
ATOM     10  C   UNL     1      -9.944  12.456 -56.610  0.00  0.00    +0.000 A 
ATOM     11  C   UNL     1     -12.084  12.010 -57.624  0.00  0.00    +0.000 A 
ATOM     12  C   UNL     1     -10.315  11.699 -55.494  0.00  0.00    +0.000 A 
ATOM     13  C   UNL     1     -12.462  11.268 -56.500  0.00  0.00    +0.000 A 
ATOM     14  C   UNL     1     -11.584  11.124 -55.431  0.00  0.00    +0.000 A 
ENDBRANCH   5   9
BRANCH   4  16
ATOM     15  N   UNL     1     -11.258  11.311 -61.353  0.00  0.00    +0.000 NA
ATOM     16  C   UNL     1     -10.253  11.835 -60.713  0.00  0.00    +0.000 C 
BRANCH  15  17
ATOM     17  O   UNL     1     -12.347  12.191 -61.447  0.00  0.00    +0.000 OA
BRANCH  17  18
ATOM     18  C   UNL     1     -13.544  11.485 -61.781  0.00  0.00    +0.000 C 
BRANCH  18  21
ATOM     19 CL   UNL     1     -13.779   9.427 -59.441  0.00  0.00    +0.000 Cl
ATOM     20 CL   UNL     1     -15.446  13.941 -62.125  0.00  0.00    +0.000 Cl
ATOM     21  C   UNL     1     -14.635  11.691 -60.757  0.00  0.00    +0.000 A 
ATOM     22  C   UNL     1     -14.797  10.809 -59.669  0.00  0.00    +0.000 A 
ATOM     23  C   UNL     1     -15.533  12.770 -60.853  0.00  0.00    +0.000 A 
ATOM     24  C   UNL     1     -15.793  11.017 -58.705  0.00  0.00    +0.000 A 
ATOM     25  C   UNL     1     -16.537  12.964 -59.896  0.00  0.00    +0.000 A 
ATOM     26  C   UNL     1     -16.664  12.094 -58.817  0.00  0.00    +0.000 A 
ENDBRANCH  18  21
ENDBRANCH  17  18
ENDBRANCH  15  17
ENDBRANCH   4  16
TORSDOF 5
ENDMDL
