MODEL 1
REMARK VINA RESULT:      -5.6      0.000      0.000
REMARK  Name = 5930771
REMARK  7 active torsions:
REMARK  status: ('A' for Active; 'I' for Inactive)
REMARK    1  A    between atoms: S_3  and  C_10
REMARK    2  A    between atoms: S_3  and  C_13
REMARK    3  A    between atoms: O_5  and  N_8
REMARK    4  A    between atoms: O_5  and  C_20
REMARK    5  A    between atoms: C_9  and  C_15
REMARK    6  A    between atoms: C_13  and  C_14
REMARK    7  A    between atoms: C_17  and  C_20
REMARK                            x       y       z     vdW  Elec       q    Type
REMARK                         _______ _______ _______ _____ _____    ______ ____
ROOT
ATOM      1  S   UNL     1      -0.646   7.103 -58.110  0.00  0.00    +0.000 S 
ATOM      2  N   UNL     1      -2.544   6.133 -56.681  0.00  0.00    +0.000 N 
ATOM      3  N   UNL     1      -2.990   5.724 -58.836  0.00  0.00    +0.000 NA
ATOM      4  C   UNL     1      -3.733   5.454 -56.674  0.00  0.00    +0.000 A 
ATOM      5  C   UNL     1      -4.004   5.247 -58.026  0.00  0.00    +0.000 A 
ATOM      6  C   UNL     1      -2.149   6.240 -57.981  0.00  0.00    +0.000 A 
ATOM      7  C   UNL     1      -1.711   6.735 -55.759  0.00  0.00    +0.000 A 
ATOM      8  C   UNL     1      -0.646   7.308 -56.348  0.00  0.00    +0.000 A 
ENDROOT
BRANCH   4  10
ATOM      9  N   UNL     1      -4.484   3.800 -55.176  0.00  0.00    +0.000 NA
ATOM     10  C   UNL     1      -4.474   5.046 -55.518  0.00  0.00    +0.000 C 
BRANCH   9  11
ATOM     11  O   UNL     1      -5.367   3.608 -54.095  0.00  0.00    +0.000 OA
BRANCH  11  12
ATOM     12  C   UNL     1      -4.696   2.792 -53.130  0.00  0.00    +0.000 C 
BRANCH  12  15
ATOM     13 CL   UNL     1      -8.254  -0.650 -54.730  0.00  0.00    +0.000 Cl
ATOM     14 CL   UNL     1      -7.970  -2.126 -51.844  0.00  0.00    +0.000 Cl
ATOM     15  C   UNL     1      -5.477   1.534 -52.848  0.00  0.00    +0.000 A 
ATOM     16  C   UNL     1      -6.379   1.028 -53.796  0.00  0.00    +0.000 A 
ATOM     17  C   UNL     1      -5.358   0.882 -51.612  0.00  0.00    +0.000 A 
ATOM     18  C   UNL     1      -7.155  -0.103 -53.513  0.00  0.00    +0.000 A 
ATOM     19  C   UNL     1      -6.132  -0.247 -51.327  0.00  0.00    +0.000 A 
ATOM     20  C   UNL     1      -7.034  -0.739 -52.273  0.00  0.00    +0.000 A 
ENDBRANCH  12  15
ENDBRANCH  11  12
ENDBRANCH   9  11
ENDBRANCH   4  10
BRANCH   5  21
ATOM     21  S   UNL     1      -5.450   4.491 -58.661  0.00  0.00    +0.000 S 
BRANCH  21  22
ATOM     22  C   UNL     1      -4.816   2.926 -59.335  0.00  0.00    +0.000 C 
BRANCH  22  23
ATOM     23  C   UNL     1      -5.833   2.270 -60.248  0.00  0.00    +0.000 A 
ATOM     24  C   UNL     1      -6.687   3.054 -61.040  0.00  0.00    +0.000 A 
ATOM     25  C   UNL     1      -5.962   0.873 -60.303  0.00  0.00    +0.000 A 
ATOM     26  C   UNL     1      -7.636   2.454 -61.876  0.00  0.00    +0.000 A 
ATOM     27  C   UNL     1      -6.908   0.275 -61.141  0.00  0.00    +0.000 A 
ATOM     28  C   UNL     1      -7.745   1.066 -61.927  0.00  0.00    +0.000 A 
ENDBRANCH  22  23
ENDBRANCH  21  22
ENDBRANCH   5  21
TORSDOF 7
ENDMDL
MODEL 2
REMARK VINA RESULT:      -5.3     11.551     13.433
REMARK  Name = 5930771
REMARK  7 active torsions:
REMARK  status: ('A' for Active; 'I' for Inactive)
REMARK    1  A    between atoms: S_3  and  C_10
REMARK    2  A    between atoms: S_3  and  C_13
REMARK    3  A    between atoms: O_5  and  N_8
REMARK    4  A    between atoms: O_5  and  C_20
REMARK    5  A    between atoms: C_9  and  C_15
REMARK    6  A    between atoms: C_13  and  C_14
REMARK    7  A    between atoms: C_17  and  C_20
REMARK                            x       y       z     vdW  Elec       q    Type
REMARK                         _______ _______ _______ _____ _____    ______ ____
ROOT
ATOM      1  S   UNL     1     -16.213  13.819 -61.122  0.00  0.00    +0.000 S 
ATOM      2  N   UNL     1     -14.957  12.499 -59.315  0.00  0.00    +0.000 N 
ATOM      3  N   UNL     1     -13.666  12.621 -61.140  0.00  0.00    +0.000 NA
ATOM      4  C   UNL     1     -13.809  11.830 -58.983  0.00  0.00    +0.000 A 
ATOM      5  C   UNL     1     -13.043  11.889 -60.146  0.00  0.00    +0.000 A 
ATOM      6  C   UNL     1     -14.800  12.958 -60.589  0.00  0.00    +0.000 A 
ATOM      7  C   UNL     1     -16.176  12.778 -58.733  0.00  0.00    +0.000 A 
ATOM      8  C   UNL     1     -16.977  13.474 -59.559  0.00  0.00    +0.000 A 
ENDROOT
BRANCH   4  10
ATOM      9  N   UNL     1     -12.909  11.962 -56.811  0.00  0.00    +0.000 NA
ATOM     10  C   UNL     1     -13.500  11.248 -57.710  0.00  0.00    +0.000 C 
BRANCH   9  11
ATOM     11  O   UNL     1     -12.594  11.162 -55.695  0.00  0.00    +0.000 OA
BRANCH  11  12
ATOM     12  C   UNL     1     -11.175  10.979 -55.684  0.00  0.00    +0.000 C 
BRANCH  12  15
ATOM     13 CL   UNL     1      -7.109  14.226 -55.690  0.00  0.00    +0.000 Cl
ATOM     14 CL   UNL     1      -8.324  15.584 -52.993  0.00  0.00    +0.000 Cl
ATOM     15  C   UNL     1     -10.482  12.164 -55.059  0.00  0.00    +0.000 A 
ATOM     16  C   UNL     1      -9.277  12.647 -55.593  0.00  0.00    +0.000 A 
ATOM     17  C   UNL     1     -10.998  12.764 -53.903  0.00  0.00    +0.000 A 
ATOM     18  C   UNL     1      -8.595  13.704 -54.977  0.00  0.00    +0.000 A 
ATOM     19  C   UNL     1     -10.320  13.820 -53.286  0.00  0.00    +0.000 A 
ATOM     20  C   UNL     1      -9.117  14.289 -53.819  0.00  0.00    +0.000 A 
ENDBRANCH  12  15
ENDBRANCH  11  12
ENDBRANCH   9  11
ENDBRANCH   4  10
BRANCH   5  21
ATOM     21  S   UNL     1     -11.481  11.127 -60.366  0.00  0.00    +0.000 S 
BRANCH  21  22
ATOM     22  C   UNL     1     -10.691  12.193 -61.608  0.00  0.00    +0.000 C 
BRANCH  22  23
ATOM     23  C   UNL     1      -9.655  13.100 -60.975  0.00  0.00    +0.000 A 
ATOM     24  C   UNL     1      -9.326  12.964 -59.616  0.00  0.00    +0.000 A 
ATOM     25  C   UNL     1      -9.023  14.108 -61.720  0.00  0.00    +0.000 A 
ATOM     26  C   UNL     1      -8.379  13.805 -59.023  0.00  0.00    +0.000 A 
ATOM     27  C   UNL     1      -8.075  14.947 -61.125  0.00  0.00    +0.000 A 
ATOM     28  C   UNL     1      -7.754  14.795 -59.778  0.00  0.00    +0.000 A 
ENDBRANCH  22  23
ENDBRANCH  21  22
ENDBRANCH   5  21
TORSDOF 7
ENDMDL
MODEL 3
REMARK VINA RESULT:      -5.2      3.911      6.901
REMARK  Name = 5930771
REMARK  7 active torsions:
REMARK  status: ('A' for Active; 'I' for Inactive)
REMARK    1  A    between atoms: S_3  and  C_10
REMARK    2  A    between atoms: S_3  and  C_13
REMARK    3  A    between atoms: O_5  and  N_8
REMARK    4  A    between atoms: O_5  and  C_20
REMARK    5  A    between atoms: C_9  and  C_15
REMARK    6  A    between atoms: C_13  and  C_14
REMARK    7  A    between atoms: C_17  and  C_20
REMARK                            x       y       z     vdW  Elec       q    Type
REMARK                         _______ _______ _______ _____ _____    ______ ____
ROOT
ATOM      1  S   UNL     1       0.736   6.354 -61.961  0.00  0.00    +0.000 S 
ATOM      2  N   UNL     1      -1.585   6.008 -60.923  0.00  0.00    +0.000 N 
ATOM      3  N   UNL     1      -0.522   7.614 -59.781  0.00  0.00    +0.000 NA
ATOM      4  C   UNL     1      -2.470   6.399 -59.953  0.00  0.00    +0.000 A 
ATOM      5  C   UNL     1      -1.769   7.368 -59.237  0.00  0.00    +0.000 A 
ATOM      6  C   UNL     1      -0.468   6.776 -60.781  0.00  0.00    +0.000 A 
ATOM      7  C   UNL     1      -1.529   5.063 -61.927  0.00  0.00    +0.000 A 
ATOM      8  C   UNL     1      -0.355   5.102 -62.584  0.00  0.00    +0.000 A 
ENDROOT
BRANCH   4  10
ATOM      9  N   UNL     1      -4.776   6.475 -60.422  0.00  0.00    +0.000 NA
ATOM     10  C   UNL     1      -3.807   5.916 -59.776  0.00  0.00    +0.000 C 
BRANCH   9  11
ATOM     11  O   UNL     1      -6.006   5.929 -60.005  0.00  0.00    +0.000 OA
BRANCH  11  12
ATOM     12  C   UNL     1      -5.723   4.714 -59.305  0.00  0.00    +0.000 C 
BRANCH  12  15
ATOM     13 CL   UNL     1      -5.406  -0.380 -60.313  0.00  0.00    +0.000 Cl
ATOM     14 CL   UNL     1      -7.785   0.011 -62.499  0.00  0.00    +0.000 Cl
ATOM     15  C   UNL     1      -6.265   3.520 -60.051  0.00  0.00    +0.000 A 
ATOM     16  C   UNL     1      -5.706   2.248 -59.859  0.00  0.00    +0.000 A 
ATOM     17  C   UNL     1      -7.295   3.673 -60.989  0.00  0.00    +0.000 A 
ATOM     18  C   UNL     1      -6.162   1.148 -60.598  0.00  0.00    +0.000 A 
ATOM     19  C   UNL     1      -7.752   2.577 -61.727  0.00  0.00    +0.000 A 
ATOM     20  C   UNL     1      -7.184   1.315 -61.537  0.00  0.00    +0.000 A 
ENDBRANCH  12  15
ENDBRANCH  11  12
ENDBRANCH   9  11
ENDBRANCH   4  10
BRANCH   5  21
ATOM     21  S   UNL     1      -2.358   8.188 -57.806  0.00  0.00    +0.000 S 
BRANCH  21  22
ATOM     22  C   UNL     1      -1.709   7.153 -56.459  0.00  0.00    +0.000 C 
BRANCH  22  23
ATOM     23  C   UNL     1      -2.785   6.245 -55.898  0.00  0.00    +0.000 A 
ATOM     24  C   UNL     1      -2.987   4.964 -56.437  0.00  0.00    +0.000 A 
ATOM     25  C   UNL     1      -3.618   6.670 -54.851  0.00  0.00    +0.000 A 
ATOM     26  C   UNL     1      -3.986   4.126 -55.931  0.00  0.00    +0.000 A 
ATOM     27  C   UNL     1      -4.615   5.830 -54.345  0.00  0.00    +0.000 A 
ATOM     28  C   UNL     1      -4.798   4.558 -54.886  0.00  0.00    +0.000 A 
ENDBRANCH  22  23
ENDBRANCH  21  22
ENDBRANCH   5  21
TORSDOF 7
ENDMDL
MODEL 4
REMARK VINA RESULT:      -5.1     11.926     14.079
REMARK  Name = 5930771
REMARK  7 active torsions:
REMARK  status: ('A' for Active; 'I' for Inactive)
REMARK    1  A    between atoms: S_3  and  C_10
REMARK    2  A    between atoms: S_3  and  C_13
REMARK    3  A    between atoms: O_5  and  N_8
REMARK    4  A    between atoms: O_5  and  C_20
REMARK    5  A    between atoms: C_9  and  C_15
REMARK    6  A    between atoms: C_13  and  C_14
REMARK    7  A    between atoms: C_17  and  C_20
REMARK                            x       y       z     vdW  Elec       q    Type
REMARK                         _______ _______ _______ _____ _____    ______ ____
ROOT
ATOM      1  S   UNL     1     -12.606  12.079 -68.335  0.00  0.00    +0.000 S 
ATOM      2  N   UNL     1     -12.141  11.743 -65.834  0.00  0.00    +0.000 N 
ATOM      3  N   UNL     1     -14.009  12.958 -66.059  0.00  0.00    +0.000 NA
ATOM      4  C   UNL     1     -12.560  11.990 -64.554  0.00  0.00    +0.000 A 
ATOM      5  C   UNL     1     -13.698  12.778 -64.723  0.00  0.00    +0.000 A 
ATOM      6  C   UNL     1     -13.048  12.321 -66.672  0.00  0.00    +0.000 A 
ATOM      7  C   UNL     1     -11.075  11.124 -66.453  0.00  0.00    +0.000 A 
ATOM      8  C   UNL     1     -11.158  11.211 -67.793  0.00  0.00    +0.000 A 
ENDROOT
BRANCH   4  10
ATOM      9  N   UNL     1     -10.999  12.179 -62.801  0.00  0.00    +0.000 NA
ATOM     10  C   UNL     1     -11.953  11.504 -63.350  0.00  0.00    +0.000 C 
BRANCH   9  11
ATOM     11  O   UNL     1     -10.471  11.461 -61.710  0.00  0.00    +0.000 OA
BRANCH  11  12
ATOM     12  C   UNL     1      -9.997  12.415 -60.755  0.00  0.00    +0.000 C 
BRANCH  12  15
ATOM     13 CL   UNL     1      -9.980  13.506 -55.668  0.00  0.00    +0.000 Cl
ATOM     14 CL   UNL     1     -12.099  11.072 -55.246  0.00  0.00    +0.000 Cl
ATOM     15  C   UNL     1     -10.555  12.131 -59.383  0.00  0.00    +0.000 A 
ATOM     16  C   UNL     1     -10.118  12.866 -58.271  0.00  0.00    +0.000 A 
ATOM     17  C   UNL     1     -11.475  11.092 -59.188  0.00  0.00    +0.000 A 
ATOM     18  C   UNL     1     -10.583  12.563 -56.985  0.00  0.00    +0.000 A 
ATOM     19  C   UNL     1     -11.941  10.787 -57.906  0.00  0.00    +0.000 A 
ATOM     20  C   UNL     1     -11.495  11.517 -56.802  0.00  0.00    +0.000 A 
ENDBRANCH  12  15
ENDBRANCH  11  12
ENDBRANCH   9  11
ENDBRANCH   4  10
BRANCH   5  21
ATOM     21  S   UNL     1     -14.640  13.483 -63.426  0.00  0.00    +0.000 S 
BRANCH  21  22
ATOM     22  C   UNL     1     -14.632  12.170 -62.170  0.00  0.00    +0.000 C 
BRANCH  22  23
ATOM     23  C   UNL     1     -14.476  12.746 -60.776  0.00  0.00    +0.000 A 
ATOM     24  C   UNL     1     -13.624  13.839 -60.549  0.00  0.00    +0.000 A 
ATOM     25  C   UNL     1     -15.154  12.186 -59.681  0.00  0.00    +0.000 A 
ATOM     26  C   UNL     1     -13.467  14.367 -59.263  0.00  0.00    +0.000 A 
ATOM     27  C   UNL     1     -14.998  12.717 -58.397  0.00  0.00    +0.000 A 
ATOM     28  C   UNL     1     -14.155  13.807 -58.189  0.00  0.00    +0.000 A 
ENDBRANCH  22  23
ENDBRANCH  21  22
ENDBRANCH   5  21
TORSDOF 7
ENDMDL
MODEL 5
REMARK VINA RESULT:      -5.1     16.395     18.010
REMARK  Name = 5930771
REMARK  7 active torsions:
REMARK  status: ('A' for Active; 'I' for Inactive)
REMARK    1  A    between atoms: S_3  and  C_10
REMARK    2  A    between atoms: S_3  and  C_13
REMARK    3  A    between atoms: O_5  and  N_8
REMARK    4  A    between atoms: O_5  and  C_20
REMARK    5  A    between atoms: C_9  and  C_15
REMARK    6  A    between atoms: C_13  and  C_14
REMARK    7  A    between atoms: C_17  and  C_20
REMARK                            x       y       z     vdW  Elec       q    Type
REMARK                         _______ _______ _______ _____ _____    ______ ____
ROOT
ATOM      1  S   UNL     1       4.569  13.698 -43.369  0.00  0.00    +0.000 S 
ATOM      2  N   UNL     1       2.282  13.195 -44.418  0.00  0.00    +0.000 N 
ATOM      3  N   UNL     1       2.349  12.282 -42.375  0.00  0.00    +0.000 NA
ATOM      4  C   UNL     1       1.059  12.601 -44.256  0.00  0.00    +0.000 A 
ATOM      5  C   UNL     1       1.143  12.010 -42.996  0.00  0.00    +0.000 A 
ATOM      6  C   UNL     1       2.985  12.991 -43.269  0.00  0.00    +0.000 A 
ATOM      7  C   UNL     1       2.957  13.879 -45.409  0.00  0.00    +0.000 A 
ATOM      8  C   UNL     1       4.198  14.222 -45.022  0.00  0.00    +0.000 A 
ENDROOT
BRANCH   4  10
ATOM      9  N   UNL     1      -0.911  13.577 -45.099  0.00  0.00    +0.000 NA
ATOM     10  C   UNL     1      -0.034  12.633 -45.182  0.00  0.00    +0.000 C 
BRANCH   9  11
ATOM     11  O   UNL     1      -1.953  13.345 -46.018  0.00  0.00    +0.000 OA
BRANCH  11  12
ATOM     12  C   UNL     1      -2.369  14.615 -46.528  0.00  0.00    +0.000 C 
BRANCH  12  15
ATOM     13 CL   UNL     1      -4.095  17.262 -42.395  0.00  0.00    +0.000 Cl
ATOM     14 CL   UNL     1      -7.128  16.537 -43.329  0.00  0.00    +0.000 Cl
ATOM     15  C   UNL     1      -3.545  15.151 -45.750  0.00  0.00    +0.000 A 
ATOM     16  C   UNL     1      -3.344  15.907 -44.586  0.00  0.00    +0.000 A 
ATOM     17  C   UNL     1      -4.857  14.854 -46.146  0.00  0.00    +0.000 A 
ATOM     18  C   UNL     1      -4.433  16.352 -43.825  0.00  0.00    +0.000 A 
ATOM     19  C   UNL     1      -5.945  15.296 -45.388  0.00  0.00    +0.000 A 
ATOM     20  C   UNL     1      -5.736  16.041 -44.225  0.00  0.00    +0.000 A 
ENDBRANCH  12  15
ENDBRANCH  11  12
ENDBRANCH   9  11
ENDBRANCH   4  10
BRANCH   5  21
ATOM     21  S   UNL     1      -0.101  11.022 -42.259  0.00  0.00    +0.000 S 
BRANCH  21  22
ATOM     22  C   UNL     1      -1.118  12.251 -41.387  0.00  0.00    +0.000 C 
BRANCH  22  23
ATOM     23  C   UNL     1      -2.506  12.341 -41.990  0.00  0.00    +0.000 A 
ATOM     24  C   UNL     1      -2.843  11.575 -43.117  0.00  0.00    +0.000 A 
ATOM     25  C   UNL     1      -3.472  13.209 -41.456  0.00  0.00    +0.000 A 
ATOM     26  C   UNL     1      -4.118  11.663 -43.685  0.00  0.00    +0.000 A 
ATOM     27  C   UNL     1      -4.747  13.294 -42.024  0.00  0.00    +0.000 A 
ATOM     28  C   UNL     1      -5.070  12.521 -43.138  0.00  0.00    +0.000 A 
ENDBRANCH  22  23
ENDBRANCH  21  22
ENDBRANCH   5  21
TORSDOF 7
ENDMDL
MODEL 6
REMARK VINA RESULT:      -5.1     21.747     25.181
REMARK  Name = 5930771
REMARK  7 active torsions:
REMARK  status: ('A' for Active; 'I' for Inactive)
REMARK    1  A    between atoms: S_3  and  C_10
REMARK    2  A    between atoms: S_3  and  C_13
REMARK    3  A    between atoms: O_5  and  N_8
REMARK    4  A    between atoms: O_5  and  C_20
REMARK    5  A    between atoms: C_9  and  C_15
REMARK    6  A    between atoms: C_13  and  C_14
REMARK    7  A    between atoms: C_17  and  C_20
REMARK                            x       y       z     vdW  Elec       q    Type
REMARK                         _______ _______ _______ _____ _____    ______ ____
ROOT
ATOM      1  S   UNL     1     -10.190   9.712 -28.422  0.00  0.00    +0.000 S 
ATOM      2  N   UNL     1     -10.717   9.726 -30.933  0.00  0.00    +0.000 N 
ATOM      3  N   UNL     1     -12.563  10.314 -29.811  0.00  0.00    +0.000 NA
ATOM      4  C   UNL     1     -11.663   9.949 -31.898  0.00  0.00    +0.000 A 
ATOM      5  C   UNL     1     -12.807  10.275 -31.172  0.00  0.00    +0.000 A 
ATOM      6  C   UNL     1     -11.304   9.978 -29.729  0.00  0.00    +0.000 A 
ATOM      7  C   UNL     1      -9.407   9.298 -30.873  0.00  0.00    +0.000 A 
ATOM      8  C   UNL     1      -8.962   9.228 -29.606  0.00  0.00    +0.000 A 
ENDROOT
BRANCH   4  10
ATOM      9  N   UNL     1     -11.647   8.762 -33.932  0.00  0.00    +0.000 NA
ATOM     10  C   UNL     1     -11.465   9.882 -33.316  0.00  0.00    +0.000 C 
BRANCH   9  11
ATOM     11  O   UNL     1     -11.280   8.894 -35.285  0.00  0.00    +0.000 OA
BRANCH  11  12
ATOM     12  C   UNL     1     -11.934   7.849 -36.012  0.00  0.00    +0.000 C 
BRANCH  12  15
ATOM     13 CL   UNL     1      -7.081   5.983 -35.834  0.00  0.00    +0.000 Cl
ATOM     14 CL   UNL     1      -8.186   3.266 -37.245  0.00  0.00    +0.000 Cl
ATOM     15  C   UNL     1     -10.996   6.694 -36.260  0.00  0.00    +0.000 A 
ATOM     16  C   UNL     1      -9.633   6.804 -35.947  0.00  0.00    +0.000 A 
ATOM     17  C   UNL     1     -11.460   5.515 -36.858  0.00  0.00    +0.000 A 
ATOM     18  C   UNL     1      -8.747   5.758 -36.236  0.00  0.00    +0.000 A 
ATOM     19  C   UNL     1     -10.578   4.469 -37.147  0.00  0.00    +0.000 A 
ATOM     20  C   UNL     1      -9.221   4.590 -36.841  0.00  0.00    +0.000 A 
ENDBRANCH  12  15
ENDBRANCH  11  12
ENDBRANCH   9  11
ENDBRANCH   4  10
BRANCH   5  21
ATOM     21  S   UNL     1     -14.386  10.590 -31.862  0.00  0.00    +0.000 S 
BRANCH  21  22
ATOM     22  C   UNL     1     -15.139   8.937 -31.901  0.00  0.00    +0.000 C 
BRANCH  22  23
ATOM     23  C   UNL     1     -15.836   8.682 -33.223  0.00  0.00    +0.000 A 
ATOM     24  C   UNL     1     -15.201   7.936 -34.229  0.00  0.00    +0.000 A 
ATOM     25  C   UNL     1     -17.113   9.206 -33.481  0.00  0.00    +0.000 A 
ATOM     26  C   UNL     1     -15.834   7.708 -35.456  0.00  0.00    +0.000 A 
ATOM     27  C   UNL     1     -17.745   8.975 -34.707  0.00  0.00    +0.000 A 
ATOM     28  C   UNL     1     -17.105   8.226 -35.694  0.00  0.00    +0.000 A 
ENDBRANCH  22  23
ENDBRANCH  21  22
ENDBRANCH   5  21
TORSDOF 7
ENDMDL
MODEL 7
REMARK VINA RESULT:      -5.0     16.281     17.650
REMARK  Name = 5930771
REMARK  7 active torsions:
REMARK  status: ('A' for Active; 'I' for Inactive)
REMARK    1  A    between atoms: S_3  and  C_10
REMARK    2  A    between atoms: S_3  and  C_13
REMARK    3  A    between atoms: O_5  and  N_8
REMARK    4  A    between atoms: O_5  and  C_20
REMARK    5  A    between atoms: C_9  and  C_15
REMARK    6  A    between atoms: C_13  and  C_14
REMARK    7  A    between atoms: C_17  and  C_20
REMARK                            x       y       z     vdW  Elec       q    Type
REMARK                         _______ _______ _______ _____ _____    ______ ____
ROOT
ATOM      1  S   UNL     1       3.869  13.537 -47.691  0.00  0.00    +0.000 S 
ATOM      2  N   UNL     1       1.539  14.440 -47.106  0.00  0.00    +0.000 N 
ATOM      3  N   UNL     1       2.289  13.226 -45.381  0.00  0.00    +0.000 NA
ATOM      4  C   UNL     1       0.543  14.502 -46.169  0.00  0.00    +0.000 A 
ATOM      5  C   UNL     1       1.019  13.709 -45.127  0.00  0.00    +0.000 A 
ATOM      6  C   UNL     1       2.547  13.693 -46.574  0.00  0.00    +0.000 A 
ATOM      7  C   UNL     1       1.753  14.887 -48.395  0.00  0.00    +0.000 A 
ATOM      8  C   UNL     1       2.948  14.492 -48.868  0.00  0.00    +0.000 A 
ENDROOT
BRANCH   4  10
ATOM      9  N   UNL     1      -1.760  14.651 -46.638  0.00  0.00    +0.000 NA
ATOM     10  C   UNL     1      -0.676  15.249 -46.269  0.00  0.00    +0.000 C 
BRANCH   9  11
ATOM     11  O   UNL     1      -2.798  15.591 -46.787  0.00  0.00    +0.000 OA
BRANCH  11  12
ATOM     12  C   UNL     1      -4.018  14.952 -46.399  0.00  0.00    +0.000 C 
BRANCH  12  15
ATOM     13 CL   UNL     1      -2.812  16.819 -41.695  0.00  0.00    +0.000 Cl
ATOM     14 CL   UNL     1      -5.986  16.773 -40.979  0.00  0.00    +0.000 Cl
ATOM     15  C   UNL     1      -4.496  15.464 -45.064  0.00  0.00    +0.000 A 
ATOM     16  C   UNL     1      -3.577  15.900 -44.098  0.00  0.00    +0.000 A 
ATOM     17  C   UNL     1      -5.861  15.458 -44.745  0.00  0.00    +0.000 A 
ATOM     18  C   UNL     1      -4.012  16.314 -42.832  0.00  0.00    +0.000 A 
ATOM     19  C   UNL     1      -6.298  15.871 -43.483  0.00  0.00    +0.000 A 
ATOM     20  C   UNL     1      -5.376  16.295 -42.523  0.00  0.00    +0.000 A 
ENDBRANCH  12  15
ENDBRANCH  11  12
ENDBRANCH   9  11
ENDBRANCH   4  10
BRANCH   5  21
ATOM     21  S   UNL     1       0.138  13.334 -43.660  0.00  0.00    +0.000 S 
BRANCH  21  22
ATOM     22  C   UNL     1      -1.116  12.154 -44.240  0.00  0.00    +0.000 C 
BRANCH  22  23
ATOM     23  C   UNL     1      -2.424  12.332 -43.494  0.00  0.00    +0.000 A 
ATOM     24  C   UNL     1      -3.644  12.015 -44.111  0.00  0.00    +0.000 A 
ATOM     25  C   UNL     1      -2.447  12.841 -42.185  0.00  0.00    +0.000 A 
ATOM     26  C   UNL     1      -4.855  12.188 -43.432  0.00  0.00    +0.000 A 
ATOM     27  C   UNL     1      -3.658  13.012 -41.507  0.00  0.00    +0.000 A 
ATOM     28  C   UNL     1      -4.861  12.685 -42.131  0.00  0.00    +0.000 A 
ENDBRANCH  22  23
ENDBRANCH  21  22
ENDBRANCH   5  21
TORSDOF 7
ENDMDL
MODEL 8
REMARK VINA RESULT:      -5.0     28.665     30.801
REMARK  Name = 5930771
REMARK  7 active torsions:
REMARK  status: ('A' for Active; 'I' for Inactive)
REMARK    1  A    between atoms: S_3  and  C_10
REMARK    2  A    between atoms: S_3  and  C_13
REMARK    3  A    between atoms: O_5  and  N_8
REMARK    4  A    between atoms: O_5  and  C_20
REMARK    5  A    between atoms: C_9  and  C_15
REMARK    6  A    between atoms: C_13  and  C_14
REMARK    7  A    between atoms: C_17  and  C_20
REMARK                            x       y       z     vdW  Elec       q    Type
REMARK                         _______ _______ _______ _____ _____    ______ ____
ROOT
ATOM      1  S   UNL     1     -12.851   6.256 -27.199  0.00  0.00    +0.000 S 
ATOM      2  N   UNL     1     -10.324   5.947 -26.873  0.00  0.00    +0.000 N 
ATOM      3  N   UNL     1     -10.725   8.093 -27.370  0.00  0.00    +0.000 NA
ATOM      4  C   UNL     1      -9.094   6.548 -26.868  0.00  0.00    +0.000 A 
ATOM      5  C   UNL     1      -9.369   7.869 -27.217  0.00  0.00    +0.000 A 
ATOM      6  C   UNL     1     -11.243   6.914 -27.154  0.00  0.00    +0.000 A 
ATOM      7  C   UNL     1     -10.836   4.675 -26.712  0.00  0.00    +0.000 A 
ATOM      8  C   UNL     1     -12.173   4.653 -26.858  0.00  0.00    +0.000 A 
ENDROOT
BRANCH   4  10
ATOM      9  N   UNL     1      -7.533   5.735 -25.303  0.00  0.00    +0.000 NA
ATOM     10  C   UNL     1      -7.844   5.927 -26.541  0.00  0.00    +0.000 C 
BRANCH   9  11
ATOM     11  O   UNL     1      -6.221   5.231 -25.211  0.00  0.00    +0.000 OA
BRANCH  11  12
ATOM     12  C   UNL     1      -5.515   6.038 -24.264  0.00  0.00    +0.000 C 
BRANCH  12  15
ATOM     13 CL   UNL     1      -6.059  11.194 -23.830  0.00  0.00    +0.000 Cl
ATOM     14 CL   UNL     1      -4.539  11.491 -26.691  0.00  0.00    +0.000 Cl
ATOM     15  C   UNL     1      -5.228   7.408 -24.827  0.00  0.00    +0.000 A 
ATOM     16  C   UNL     1      -5.672   8.559 -24.158  0.00  0.00    +0.000 A 
ATOM     17  C   UNL     1      -4.566   7.551 -26.054  0.00  0.00    +0.000 A 
ATOM     18  C   UNL     1      -5.466   9.830 -24.710  0.00  0.00    +0.000 A 
ATOM     19  C   UNL     1      -4.360   8.818 -26.607  0.00  0.00    +0.000 A 
ATOM     20  C   UNL     1      -4.812   9.959 -25.939  0.00  0.00    +0.000 A 
ENDBRANCH  12  15
ENDBRANCH  11  12
ENDBRANCH   9  11
ENDBRANCH   4  10
BRANCH   5  21
ATOM     21  S   UNL     1      -8.168   9.122 -27.455  0.00  0.00    +0.000 S 
BRANCH  21  22
ATOM     22  C   UNL     1      -7.565   8.779 -29.135  0.00  0.00    +0.000 C 
BRANCH  22  23
ATOM     23  C   UNL     1      -6.553   9.817 -29.577  0.00  0.00    +0.000 A 
ATOM     24  C   UNL     1      -5.247   9.435 -29.926  0.00  0.00    +0.000 A 
ATOM     25  C   UNL     1      -6.886  11.180 -29.622  0.00  0.00    +0.000 A 
ATOM     26  C   UNL     1      -4.305  10.390 -30.323  0.00  0.00    +0.000 A 
ATOM     27  C   UNL     1      -5.944  12.133 -30.021  0.00  0.00    +0.000 A 
ATOM     28  C   UNL     1      -4.654  11.738 -30.372  0.00  0.00    +0.000 A 
ENDBRANCH  22  23
ENDBRANCH  21  22
ENDBRANCH   5  21
TORSDOF 7
ENDMDL
MODEL 9
REMARK VINA RESULT:      -5.0      5.065      7.833
REMARK  Name = 5930771
REMARK  7 active torsions:
REMARK  status: ('A' for Active; 'I' for Inactive)
REMARK    1  A    between atoms: S_3  and  C_10
REMARK    2  A    between atoms: S_3  and  C_13
REMARK    3  A    between atoms: O_5  and  N_8
REMARK    4  A    between atoms: O_5  and  C_20
REMARK    5  A    between atoms: C_9  and  C_15
REMARK    6  A    between atoms: C_13  and  C_14
REMARK    7  A    between atoms: C_17  and  C_20
REMARK                            x       y       z     vdW  Elec       q    Type
REMARK                         _______ _______ _______ _____ _____    ______ ____
ROOT
ATOM      1  S   UNL     1      -2.141  -1.921 -50.225  0.00  0.00    +0.000 S 
ATOM      2  N   UNL     1      -3.780  -0.220 -51.227  0.00  0.00    +0.000 N 
ATOM      3  N   UNL     1      -4.938  -2.007 -50.533  0.00  0.00    +0.000 NA
ATOM      4  C   UNL     1      -5.087   0.069 -51.518  0.00  0.00    +0.000 A 
ATOM      5  C   UNL     1      -5.777  -1.072 -51.113  0.00  0.00    +0.000 A 
ATOM      6  C   UNL     1      -3.763  -1.445 -50.630  0.00  0.00    +0.000 A 
ATOM      7  C   UNL     1      -2.544   0.366 -51.408  0.00  0.00    +0.000 A 
ATOM      8  C   UNL     1      -1.551  -0.407 -50.935  0.00  0.00    +0.000 A 
ENDROOT
BRANCH   4  10
ATOM      9  N   UNL     1      -5.559   1.457 -53.361  0.00  0.00    +0.000 NA
ATOM     10  C   UNL     1      -5.584   1.290 -52.081  0.00  0.00    +0.000 C 
BRANCH   9  11
ATOM     11  O   UNL     1      -5.976   2.763 -53.682  0.00  0.00    +0.000 OA
BRANCH  11  12
ATOM     12  C   UNL     1      -4.802   3.569 -53.819  0.00  0.00    +0.000 C 
BRANCH  12  15
ATOM     13 CL   UNL     1      -1.430   1.616 -57.267  0.00  0.00    +0.000 Cl
ATOM     14 CL   UNL     1      -2.645   3.684 -59.467  0.00  0.00    +0.000 Cl
ATOM     15  C   UNL     1      -4.292   3.544 -55.238  0.00  0.00    +0.000 A 
ATOM     16  C   UNL     1      -3.249   2.680 -55.604  0.00  0.00    +0.000 A 
ATOM     17  C   UNL     1      -4.812   4.423 -56.198  0.00  0.00    +0.000 A 
ATOM     18  C   UNL     1      -2.727   2.700 -56.904  0.00  0.00    +0.000 A 
ATOM     19  C   UNL     1      -4.293   4.445 -57.497  0.00  0.00    +0.000 A 
ATOM     20  C   UNL     1      -3.248   3.588 -57.851  0.00  0.00    +0.000 A 
ENDBRANCH  12  15
ENDBRANCH  11  12
ENDBRANCH   9  11
ENDBRANCH   4  10
BRANCH   5  21
ATOM     21  S   UNL     1      -7.497  -1.335 -51.308  0.00  0.00    +0.000 S 
BRANCH  21  22
ATOM     22  C   UNL     1      -7.557  -2.875 -52.271  0.00  0.00    +0.000 C 
BRANCH  22  23
ATOM     23  C   UNL     1      -7.167  -2.634 -53.716  0.00  0.00    +0.000 A 
ATOM     24  C   UNL     1      -7.526  -1.439 -54.360  0.00  0.00    +0.000 A 
ATOM     25  C   UNL     1      -6.466  -3.606 -54.448  0.00  0.00    +0.000 A 
ATOM     26  C   UNL     1      -7.179  -1.216 -55.696  0.00  0.00    +0.000 A 
ATOM     27  C   UNL     1      -6.118  -3.380 -55.784  0.00  0.00    +0.000 A 
ATOM     28  C   UNL     1      -6.475  -2.185 -56.407  0.00  0.00    +0.000 A 
ENDBRANCH  22  23
ENDBRANCH  21  22
ENDBRANCH   5  21
TORSDOF 7
ENDMDL
MODEL 10
REMARK VINA RESULT:      -4.9     19.038     20.905
REMARK  Name = 5930771
REMARK  7 active torsions:
REMARK  status: ('A' for Active; 'I' for Inactive)
REMARK    1  A    between atoms: S_3  and  C_10
REMARK    2  A    between atoms: S_3  and  C_13
REMARK    3  A    between atoms: O_5  and  N_8
REMARK    4  A    between atoms: O_5  and  C_20
REMARK    5  A    between atoms: C_9  and  C_15
REMARK    6  A    between atoms: C_13  and  C_14
REMARK    7  A    between atoms: C_17  and  C_20
REMARK                            x       y       z     vdW  Elec       q    Type
REMARK                         _______ _______ _______ _____ _____    ______ ____
ROOT
ATOM      1  S   UNL     1     -21.812  15.811 -46.758  0.00  0.00    +0.000 S 
ATOM      2  N   UNL     1     -19.392  15.383 -46.020  0.00  0.00    +0.000 N 
ATOM      3  N   UNL     1     -19.395  15.898 -48.198  0.00  0.00    +0.000 NA
ATOM      4  C   UNL     1     -18.076  15.341 -46.396  0.00  0.00    +0.000 A 
ATOM      5  C   UNL     1     -18.112  15.626 -47.760  0.00  0.00    +0.000 A 
ATOM      6  C   UNL     1     -20.114  15.738 -47.120  0.00  0.00    +0.000 A 
ATOM      7  C   UNL     1     -20.133  15.136 -44.882  0.00  0.00    +0.000 A 
ATOM      8  C   UNL     1     -21.449  15.311 -45.096  0.00  0.00    +0.000 A 
ENDROOT
BRANCH   4  10
ATOM      9  N   UNL     1     -16.260  16.079 -45.092  0.00  0.00    +0.000 NA
ATOM     10  C   UNL     1     -16.954  15.087 -45.542  0.00  0.00    +0.000 C 
BRANCH   9  11
ATOM     11  O   UNL     1     -15.142  15.599 -44.383  0.00  0.00    +0.000 OA
BRANCH  11  12
ATOM     12  C   UNL     1     -14.092  15.381 -45.329  0.00  0.00    +0.000 C 
BRANCH  12  15
ATOM     13 CL   UNL     1     -11.859  18.944 -42.265  0.00  0.00    +0.000 Cl
ATOM     14 CL   UNL     1      -9.625  19.390 -44.589  0.00  0.00    +0.000 Cl
ATOM     15  C   UNL     1     -12.952  16.343 -45.104  0.00  0.00    +0.000 A 
ATOM     16  C   UNL     1     -12.882  17.099 -43.924  0.00  0.00    +0.000 A 
ATOM     17  C   UNL     1     -11.978  16.539 -46.093  0.00  0.00    +0.000 A 
ATOM     18  C   UNL     1     -11.862  18.042 -43.739  0.00  0.00    +0.000 A 
ATOM     19  C   UNL     1     -10.959  17.478 -45.910  0.00  0.00    +0.000 A 
ATOM     20  C   UNL     1     -10.900  18.234 -44.737  0.00  0.00    +0.000 A 
ENDBRANCH  12  15
ENDBRANCH  11  12
ENDBRANCH   9  11
ENDBRANCH   4  10
BRANCH   5  21
ATOM     21  S   UNL     1     -16.723  15.636 -48.826  0.00  0.00    +0.000 S 
BRANCH  21  22
ATOM     22  C   UNL     1     -15.948  17.237 -48.454  0.00  0.00    +0.000 C 
BRANCH  22  23
ATOM     23  C   UNL     1     -14.493  17.254 -48.879  0.00  0.00    +0.000 A 
ATOM     24  C   UNL     1     -13.767  18.455 -48.883  0.00  0.00    +0.000 A 
ATOM     25  C   UNL     1     -13.848  16.080 -49.302  0.00  0.00    +0.000 A 
ATOM     26  C   UNL     1     -12.427  18.479 -49.286  0.00  0.00    +0.000 A 
ATOM     27  C   UNL     1     -12.509  16.105 -49.702  0.00  0.00    +0.000 A 
ATOM     28  C   UNL     1     -11.799  17.304 -49.693  0.00  0.00    +0.000 A 
ENDBRANCH  22  23
ENDBRANCH  21  22
ENDBRANCH   5  21
TORSDOF 7
ENDMDL
