MODEL 1
REMARK VINA RESULT:      -5.4      0.000      0.000
REMARK  Name = 6062654
REMARK  5 active torsions:
REMARK  status: ('A' for Active; 'I' for Inactive)
REMARK    1  A    between atoms: O_4  and  N_7
REMARK    2  A    between atoms: O_4  and  C_20
REMARK    3  A    between atoms: C_8  and  C_13
REMARK    4  A    between atoms: C_9  and  C_11
REMARK    5  A    between atoms: C_17  and  C_20
REMARK                            x       y       z     vdW  Elec       q    Type
REMARK                         _______ _______ _______ _____ _____    ______ ____
ROOT
ATOM      1  S   UNL     1     -12.081   4.792 -31.325  0.00  0.00    +0.000 S 
ATOM      2  N   UNL     1     -12.130   5.890 -33.650  0.00  0.00    +0.000 N 
ATOM      3  N   UNL     1     -10.259   4.686 -33.460  0.00  0.00    +0.000 NA
ATOM      4  C   UNL     1     -11.527   5.996 -34.882  0.00  0.00    +0.000 A 
ATOM      5  C   UNL     1     -10.338   5.276 -34.712  0.00  0.00    +0.000 A 
ATOM      6  C   UNL     1     -11.379   5.039 -32.896  0.00  0.00    +0.000 A 
ATOM      7  C   UNL     1     -13.219   6.426 -32.993  0.00  0.00    +0.000 A 
ATOM      8  C   UNL     1     -13.370   5.921 -31.760  0.00  0.00    +0.000 A 
ENDROOT
BRANCH   5   9
ATOM      9  C   UNL     1      -9.244   5.186 -35.673  0.00  0.00    +0.000 A 
ATOM     10  C   UNL     1      -8.184   6.101 -35.671  0.00  0.00    +0.000 A 
ATOM     11  C   UNL     1      -9.225   4.132 -36.596  0.00  0.00    +0.000 A 
ATOM     12  C   UNL     1      -7.080   5.912 -36.506  0.00  0.00    +0.000 A 
ATOM     13  C   UNL     1      -8.129   3.954 -37.446  0.00  0.00    +0.000 A 
ATOM     14  C   UNL     1      -7.047   4.830 -37.382  0.00  0.00    +0.000 A 
ENDBRANCH   5   9
BRANCH   4  16
ATOM     15  N   UNL     1     -11.577   7.927 -36.423  0.00  0.00    +0.000 NA
ATOM     16  C   UNL     1     -11.976   6.757 -36.018  0.00  0.00    +0.000 C 
BRANCH  15  17
ATOM     17  O   UNL     1     -10.672   8.529 -35.539  0.00  0.00    +0.000 OA
BRANCH  17  18
ATOM     18  C   UNL     1     -11.341   9.544 -34.785  0.00  0.00    +0.000 C 
BRANCH  18  21
ATOM     19 CL   UNL     1     -10.807  12.592 -34.263  0.00  0.00    +0.000 Cl
ATOM     20 CL   UNL     1      -7.584  10.938 -30.312  0.00  0.00    +0.000 Cl
ATOM     21  C   UNL     1     -10.461   9.944 -33.642  0.00  0.00    +0.000 A 
ATOM     22  C   UNL     1     -10.146  11.280 -33.350  0.00  0.00    +0.000 A 
ATOM     23  C   UNL     1      -9.873   8.921 -32.878  0.00  0.00    +0.000 A 
ATOM     24  C   UNL     1      -9.267  11.585 -32.313  0.00  0.00    +0.000 A 
ATOM     25  C   UNL     1      -8.990   9.229 -31.848  0.00  0.00    +0.000 A 
ATOM     26  C   UNL     1      -8.694  10.556 -31.569  0.00  0.00    +0.000 A 
ENDBRANCH  18  21
ENDBRANCH  17  18
ENDBRANCH  15  17
ENDBRANCH   4  16
TORSDOF 5
ENDMDL
MODEL 2
REMARK VINA RESULT:      -5.3      4.253      6.138
REMARK  Name = 6062654
REMARK  5 active torsions:
REMARK  status: ('A' for Active; 'I' for Inactive)
REMARK    1  A    between atoms: O_4  and  N_7
REMARK    2  A    between atoms: O_4  and  C_20
REMARK    3  A    between atoms: C_8  and  C_13
REMARK    4  A    between atoms: C_9  and  C_11
REMARK    5  A    between atoms: C_17  and  C_20
REMARK                            x       y       z     vdW  Elec       q    Type
REMARK                         _______ _______ _______ _____ _____    ______ ____
ROOT
ATOM      1  S   UNL     1     -10.908   9.228 -32.445  0.00  0.00    +0.000 S 
ATOM      2  N   UNL     1     -11.135   7.752 -34.538  0.00  0.00    +0.000 N 
ATOM      3  N   UNL     1      -8.999   7.758 -33.888  0.00  0.00    +0.000 NA
ATOM      4  C   UNL     1     -10.511   6.884 -35.403  0.00  0.00    +0.000 A 
ATOM      5  C   UNL     1      -9.171   6.950 -35.002  0.00  0.00    +0.000 A 
ATOM      6  C   UNL     1     -10.210   8.159 -33.624  0.00  0.00    +0.000 A 
ATOM      7  C   UNL     1     -12.380   8.326 -34.384  0.00  0.00    +0.000 A 
ATOM      8  C   UNL     1     -12.452   9.107 -33.296  0.00  0.00    +0.000 A 
ENDROOT
BRANCH   5   9
ATOM      9  C   UNL     1      -8.039   6.329 -35.681  0.00  0.00    +0.000 A 
ATOM     10  C   UNL     1      -7.414   6.936 -36.778  0.00  0.00    +0.000 A 
ATOM     11  C   UNL     1      -7.531   5.114 -35.201  0.00  0.00    +0.000 A 
ATOM     12  C   UNL     1      -6.247   6.393 -37.321  0.00  0.00    +0.000 A 
ATOM     13  C   UNL     1      -6.375   4.560 -35.758  0.00  0.00    +0.000 A 
ATOM     14  C   UNL     1      -5.721   5.213 -36.801  0.00  0.00    +0.000 A 
ENDBRANCH   5   9
BRANCH   4  16
ATOM     15  N   UNL     1     -11.572   4.965 -36.543  0.00  0.00    +0.000 NA
ATOM     16  C   UNL     1     -11.095   6.175 -36.511  0.00  0.00    +0.000 C 
BRANCH  15  17
ATOM     17  O   UNL     1     -11.360   4.267 -35.347  0.00  0.00    +0.000 OA
BRANCH  17  18
ATOM     18  C   UNL     1     -12.616   4.009 -34.714  0.00  0.00    +0.000 C 
BRANCH  18  21
ATOM     19 CL   UNL     1     -14.441   3.405 -32.232  0.00  0.00    +0.000 Cl
ATOM     20 CL   UNL     1     -12.059  -1.397 -32.157  0.00  0.00    +0.000 Cl
ATOM     21  C   UNL     1     -12.560   2.654 -34.080  0.00  0.00    +0.000 A 
ATOM     22  C   UNL     1     -13.318   2.303 -32.953  0.00  0.00    +0.000 A 
ATOM     23  C   UNL     1     -11.647   1.722 -34.606  0.00  0.00    +0.000 A 
ATOM     24  C   UNL     1     -13.171   1.047 -32.368  0.00  0.00    +0.000 A 
ATOM     25  C   UNL     1     -11.498   0.472 -34.015  0.00  0.00    +0.000 A 
ATOM     26  C   UNL     1     -12.260   0.139 -32.904  0.00  0.00    +0.000 A 
ENDBRANCH  18  21
ENDBRANCH  17  18
ENDBRANCH  15  17
ENDBRANCH   4  16
TORSDOF 5
ENDMDL
MODEL 3
REMARK VINA RESULT:      -5.3     23.813     25.570
REMARK  Name = 6062654
REMARK  5 active torsions:
REMARK  status: ('A' for Active; 'I' for Inactive)
REMARK    1  A    between atoms: O_4  and  N_7
REMARK    2  A    between atoms: O_4  and  C_20
REMARK    3  A    between atoms: C_8  and  C_13
REMARK    4  A    between atoms: C_9  and  C_11
REMARK    5  A    between atoms: C_17  and  C_20
REMARK                            x       y       z     vdW  Elec       q    Type
REMARK                         _______ _______ _______ _____ _____    ______ ____
ROOT
ATOM      1  S   UNL     1     -17.411  14.329 -59.563  0.00  0.00    +0.000 S 
ATOM      2  N   UNL     1     -16.072  12.133 -59.572  0.00  0.00    +0.000 N 
ATOM      3  N   UNL     1     -15.000  13.637 -60.827  0.00  0.00    +0.000 NA
ATOM      4  C   UNL     1     -14.918  11.495 -59.961  0.00  0.00    +0.000 A 
ATOM      5  C   UNL     1     -14.297  12.442 -60.784  0.00  0.00    +0.000 A 
ATOM      6  C   UNL     1     -16.014  13.411 -60.041  0.00  0.00    +0.000 A 
ATOM      7  C   UNL     1     -17.238  11.824 -58.902  0.00  0.00    +0.000 A 
ATOM      8  C   UNL     1     -18.047  12.885 -58.767  0.00  0.00    +0.000 A 
ENDROOT
BRANCH   5   9
ATOM      9  C   UNL     1     -13.096  12.229 -61.584  0.00  0.00    +0.000 A 
ATOM     10  C   UNL     1     -11.814  12.447 -61.063  0.00  0.00    +0.000 A 
ATOM     11  C   UNL     1     -13.220  11.751 -62.896  0.00  0.00    +0.000 A 
ATOM     12  C   UNL     1     -10.679  12.102 -61.800  0.00  0.00    +0.000 A 
ATOM     13  C   UNL     1     -12.083  11.425 -63.641  0.00  0.00    +0.000 A 
ATOM     14  C   UNL     1     -10.815  11.578 -63.083  0.00  0.00    +0.000 A 
ENDBRANCH   5   9
BRANCH   4  16
ATOM     15  N   UNL     1     -13.876   9.691 -58.632  0.00  0.00    +0.000 NA
ATOM     16  C   UNL     1     -14.520  10.143 -59.668  0.00  0.00    +0.000 C 
BRANCH  15  17
ATOM     17  O   UNL     1     -13.437  10.710 -57.777  0.00  0.00    +0.000 OA
BRANCH  17  18
ATOM     18  C   UNL     1     -12.008  10.757 -57.780  0.00  0.00    +0.000 C 
BRANCH  18  21
ATOM     19 CL   UNL     1      -9.719  12.878 -58.115  0.00  0.00    +0.000 Cl
ATOM     20 CL   UNL     1     -10.158  13.596 -52.821  0.00  0.00    +0.000 Cl
ATOM     21  C   UNL     1     -11.555  11.536 -56.585  0.00  0.00    +0.000 A 
ATOM     22  C   UNL     1     -10.522  12.484 -56.634  0.00  0.00    +0.000 A 
ATOM     23  C   UNL     1     -12.154  11.242 -55.346  0.00  0.00    +0.000 A 
ATOM     24  C   UNL     1     -10.100  13.128 -55.473  0.00  0.00    +0.000 A 
ATOM     25  C   UNL     1     -11.725  11.882 -54.188  0.00  0.00    +0.000 A 
ATOM     26  C   UNL     1     -10.706  12.822 -54.256  0.00  0.00    +0.000 A 
ENDBRANCH  18  21
ENDBRANCH  17  18
ENDBRANCH  15  17
ENDBRANCH   4  16
TORSDOF 5
ENDMDL
MODEL 4
REMARK VINA RESULT:      -5.2      3.542      5.101
REMARK  Name = 6062654
REMARK  5 active torsions:
REMARK  status: ('A' for Active; 'I' for Inactive)
REMARK    1  A    between atoms: O_4  and  N_7
REMARK    2  A    between atoms: O_4  and  C_20
REMARK    3  A    between atoms: C_8  and  C_13
REMARK    4  A    between atoms: C_9  and  C_11
REMARK    5  A    between atoms: C_17  and  C_20
REMARK                            x       y       z     vdW  Elec       q    Type
REMARK                         _______ _______ _______ _____ _____    ______ ____
ROOT
ATOM      1  S   UNL     1     -11.787   6.750 -30.346  0.00  0.00    +0.000 S 
ATOM      2  N   UNL     1     -11.897   7.739 -32.718  0.00  0.00    +0.000 N 
ATOM      3  N   UNL     1     -10.979   5.706 -32.825  0.00  0.00    +0.000 NA
ATOM      4  C   UNL     1     -11.701   7.521 -34.062  0.00  0.00    +0.000 A 
ATOM      5  C   UNL     1     -11.081   6.266 -34.090  0.00  0.00    +0.000 A 
ATOM      6  C   UNL     1     -11.534   6.602 -32.059  0.00  0.00    +0.000 A 
ATOM      7  C   UNL     1     -12.302   8.770 -31.896  0.00  0.00    +0.000 A 
ATOM      8  C   UNL     1     -12.345   8.407 -30.605  0.00  0.00    +0.000 A 
ENDROOT
BRANCH   5   9
ATOM      9  C   UNL     1     -10.520   5.611 -35.266  0.00  0.00    +0.000 A 
ATOM     10  C   UNL     1      -9.137   5.521 -35.471  0.00  0.00    +0.000 A 
ATOM     11  C   UNL     1     -11.381   5.015 -36.197  0.00  0.00    +0.000 A 
ATOM     12  C   UNL     1      -8.623   4.768 -36.529  0.00  0.00    +0.000 A 
ATOM     13  C   UNL     1     -10.866   4.278 -37.268  0.00  0.00    +0.000 A 
ATOM     14  C   UNL     1      -9.487   4.136 -37.418  0.00  0.00    +0.000 A 
ENDBRANCH   5   9
BRANCH   4  16
ATOM     15  N   UNL     1     -13.011   8.458 -35.936  0.00  0.00    +0.000 NA
ATOM     16  C   UNL     1     -11.976   8.425 -35.148  0.00  0.00    +0.000 C 
BRANCH  15  17
ATOM     17  O   UNL     1     -13.885   7.383 -35.731  0.00  0.00    +0.000 OA
BRANCH  17  18
ATOM     18  C   UNL     1     -15.236   7.850 -35.767  0.00  0.00    +0.000 C 
BRANCH  18  21
ATOM     19 CL   UNL     1     -18.244   8.627 -35.318  0.00  0.00    +0.000 Cl
ATOM     20 CL   UNL     1     -17.836   5.924 -30.707  0.00  0.00    +0.000 Cl
ATOM     21  C   UNL     1     -15.946   7.341 -34.551  0.00  0.00    +0.000 A 
ATOM     22  C   UNL     1     -17.281   7.659 -34.255  0.00  0.00    +0.000 A 
ATOM     23  C   UNL     1     -15.209   6.569 -33.636  0.00  0.00    +0.000 A 
ATOM     24  C   UNL     1     -17.866   7.210 -33.073  0.00  0.00    +0.000 A 
ATOM     25  C   UNL     1     -15.795   6.129 -32.454  0.00  0.00    +0.000 A 
ATOM     26  C   UNL     1     -17.117   6.447 -32.179  0.00  0.00    +0.000 A 
ENDBRANCH  18  21
ENDBRANCH  17  18
ENDBRANCH  15  17
ENDBRANCH   4  16
TORSDOF 5
ENDMDL
MODEL 5
REMARK VINA RESULT:      -5.1     12.014     14.067
REMARK  Name = 6062654
REMARK  5 active torsions:
REMARK  status: ('A' for Active; 'I' for Inactive)
REMARK    1  A    between atoms: O_4  and  N_7
REMARK    2  A    between atoms: O_4  and  C_20
REMARK    3  A    between atoms: C_8  and  C_13
REMARK    4  A    between atoms: C_9  and  C_11
REMARK    5  A    between atoms: C_17  and  C_20
REMARK                            x       y       z     vdW  Elec       q    Type
REMARK                         _______ _______ _______ _____ _____    ______ ____
ROOT
ATOM      1  S   UNL     1       2.032  11.847 -44.934  0.00  0.00    +0.000 S 
ATOM      2  N   UNL     1       0.171  11.276 -43.254  0.00  0.00    +0.000 N 
ATOM      3  N   UNL     1      -0.702  12.491 -44.912  0.00  0.00    +0.000 NA
ATOM      4  C   UNL     1      -1.173  11.332 -42.968  0.00  0.00    +0.000 A 
ATOM      5  C   UNL     1      -1.680  12.139 -43.994  0.00  0.00    +0.000 A 
ATOM      6  C   UNL     1       0.364  11.901 -44.450  0.00  0.00    +0.000 A 
ATOM      7  C   UNL     1       1.327  10.817 -42.657  0.00  0.00    +0.000 A 
ATOM      8  C   UNL     1       2.408  10.999 -43.430  0.00  0.00    +0.000 A 
ENDROOT
BRANCH   5   9
ATOM      9  C   UNL     1      -3.044  12.644 -44.095  0.00  0.00    +0.000 A 
ATOM     10  C   UNL     1      -4.097  12.078 -43.364  0.00  0.00    +0.000 A 
ATOM     11  C   UNL     1      -3.308  13.754 -44.910  0.00  0.00    +0.000 A 
ATOM     12  C   UNL     1      -5.363  12.666 -43.369  0.00  0.00    +0.000 A 
ATOM     13  C   UNL     1      -4.581  14.330 -44.931  0.00  0.00    +0.000 A 
ATOM     14  C   UNL     1      -5.601  13.800 -44.141  0.00  0.00    +0.000 A 
ENDBRANCH   5   9
BRANCH   4  16
ATOM     15  N   UNL     1      -2.194  11.364 -40.718  0.00  0.00    +0.000 NA
ATOM     16  C   UNL     1      -1.853  10.776 -41.828  0.00  0.00    +0.000 C 
BRANCH  15  17
ATOM     17  O   UNL     1      -1.713  12.676 -40.628  0.00  0.00    +0.000 OA
BRANCH  17  18
ATOM     18  C   UNL     1      -2.723  13.520 -40.068  0.00  0.00    +0.000 C 
BRANCH  18  21
ATOM     19 CL   UNL     1      -5.527  14.918 -40.249  0.00  0.00    +0.000 Cl
ATOM     20 CL   UNL     1      -3.234  18.151 -43.859  0.00  0.00    +0.000 Cl
ATOM     21  C   UNL     1      -2.884  14.717 -40.951  0.00  0.00    +0.000 A 
ATOM     22  C   UNL     1      -4.105  15.389 -41.115  0.00  0.00    +0.000 A 
ATOM     23  C   UNL     1      -1.770  15.134 -41.701  0.00  0.00    +0.000 A 
ATOM     24  C   UNL     1      -4.208  16.457 -42.004  0.00  0.00    +0.000 A 
ATOM     25  C   UNL     1      -1.878  16.196 -42.593  0.00  0.00    +0.000 A 
ATOM     26  C   UNL     1      -3.092  16.853 -42.738  0.00  0.00    +0.000 A 
ENDBRANCH  18  21
ENDBRANCH  17  18
ENDBRANCH  15  17
ENDBRANCH   4  16
TORSDOF 5
ENDMDL
MODEL 6
REMARK VINA RESULT:      -5.1     20.514     23.700
REMARK  Name = 6062654
REMARK  5 active torsions:
REMARK  status: ('A' for Active; 'I' for Inactive)
REMARK    1  A    between atoms: O_4  and  N_7
REMARK    2  A    between atoms: O_4  and  C_20
REMARK    3  A    between atoms: C_8  and  C_13
REMARK    4  A    between atoms: C_9  and  C_11
REMARK    5  A    between atoms: C_17  and  C_20
REMARK                            x       y       z     vdW  Elec       q    Type
REMARK                         _______ _______ _______ _____ _____    ______ ____
ROOT
ATOM      1  S   UNL     1      -6.345   3.623 -60.791  0.00  0.00    +0.000 S 
ATOM      2  N   UNL     1      -4.747   3.093 -58.847  0.00  0.00    +0.000 N 
ATOM      3  N   UNL     1      -4.658   5.282 -59.278  0.00  0.00    +0.000 NA
ATOM      4  C   UNL     1      -3.901   3.597 -57.888  0.00  0.00    +0.000 A 
ATOM      5  C   UNL     1      -3.828   4.956 -58.216  0.00  0.00    +0.000 A 
ATOM      6  C   UNL     1      -5.221   4.144 -59.572  0.00  0.00    +0.000 A 
ATOM      7  C   UNL     1      -5.187   1.858 -59.278  0.00  0.00    +0.000 A 
ATOM      8  C   UNL     1      -6.077   1.953 -60.277  0.00  0.00    +0.000 A 
ENDROOT
BRANCH   5   9
ATOM      9  C   UNL     1      -2.946   5.942 -57.602  0.00  0.00    +0.000 A 
ATOM     10  C   UNL     1      -3.187   6.450 -56.319  0.00  0.00    +0.000 A 
ATOM     11  C   UNL     1      -1.800   6.363 -58.291  0.00  0.00    +0.000 A 
ATOM     12  C   UNL     1      -2.254   7.283 -55.697  0.00  0.00    +0.000 A 
ATOM     13  C   UNL     1      -0.876   7.214 -57.676  0.00  0.00    +0.000 A 
ATOM     14  C   UNL     1      -1.093   7.653 -56.371  0.00  0.00    +0.000 A 
ENDBRANCH   5   9
BRANCH   4  16
ATOM     15  N   UNL     1      -3.614   2.484 -55.700  0.00  0.00    +0.000 NA
ATOM     16  C   UNL     1      -3.192   2.867 -56.870  0.00  0.00    +0.000 C 
BRANCH  15  17
ATOM     17  O   UNL     1      -4.892   2.970 -55.397  0.00  0.00    +0.000 OA
BRANCH  17  18
ATOM     18  C   UNL     1      -4.957   3.321 -54.013  0.00  0.00    +0.000 C 
BRANCH  18  21
ATOM     19 CL   UNL     1      -4.018   2.910 -51.046  0.00  0.00    +0.000 Cl
ATOM     20 CL   UNL     1      -6.892  -1.613 -51.187  0.00  0.00    +0.000 Cl
ATOM     21  C   UNL     1      -5.463   2.139 -53.246  0.00  0.00    +0.000 A 
ATOM     22  C   UNL     1      -5.076   1.861 -51.926  0.00  0.00    +0.000 A 
ATOM     23  C   UNL     1      -6.307   1.236 -53.915  0.00  0.00    +0.000 A 
ATOM     24  C   UNL     1      -5.529   0.708 -51.288  0.00  0.00    +0.000 A 
ATOM     25  C   UNL     1      -6.750   0.082 -53.277  0.00  0.00    +0.000 A 
ATOM     26  C   UNL     1      -6.364  -0.175 -51.969  0.00  0.00    +0.000 A 
ENDBRANCH  18  21
ENDBRANCH  17  18
ENDBRANCH  15  17
ENDBRANCH   4  16
TORSDOF 5
ENDMDL
MODEL 7
REMARK VINA RESULT:      -5.1     23.903     25.871
REMARK  Name = 6062654
REMARK  5 active torsions:
REMARK  status: ('A' for Active; 'I' for Inactive)
REMARK    1  A    between atoms: O_4  and  N_7
REMARK    2  A    between atoms: O_4  and  C_20
REMARK    3  A    between atoms: C_8  and  C_13
REMARK    4  A    between atoms: C_9  and  C_11
REMARK    5  A    between atoms: C_17  and  C_20
REMARK                            x       y       z     vdW  Elec       q    Type
REMARK                         _______ _______ _______ _____ _____    ______ ____
ROOT
ATOM      1  S   UNL     1     -12.086  13.854 -62.440  0.00  0.00    +0.000 S 
ATOM      2  N   UNL     1     -13.023  11.870 -61.097  0.00  0.00    +0.000 N 
ATOM      3  N   UNL     1     -14.675  13.320 -61.490  0.00  0.00    +0.000 NA
ATOM      4  C   UNL     1     -14.141  11.267 -60.572  0.00  0.00    +0.000 A 
ATOM      5  C   UNL     1     -15.144  12.220 -60.788  0.00  0.00    +0.000 A 
ATOM      6  C   UNL     1     -13.422  13.028 -61.695  0.00  0.00    +0.000 A 
ATOM      7  C   UNL     1     -11.662  11.646 -61.138  0.00  0.00    +0.000 A 
ATOM      8  C   UNL     1     -11.012  12.580 -61.849  0.00  0.00    +0.000 A 
ENDROOT
BRANCH   5   9
ATOM      9  C   UNL     1     -16.514  12.153 -60.293  0.00  0.00    +0.000 A 
ATOM     10  C   UNL     1     -16.800  12.068 -58.924  0.00  0.00    +0.000 A 
ATOM     11  C   UNL     1     -17.578  12.221 -61.202  0.00  0.00    +0.000 A 
ATOM     12  C   UNL     1     -18.117  12.149 -58.467  0.00  0.00    +0.000 A 
ATOM     13  C   UNL     1     -18.898  12.280 -60.745  0.00  0.00    +0.000 A 
ATOM     14  C   UNL     1     -19.164  12.269 -59.377  0.00  0.00    +0.000 A 
ENDBRANCH   5   9
BRANCH   4  16
ATOM     15  N   UNL     1     -14.063   9.769 -58.608  0.00  0.00    +0.000 NA
ATOM     16  C   UNL     1     -14.216  10.008 -59.877  0.00  0.00    +0.000 C 
BRANCH  15  17
ATOM     17  O   UNL     1     -13.662  10.900 -57.886  0.00  0.00    +0.000 OA
BRANCH  17  18
ATOM     18  C   UNL     1     -12.277  10.789 -57.550  0.00  0.00    +0.000 C 
BRANCH  18  21
ATOM     19 CL   UNL     1     -11.620  13.777 -58.250  0.00  0.00    +0.000 Cl
ATOM     20 CL   UNL     1     -10.857  14.423 -52.983  0.00  0.00    +0.000 Cl
ATOM     21  C   UNL     1     -11.978  11.748 -56.440  0.00  0.00    +0.000 A 
ATOM     22  C   UNL     1     -11.648  13.094 -56.660  0.00  0.00    +0.000 A 
ATOM     23  C   UNL     1     -11.961  11.247 -55.126  0.00  0.00    +0.000 A 
ATOM     24  C   UNL     1     -11.314  13.921 -55.590  0.00  0.00    +0.000 A 
ATOM     25  C   UNL     1     -11.621  12.074 -54.061  0.00  0.00    +0.000 A 
ATOM     26  C   UNL     1     -11.303  13.404 -54.296  0.00  0.00    +0.000 A 
ENDBRANCH  18  21
ENDBRANCH  17  18
ENDBRANCH  15  17
ENDBRANCH   4  16
TORSDOF 5
ENDMDL
MODEL 8
REMARK VINA RESULT:      -5.0     11.870     13.930
REMARK  Name = 6062654
REMARK  5 active torsions:
REMARK  status: ('A' for Active; 'I' for Inactive)
REMARK    1  A    between atoms: O_4  and  N_7
REMARK    2  A    between atoms: O_4  and  C_20
REMARK    3  A    between atoms: C_8  and  C_13
REMARK    4  A    between atoms: C_9  and  C_11
REMARK    5  A    between atoms: C_17  and  C_20
REMARK                            x       y       z     vdW  Elec       q    Type
REMARK                         _______ _______ _______ _____ _____    ______ ____
ROOT
ATOM      1  S   UNL     1      -0.900   6.542 -41.279  0.00  0.00    +0.000 S 
ATOM      2  N   UNL     1      -0.020   8.953 -41.106  0.00  0.00    +0.000 N 
ATOM      3  N   UNL     1      -2.218   9.014 -41.496  0.00  0.00    +0.000 NA
ATOM      4  C   UNL     1      -0.338  10.290 -41.073  0.00  0.00    +0.000 A 
ATOM      5  C   UNL     1      -1.706  10.296 -41.370  0.00  0.00    +0.000 A 
ATOM      6  C   UNL     1      -1.181   8.258 -41.271  0.00  0.00    +0.000 A 
ATOM      7  C   UNL     1       1.114   8.168 -41.063  0.00  0.00    +0.000 A 
ATOM      8  C   UNL     1       0.829   6.858 -41.100  0.00  0.00    +0.000 A 
ENDROOT
BRANCH   5   9
ATOM      9  C   UNL     1      -2.529  11.477 -41.606  0.00  0.00    +0.000 A 
ATOM     10  C   UNL     1      -3.409  11.557 -42.693  0.00  0.00    +0.000 A 
ATOM     11  C   UNL     1      -2.475  12.546 -40.701  0.00  0.00    +0.000 A 
ATOM     12  C   UNL     1      -4.287  12.636 -42.818  0.00  0.00    +0.000 A 
ATOM     13  C   UNL     1      -3.340  13.635 -40.838  0.00  0.00    +0.000 A 
ATOM     14  C   UNL     1      -4.262  13.667 -41.883  0.00  0.00    +0.000 A 
ENDBRANCH   5   9
BRANCH   4  16
ATOM     15  N   UNL     1       0.997  12.252 -41.764  0.00  0.00    +0.000 NA
ATOM     16  C   UNL     1       0.557  11.402 -40.883  0.00  0.00    +0.000 C 
BRANCH  15  17
ATOM     17  O   UNL     1       0.609  11.929 -43.071  0.00  0.00    +0.000 OA
BRANCH  17  18
ATOM     18  C   UNL     1       0.938  13.010 -43.949  0.00  0.00    +0.000 C 
BRANCH  18  21
ATOM     19 CL   UNL     1      -0.087  15.535 -42.393  0.00  0.00    +0.000 Cl
ATOM     20 CL   UNL     1      -4.308  15.359 -45.693  0.00  0.00    +0.000 Cl
ATOM     21  C   UNL     1      -0.333  13.669 -44.386  0.00  0.00    +0.000 A 
ATOM     22  C   UNL     1      -0.881  14.784 -43.734  0.00  0.00    +0.000 A 
ATOM     23  C   UNL     1      -1.038  13.090 -45.457  0.00  0.00    +0.000 A 
ATOM     24  C   UNL     1      -2.102  15.312 -44.148  0.00  0.00    +0.000 A 
ATOM     25  C   UNL     1      -2.260  13.615 -45.861  0.00  0.00    +0.000 A 
ATOM     26  C   UNL     1      -2.784  14.722 -45.210  0.00  0.00    +0.000 A 
ENDBRANCH  18  21
ENDBRANCH  17  18
ENDBRANCH  15  17
ENDBRANCH   4  16
TORSDOF 5
ENDMDL
MODEL 9
REMARK VINA RESULT:      -5.0     22.966     24.348
REMARK  Name = 6062654
REMARK  5 active torsions:
REMARK  status: ('A' for Active; 'I' for Inactive)
REMARK    1  A    between atoms: O_4  and  N_7
REMARK    2  A    between atoms: O_4  and  C_20
REMARK    3  A    between atoms: C_8  and  C_13
REMARK    4  A    between atoms: C_9  and  C_11
REMARK    5  A    between atoms: C_17  and  C_20
REMARK                            x       y       z     vdW  Elec       q    Type
REMARK                         _______ _______ _______ _____ _____    ______ ____
ROOT
ATOM      1  S   UNL     1     -23.924   9.115 -51.137  0.00  0.00    +0.000 S 
ATOM      2  N   UNL     1     -24.075   8.593 -53.651  0.00  0.00    +0.000 N 
ATOM      3  N   UNL     1     -22.030   8.065 -52.927  0.00  0.00    +0.000 NA
ATOM      4  C   UNL     1     -23.454   8.047 -54.749  0.00  0.00    +0.000 A 
ATOM      5  C   UNL     1     -22.164   7.775 -54.276  0.00  0.00    +0.000 A 
ATOM      6  C   UNL     1     -23.216   8.493 -52.598  0.00  0.00    +0.000 A 
ATOM      7  C   UNL     1     -25.266   9.226 -53.358  0.00  0.00    +0.000 A 
ATOM      8  C   UNL     1     -25.373   9.535 -52.057  0.00  0.00    +0.000 A 
ENDROOT
BRANCH   5   9
ATOM      9  C   UNL     1     -21.035   7.315 -55.077  0.00  0.00    +0.000 A 
ATOM     10  C   UNL     1     -21.027   6.052 -55.684  0.00  0.00    +0.000 A 
ATOM     11  C   UNL     1     -19.945   8.171 -55.286  0.00  0.00    +0.000 A 
ATOM     12  C   UNL     1     -20.001   5.691 -56.560  0.00  0.00    +0.000 A 
ATOM     13  C   UNL     1     -18.907   7.801 -56.146  0.00  0.00    +0.000 A 
ATOM     14  C   UNL     1     -18.949   6.571 -56.801  0.00  0.00    +0.000 A 
ENDBRANCH   5   9
BRANCH   4  16
ATOM     15  N   UNL     1     -23.964   8.750 -57.062  0.00  0.00    +0.000 NA
ATOM     16  C   UNL     1     -23.986   7.899 -56.078  0.00  0.00    +0.000 C 
BRANCH  15  17
ATOM     17  O   UNL     1     -23.444   9.997 -56.691  0.00  0.00    +0.000 OA
BRANCH  17  18
ATOM     18  C   UNL     1     -22.175  10.194 -57.321  0.00  0.00    +0.000 C 
BRANCH  18  21
ATOM     19 CL   UNL     1     -19.194  10.857 -58.044  0.00  0.00    +0.000 Cl
ATOM     20 CL   UNL     1     -19.708  14.974 -54.649  0.00  0.00    +0.000 Cl
ATOM     21  C   UNL     1     -21.536  11.411 -56.730  0.00  0.00    +0.000 A 
ATOM     22  C   UNL     1     -20.201  11.771 -56.974  0.00  0.00    +0.000 A 
ATOM     23  C   UNL     1     -22.296  12.181 -55.832  0.00  0.00    +0.000 A 
ATOM     24  C   UNL     1     -19.643  12.878 -56.340  0.00  0.00    +0.000 A 
ATOM     25  C   UNL     1     -21.733  13.282 -55.195  0.00  0.00    +0.000 A 
ATOM     26  C   UNL     1     -20.414  13.627 -55.454  0.00  0.00    +0.000 A 
ENDBRANCH  18  21
ENDBRANCH  17  18
ENDBRANCH  15  17
ENDBRANCH   4  16
TORSDOF 5
ENDMDL
MODEL 10
REMARK VINA RESULT:      -4.8     22.348     25.411
REMARK  Name = 6062654
REMARK  5 active torsions:
REMARK  status: ('A' for Active; 'I' for Inactive)
REMARK    1  A    between atoms: O_4  and  N_7
REMARK    2  A    between atoms: O_4  and  C_20
REMARK    3  A    between atoms: C_8  and  C_13
REMARK    4  A    between atoms: C_9  and  C_11
REMARK    5  A    between atoms: C_17  and  C_20
REMARK                            x       y       z     vdW  Elec       q    Type
REMARK                         _______ _______ _______ _____ _____    ______ ____
ROOT
ATOM      1  S   UNL     1      -4.438   5.284 -61.137  0.00  0.00    +0.000 S 
ATOM      2  N   UNL     1      -2.759   4.906 -59.226  0.00  0.00    +0.000 N 
ATOM      3  N   UNL     1      -4.823   4.555 -58.452  0.00  0.00    +0.000 NA
ATOM      4  C   UNL     1      -2.573   4.498 -57.926  0.00  0.00    +0.000 A 
ATOM      5  C   UNL     1      -3.882   4.337 -57.457  0.00  0.00    +0.000 A 
ATOM      6  C   UNL     1      -4.093   4.833 -59.494  0.00  0.00    +0.000 A 
ATOM      7  C   UNL     1      -1.993   5.389 -60.268  0.00  0.00    +0.000 A 
ATOM      8  C   UNL     1      -2.717   5.603 -61.377  0.00  0.00    +0.000 A 
ENDROOT
BRANCH   5   9
ATOM      9  C   UNL     1      -4.272   4.050 -56.081  0.00  0.00    +0.000 A 
ATOM     10  C   UNL     1      -4.491   5.072 -55.148  0.00  0.00    +0.000 A 
ATOM     11  C   UNL     1      -4.479   2.721 -55.688  0.00  0.00    +0.000 A 
ATOM     12  C   UNL     1      -5.000   4.781 -53.881  0.00  0.00    +0.000 A 
ATOM     13  C   UNL     1      -4.970   2.428 -54.412  0.00  0.00    +0.000 A 
ATOM     14  C   UNL     1      -5.252   3.460 -53.519  0.00  0.00    +0.000 A 
ENDBRANCH   5   9
BRANCH   4  16
ATOM     15  N   UNL     1      -0.814   5.186 -56.331  0.00  0.00    +0.000 NA
ATOM     16  C   UNL     1      -1.329   4.378 -57.212  0.00  0.00    +0.000 C 
BRANCH  15  17
ATOM     17  O   UNL     1      -1.554   6.366 -56.180  0.00  0.00    +0.000 OA
BRANCH  17  18
ATOM     18  C   UNL     1      -0.723   7.493 -56.470  0.00  0.00    +0.000 C 
BRANCH  18  21
ATOM     19 CL   UNL     1       1.482   8.510 -58.459  0.00  0.00    +0.000 Cl
ATOM     20 CL   UNL     1      -2.603   9.980 -61.603  0.00  0.00    +0.000 Cl
ATOM     21  C   UNL     1      -1.139   8.064 -57.790  0.00  0.00    +0.000 A 
ATOM     22  C   UNL     1      -0.226   8.567 -58.729  0.00  0.00    +0.000 A 
ATOM     23  C   UNL     1      -2.516   8.160 -58.057  0.00  0.00    +0.000 A 
ATOM     24  C   UNL     1      -0.680   9.147 -59.912  0.00  0.00    +0.000 A 
ATOM     25  C   UNL     1      -2.966   8.746 -59.236  0.00  0.00    +0.000 A 
ATOM     26  C   UNL     1      -2.049   9.233 -60.157  0.00  0.00    +0.000 A 
ENDBRANCH  18  21
ENDBRANCH  17  18
ENDBRANCH  15  17
ENDBRANCH   4  16
TORSDOF 5
ENDMDL
