MODEL 1
REMARK VINA RESULT:      -5.8      0.000      0.000
REMARK  Name = 6062654
REMARK  5 active torsions:
REMARK  status: ('A' for Active; 'I' for Inactive)
REMARK    1  A    between atoms: O_4  and  N_7
REMARK    2  A    between atoms: O_4  and  C_20
REMARK    3  A    between atoms: C_8  and  C_13
REMARK    4  A    between atoms: C_9  and  C_11
REMARK    5  A    between atoms: C_17  and  C_20
REMARK                            x       y       z     vdW  Elec       q    Type
REMARK                         _______ _______ _______ _____ _____    ______ ____
ROOT
ATOM      1  S   UNL     1      14.300  13.120  26.895  0.00  0.00    +0.000 S 
ATOM      2  N   UNL     1      13.040  12.760  24.682  0.00  0.00    +0.000 N 
ATOM      3  N   UNL     1      14.937  11.582  24.632  0.00  0.00    +0.000 NA
ATOM      4  C   UNL     1      12.991  12.081  23.487  0.00  0.00    +0.000 A 
ATOM      5  C   UNL     1      14.212  11.396  23.465  0.00  0.00    +0.000 A 
ATOM      6  C   UNL     1      14.163  12.355  25.340  0.00  0.00    +0.000 A 
ATOM      7  C   UNL     1      12.311  13.729  25.339  0.00  0.00    +0.000 A 
ATOM      8  C   UNL     1      12.814  14.012  26.551  0.00  0.00    +0.000 A 
ENDROOT
BRANCH   5   9
ATOM      9  C   UNL     1      14.745  10.626  22.346  0.00  0.00    +0.000 A 
ATOM     10  C   UNL     1      15.251  11.249  21.197  0.00  0.00    +0.000 A 
ATOM     11  C   UNL     1      14.797   9.228  22.435  0.00  0.00    +0.000 A 
ATOM     12  C   UNL     1      15.884  10.499  20.203  0.00  0.00    +0.000 A 
ATOM     13  C   UNL     1      15.413   8.477  21.430  0.00  0.00    +0.000 A 
ATOM     14  C   UNL     1      15.977   9.116  20.327  0.00  0.00    +0.000 A 
ENDBRANCH   5   9
BRANCH   4  16
ATOM     15  N   UNL     1      11.157  11.226  22.068  0.00  0.00    +0.000 NA
ATOM     16  C   UNL     1      11.971  12.156  22.474  0.00  0.00    +0.000 C 
BRANCH  15  17
ATOM     17  O   UNL     1      11.428   9.978  22.644  0.00  0.00    +0.000 OA
BRANCH  17  18
ATOM     18  C   UNL     1      10.690   8.963  21.958  0.00  0.00    +0.000 C 
BRANCH  18  21
ATOM     19 CL   UNL     1      11.395   5.923  21.617  0.00  0.00    +0.000 Cl
ATOM     20 CL   UNL     1      14.080   7.451  17.236  0.00  0.00    +0.000 Cl
ATOM     21  C   UNL     1      11.480   8.527  20.763  0.00  0.00    +0.000 A 
ATOM     22  C   UNL     1      11.864   7.196  20.542  0.00  0.00    +0.000 A 
ATOM     23  C   UNL     1      11.911   9.520  19.865  0.00  0.00    +0.000 A 
ATOM     24  C   UNL     1      12.656   6.864  19.446  0.00  0.00    +0.000 A 
ATOM     25  C   UNL     1      12.709   9.186  18.775  0.00  0.00    +0.000 A 
ATOM     26  C   UNL     1      13.074   7.863  18.569  0.00  0.00    +0.000 A 
ENDBRANCH  18  21
ENDBRANCH  17  18
ENDBRANCH  15  17
ENDBRANCH   4  16
TORSDOF 5
ENDMDL
MODEL 2
REMARK VINA RESULT:      -5.8      2.822      3.849
REMARK  Name = 6062654
REMARK  5 active torsions:
REMARK  status: ('A' for Active; 'I' for Inactive)
REMARK    1  A    between atoms: O_4  and  N_7
REMARK    2  A    between atoms: O_4  and  C_20
REMARK    3  A    between atoms: C_8  and  C_13
REMARK    4  A    between atoms: C_9  and  C_11
REMARK    5  A    between atoms: C_17  and  C_20
REMARK                            x       y       z     vdW  Elec       q    Type
REMARK                         _______ _______ _______ _____ _____    ______ ____
ROOT
ATOM      1  S   UNL     1      15.315  13.544  21.377  0.00  0.00    +0.000 S 
ATOM      2  N   UNL     1      14.257  11.222  21.694  0.00  0.00    +0.000 N 
ATOM      3  N   UNL     1      16.349  10.966  20.959  0.00  0.00    +0.000 NA
ATOM      4  C   UNL     1      14.451   9.861  21.680  0.00  0.00    +0.000 A 
ATOM      5  C   UNL     1      15.748   9.734  21.168  0.00  0.00    +0.000 A 
ATOM      6  C   UNL     1      15.435  11.810  21.345  0.00  0.00    +0.000 A 
ATOM      7  C   UNL     1      13.221  12.106  21.915  0.00  0.00    +0.000 A 
ATOM      8  C   UNL     1      13.615  13.386  21.830  0.00  0.00    +0.000 A 
ENDROOT
BRANCH   5   9
ATOM      9  C   UNL     1      16.411   8.486  20.807  0.00  0.00    +0.000 A 
ATOM     10  C   UNL     1      15.858   7.601  19.873  0.00  0.00    +0.000 A 
ATOM     11  C   UNL     1      17.657   8.180  21.372  0.00  0.00    +0.000 A 
ATOM     12  C   UNL     1      16.577   6.485  19.439  0.00  0.00    +0.000 A 
ATOM     13  C   UNL     1      18.367   7.052  20.952  0.00  0.00    +0.000 A 
ATOM     14  C   UNL     1      17.837   6.219  19.968  0.00  0.00    +0.000 A 
ENDBRANCH   5   9
BRANCH   4  16
ATOM     15  N   UNL     1      12.408   8.502  21.388  0.00  0.00    +0.000 NA
ATOM     16  C   UNL     1      13.500   8.833  22.013  0.00  0.00    +0.000 C 
BRANCH  15  17
ATOM     17  O   UNL     1      12.108   9.363  20.324  0.00  0.00    +0.000 OA
BRANCH  17  18
ATOM     18  C   UNL     1      11.811   8.596  19.155  0.00  0.00    +0.000 C 
BRANCH  18  21
ATOM     19 CL   UNL     1      10.472   8.465  16.319  0.00  0.00    +0.000 Cl
ATOM     20 CL   UNL     1      14.898  10.923  14.558  0.00  0.00    +0.000 Cl
ATOM     21  C   UNL     1      12.513   9.218  17.988  0.00  0.00    +0.000 A 
ATOM     22  C   UNL     1      12.003   9.184  16.681  0.00  0.00    +0.000 A 
ATOM     23  C   UNL     1      13.774   9.797  18.214  0.00  0.00    +0.000 A 
ATOM     24  C   UNL     1      12.736   9.722  15.625  0.00  0.00    +0.000 A 
ATOM     25  C   UNL     1      14.506  10.327  17.156  0.00  0.00    +0.000 A 
ATOM     26  C   UNL     1      13.984  10.290  15.871  0.00  0.00    +0.000 A 
ENDBRANCH  18  21
ENDBRANCH  17  18
ENDBRANCH  15  17
ENDBRANCH   4  16
TORSDOF 5
ENDMDL
MODEL 3
REMARK VINA RESULT:      -5.6     11.034     13.279
REMARK  Name = 6062654
REMARK  5 active torsions:
REMARK  status: ('A' for Active; 'I' for Inactive)
REMARK    1  A    between atoms: O_4  and  N_7
REMARK    2  A    between atoms: O_4  and  C_20
REMARK    3  A    between atoms: C_8  and  C_13
REMARK    4  A    between atoms: C_9  and  C_11
REMARK    5  A    between atoms: C_17  and  C_20
REMARK                            x       y       z     vdW  Elec       q    Type
REMARK                         _______ _______ _______ _____ _____    ______ ____
ROOT
ATOM      1  S   UNL     1      -0.678  19.529  22.414  0.00  0.00    +0.000 S 
ATOM      2  N   UNL     1       0.087  17.080  22.586  0.00  0.00    +0.000 N 
ATOM      3  N   UNL     1       1.126  18.040  20.859  0.00  0.00    +0.000 NA
ATOM      4  C   UNL     1       0.934  16.107  22.112  0.00  0.00    +0.000 A 
ATOM      5  C   UNL     1       1.530  16.721  21.004  0.00  0.00    +0.000 A 
ATOM      6  C   UNL     1       0.313  18.212  21.862  0.00  0.00    +0.000 A 
ATOM      7  C   UNL     1      -0.916  17.195  23.527  0.00  0.00    +0.000 A 
ATOM      8  C   UNL     1      -1.406  18.442  23.601  0.00  0.00    +0.000 A 
ENDROOT
BRANCH   5   9
ATOM      9  C   UNL     1       2.415  16.080  20.039  0.00  0.00    +0.000 A 
ATOM     10  C   UNL     1       1.917  15.352  18.950  0.00  0.00    +0.000 A 
ATOM     11  C   UNL     1       3.802  16.229  20.173  0.00  0.00    +0.000 A 
ATOM     12  C   UNL     1       2.779  14.869  17.964  0.00  0.00    +0.000 A 
ATOM     13  C   UNL     1       4.667  15.727  19.196  0.00  0.00    +0.000 A 
ATOM     14  C   UNL     1       4.152  15.069  18.080  0.00  0.00    +0.000 A 
ENDBRANCH   5   9
BRANCH   4  16
ATOM     15  N   UNL     1       1.840  14.308  23.544  0.00  0.00    +0.000 NA
ATOM     16  C   UNL     1       1.078  14.756  22.590  0.00  0.00    +0.000 C 
BRANCH  15  17
ATOM     17  O   UNL     1       2.695  15.288  24.063  0.00  0.00    +0.000 OA
BRANCH  17  18
ATOM     18  C   UNL     1       4.000  15.135  23.498  0.00  0.00    +0.000 C 
BRANCH  18  21
ATOM     19 CL   UNL     1       7.012  15.259  22.626  0.00  0.00    +0.000 Cl
ATOM     20 CL   UNL     1       7.091  20.054  25.022  0.00  0.00    +0.000 Cl
ATOM     21  C   UNL     1       4.795  16.367  23.799  0.00  0.00    +0.000 A 
ATOM     22  C   UNL     1       6.153  16.500  23.472  0.00  0.00    +0.000 A 
ATOM     23  C   UNL     1       4.159  17.402  24.508  0.00  0.00    +0.000 A 
ATOM     24  C   UNL     1       6.857  17.645  23.840  0.00  0.00    +0.000 A 
ATOM     25  C   UNL     1       4.867  18.540  24.879  0.00  0.00    +0.000 A 
ATOM     26  C   UNL     1       6.208  18.658  24.542  0.00  0.00    +0.000 A 
ENDBRANCH  18  21
ENDBRANCH  17  18
ENDBRANCH  15  17
ENDBRANCH   4  16
TORSDOF 5
ENDMDL
MODEL 4
REMARK VINA RESULT:      -5.2      2.889      5.191
REMARK  Name = 6062654
REMARK  5 active torsions:
REMARK  status: ('A' for Active; 'I' for Inactive)
REMARK    1  A    between atoms: O_4  and  N_7
REMARK    2  A    between atoms: O_4  and  C_20
REMARK    3  A    between atoms: C_8  and  C_13
REMARK    4  A    between atoms: C_9  and  C_11
REMARK    5  A    between atoms: C_17  and  C_20
REMARK                            x       y       z     vdW  Elec       q    Type
REMARK                         _______ _______ _______ _____ _____    ______ ____
ROOT
ATOM      1  S   UNL     1      15.543  14.898  24.354  0.00  0.00    +0.000 S 
ATOM      2  N   UNL     1      13.337  13.843  25.149  0.00  0.00    +0.000 N 
ATOM      3  N   UNL     1      12.877  15.419  23.636  0.00  0.00    +0.000 NA
ATOM      4  C   UNL     1      11.973  13.775  24.986  0.00  0.00    +0.000 A 
ATOM      5  C   UNL     1      11.714  14.805  24.074  0.00  0.00    +0.000 A 
ATOM      6  C   UNL     1      13.812  14.765  24.266  0.00  0.00    +0.000 A 
ATOM      7  C   UNL     1      14.300  13.282  25.963  0.00  0.00    +0.000 A 
ATOM      8  C   UNL     1      15.536  13.698  25.651  0.00  0.00    +0.000 A 
ENDROOT
BRANCH   5   9
ATOM      9  C   UNL     1      10.397  15.272  23.656  0.00  0.00    +0.000 A 
ATOM     10  C   UNL     1       9.578  14.511  22.812  0.00  0.00    +0.000 A 
ATOM     11  C   UNL     1       9.913  16.494  24.144  0.00  0.00    +0.000 A 
ATOM     12  C   UNL     1       8.268  14.912  22.542  0.00  0.00    +0.000 A 
ATOM     13  C   UNL     1       8.609  16.905  23.857  0.00  0.00    +0.000 A 
ATOM     14  C   UNL     1       7.780  16.102  23.075  0.00  0.00    +0.000 A 
ENDBRANCH   5   9
BRANCH   4  16
ATOM     15  N   UNL     1      10.796  11.656  25.470  0.00  0.00    +0.000 NA
ATOM     16  C   UNL     1      11.046  12.916  25.676  0.00  0.00    +0.000 C 
BRANCH  15  17
ATOM     17  O   UNL     1      11.457  11.148  24.344  0.00  0.00    +0.000 OA
BRANCH  17  18
ATOM     18  C   UNL     1      10.507  10.884  23.308  0.00  0.00    +0.000 C 
BRANCH  18  21
ATOM     19 CL   UNL     1      12.184  11.994  20.899  0.00  0.00    +0.000 Cl
ATOM     20 CL   UNL     1      12.656   6.871  19.390  0.00  0.00    +0.000 Cl
ATOM     21  C   UNL     1      11.116   9.919  22.340  0.00  0.00    +0.000 A 
ATOM     22  C   UNL     1      11.858  10.325  21.219  0.00  0.00    +0.000 A 
ATOM     23  C   UNL     1      10.866   8.549  22.533  0.00  0.00    +0.000 A 
ATOM     24  C   UNL     1      12.343   9.381  20.316  0.00  0.00    +0.000 A 
ATOM     25  C   UNL     1      11.346   7.610  21.625  0.00  0.00    +0.000 A 
ATOM     26  C   UNL     1      12.083   8.028  20.526  0.00  0.00    +0.000 A 
ENDBRANCH  18  21
ENDBRANCH  17  18
ENDBRANCH  15  17
ENDBRANCH   4  16
TORSDOF 5
ENDMDL
MODEL 5
REMARK VINA RESULT:      -5.0     12.232     14.736
REMARK  Name = 6062654
REMARK  5 active torsions:
REMARK  status: ('A' for Active; 'I' for Inactive)
REMARK    1  A    between atoms: O_4  and  N_7
REMARK    2  A    between atoms: O_4  and  C_20
REMARK    3  A    between atoms: C_8  and  C_13
REMARK    4  A    between atoms: C_9  and  C_11
REMARK    5  A    between atoms: C_17  and  C_20
REMARK                            x       y       z     vdW  Elec       q    Type
REMARK                         _______ _______ _______ _____ _____    ______ ____
ROOT
ATOM      1  S   UNL     1       3.935  17.519  17.729  0.00  0.00    +0.000 S 
ATOM      2  N   UNL     1       2.475  16.050  19.254  0.00  0.00    +0.000 N 
ATOM      3  N   UNL     1       1.147  17.381  18.050  0.00  0.00    +0.000 NA
ATOM      4  C   UNL     1       1.201  15.667  19.600  0.00  0.00    +0.000 A 
ATOM      5  C   UNL     1       0.398  16.552  18.870  0.00  0.00    +0.000 A 
ATOM      6  C   UNL     1       2.371  16.996  18.279  0.00  0.00    +0.000 A 
ATOM      7  C   UNL     1       3.769  15.774  19.645  0.00  0.00    +0.000 A 
ATOM      8  C   UNL     1       4.677  16.435  18.911  0.00  0.00    +0.000 A 
ENDROOT
BRANCH   5   9
ATOM      9  C   UNL     1      -1.051  16.683  18.974  0.00  0.00    +0.000 A 
ATOM     10  C   UNL     1      -1.920  15.933  18.171  0.00  0.00    +0.000 A 
ATOM     11  C   UNL     1      -1.596  17.548  19.933  0.00  0.00    +0.000 A 
ATOM     12  C   UNL     1      -3.299  15.971  18.387  0.00  0.00    +0.000 A 
ATOM     13  C   UNL     1      -2.978  17.601  20.135  0.00  0.00    +0.000 A 
ATOM     14  C   UNL     1      -3.826  16.794  19.378  0.00  0.00    +0.000 A 
ENDBRANCH   5   9
BRANCH   4  16
ATOM     15  N   UNL     1       0.806  14.751  21.861  0.00  0.00    +0.000 NA
ATOM     16  C   UNL     1       0.813  14.670  20.563  0.00  0.00    +0.000 C 
BRANCH  15  17
ATOM     17  O   UNL     1       1.365  15.946  22.334  0.00  0.00    +0.000 OA
BRANCH  17  18
ATOM     18  C   UNL     1       1.726  15.796  23.709  0.00  0.00    +0.000 C 
BRANCH  18  21
ATOM     19 CL   UNL     1       2.222  18.400  25.388  0.00  0.00    +0.000 Cl
ATOM     20 CL   UNL     1       7.387  17.761  24.103  0.00  0.00    +0.000 Cl
ATOM     21  C   UNL     1       3.127  16.290  23.889  0.00  0.00    +0.000 A 
ATOM     22  C   UNL     1       3.441  17.459  24.600  0.00  0.00    +0.000 A 
ATOM     23  C   UNL     1       4.160  15.581  23.251  0.00  0.00    +0.000 A 
ATOM     24  C   UNL     1       4.759  17.905  24.675  0.00  0.00    +0.000 A 
ATOM     25  C   UNL     1       5.473  16.033  23.322  0.00  0.00    +0.000 A 
ATOM     26  C   UNL     1       5.767  17.187  24.034  0.00  0.00    +0.000 A 
ENDBRANCH  18  21
ENDBRANCH  17  18
ENDBRANCH  15  17
ENDBRANCH   4  16
TORSDOF 5
ENDMDL
MODEL 6
REMARK VINA RESULT:      -5.0     20.944     23.154
REMARK  Name = 6062654
REMARK  5 active torsions:
REMARK  status: ('A' for Active; 'I' for Inactive)
REMARK    1  A    between atoms: O_4  and  N_7
REMARK    2  A    between atoms: O_4  and  C_20
REMARK    3  A    between atoms: C_8  and  C_13
REMARK    4  A    between atoms: C_9  and  C_11
REMARK    5  A    between atoms: C_17  and  C_20
REMARK                            x       y       z     vdW  Elec       q    Type
REMARK                         _______ _______ _______ _____ _____    ______ ____
ROOT
ATOM      1  S   UNL     1      -3.042  13.477  10.403  0.00  0.00    +0.000 S 
ATOM      2  N   UNL     1      -1.539  12.400   8.616  0.00  0.00    +0.000 N 
ATOM      3  N   UNL     1      -3.618  11.622   8.374  0.00  0.00    +0.000 NA
ATOM      4  C   UNL     1      -1.476  11.593   7.504  0.00  0.00    +0.000 A 
ATOM      5  C   UNL     1      -2.777  11.085   7.411  0.00  0.00    +0.000 A 
ATOM      6  C   UNL     1      -2.839  12.440   9.023  0.00  0.00    +0.000 A 
ATOM      7  C   UNL     1      -0.668  13.109   9.417  0.00  0.00    +0.000 A 
ATOM      8  C   UNL     1      -1.301  13.778  10.392  0.00  0.00    +0.000 A 
ENDROOT
BRANCH   5   9
ATOM      9  C   UNL     1      -3.233  10.055   6.484  0.00  0.00    +0.000 A 
ATOM     10  C   UNL     1      -2.412   8.983   6.111  0.00  0.00    +0.000 A 
ATOM     11  C   UNL     1      -4.541  10.110   5.984  0.00  0.00    +0.000 A 
ATOM     12  C   UNL     1      -2.918   7.937   5.336  0.00  0.00    +0.000 A 
ATOM     13  C   UNL     1      -5.041   9.072   5.191  0.00  0.00    +0.000 A 
ATOM     14  C   UNL     1      -4.236   7.976   4.888  0.00  0.00    +0.000 A 
ENDBRANCH   5   9
BRANCH   4  16
ATOM     15  N   UNL     1       0.075  11.823   5.594  0.00  0.00    +0.000 NA
ATOM     16  C   UNL     1      -0.318  11.280   6.709  0.00  0.00    +0.000 C 
BRANCH  15  17
ATOM     17  O   UNL     1      -0.846  12.748   5.086  0.00  0.00    +0.000 OA
BRANCH  17  18
ATOM     18  C   UNL     1      -0.831  12.705   3.656  0.00  0.00    +0.000 C 
BRANCH  18  21
ATOM     19 CL   UNL     1      -0.570   9.770   2.575  0.00  0.00    +0.000 Cl
ATOM     20 CL   UNL     1      -5.830  10.092   1.594  0.00  0.00    +0.000 Cl
ATOM     21  C   UNL     1      -2.059  11.988   3.190  0.00  0.00    +0.000 A 
ATOM     22  C   UNL     1      -2.034  10.687   2.666  0.00  0.00    +0.000 A 
ATOM     23  C   UNL     1      -3.278  12.690   3.216  0.00  0.00    +0.000 A 
ATOM     24  C   UNL     1      -3.202  10.099   2.185  0.00  0.00    +0.000 A 
ATOM     25  C   UNL     1      -4.440  12.102   2.728  0.00  0.00    +0.000 A 
ATOM     26  C   UNL     1      -4.399  10.812   2.220  0.00  0.00    +0.000 A 
ENDBRANCH  18  21
ENDBRANCH  17  18
ENDBRANCH  15  17
ENDBRANCH   4  16
TORSDOF 5
ENDMDL
MODEL 7
REMARK VINA RESULT:      -4.9     34.476     36.538
REMARK  Name = 6062654
REMARK  5 active torsions:
REMARK  status: ('A' for Active; 'I' for Inactive)
REMARK    1  A    between atoms: O_4  and  N_7
REMARK    2  A    between atoms: O_4  and  C_20
REMARK    3  A    between atoms: C_8  and  C_13
REMARK    4  A    between atoms: C_9  and  C_11
REMARK    5  A    between atoms: C_17  and  C_20
REMARK                            x       y       z     vdW  Elec       q    Type
REMARK                         _______ _______ _______ _____ _____    ______ ____
ROOT
ATOM      1  S   UNL     1       4.221 -18.856  -3.015  0.00  0.00    +0.000 S 
ATOM      2  N   UNL     1       4.357 -16.443  -2.135  0.00  0.00    +0.000 N 
ATOM      3  N   UNL     1       3.168 -16.456  -4.025  0.00  0.00    +0.000 NA
ATOM      4  C   UNL     1       3.941 -15.141  -2.287  0.00  0.00    +0.000 A 
ATOM      5  C   UNL     1       3.244 -15.174  -3.501  0.00  0.00    +0.000 A 
ATOM      6  C   UNL     1       3.797 -17.175  -3.139  0.00  0.00    +0.000 A 
ATOM      7  C   UNL     1       5.188 -17.162  -1.301  0.00  0.00    +0.000 A 
ATOM      8  C   UNL     1       5.202 -18.470  -1.597  0.00  0.00    +0.000 A 
ENDROOT
BRANCH   5   9
ATOM      9  C   UNL     1       2.709 -14.021  -4.216  0.00  0.00    +0.000 A 
ATOM     10  C   UNL     1       1.738 -13.186  -3.647  0.00  0.00    +0.000 A 
ATOM     11  C   UNL     1       3.207 -13.708  -5.488  0.00  0.00    +0.000 A 
ATOM     12  C   UNL     1       1.346 -12.011  -4.291  0.00  0.00    +0.000 A 
ATOM     13  C   UNL     1       2.799 -12.542  -6.142  0.00  0.00    +0.000 A 
ATOM     14  C   UNL     1       1.887 -11.682  -5.531  0.00  0.00    +0.000 A 
ENDBRANCH   5   9
BRANCH   4  16
ATOM     15  N   UNL     1       3.758 -13.714  -0.278  0.00  0.00    +0.000 NA
ATOM     16  C   UNL     1       4.249 -14.016  -1.445  0.00  0.00    +0.000 C 
BRANCH  15  17
ATOM     17  O   UNL     1       2.717 -14.566   0.110  0.00  0.00    +0.000 OA
BRANCH  17  18
ATOM     18  C   UNL     1       2.501 -14.449   1.519  0.00  0.00    +0.000 C 
BRANCH  18  21
ATOM     19 CL   UNL     1       0.438 -16.304   2.986  0.00  0.00    +0.000 Cl
ATOM     20 CL   UNL     1       4.683 -19.290   4.326  0.00  0.00    +0.000 Cl
ATOM     21  C   UNL     1       2.988 -15.701   2.180  0.00  0.00    +0.000 A 
ATOM     22  C   UNL     1       2.143 -16.575   2.881  0.00  0.00    +0.000 A 
ATOM     23  C   UNL     1       4.369 -15.963   2.151  0.00  0.00    +0.000 A 
ATOM     24  C   UNL     1       2.667 -17.689   3.533  0.00  0.00    +0.000 A 
ATOM     25  C   UNL     1       4.889 -17.073   2.809  0.00  0.00    +0.000 A 
ATOM     26  C   UNL     1       4.039 -17.931   3.492  0.00  0.00    +0.000 A 
ENDBRANCH  18  21
ENDBRANCH  17  18
ENDBRANCH  15  17
ENDBRANCH   4  16
TORSDOF 5
ENDMDL
MODEL 8
REMARK VINA RESULT:      -4.9     11.538     13.142
REMARK  Name = 6062654
REMARK  5 active torsions:
REMARK  status: ('A' for Active; 'I' for Inactive)
REMARK    1  A    between atoms: O_4  and  N_7
REMARK    2  A    between atoms: O_4  and  C_20
REMARK    3  A    between atoms: C_8  and  C_13
REMARK    4  A    between atoms: C_9  and  C_11
REMARK    5  A    between atoms: C_17  and  C_20
REMARK                            x       y       z     vdW  Elec       q    Type
REMARK                         _______ _______ _______ _____ _____    ______ ____
ROOT
ATOM      1  S   UNL     1       3.783  20.092  25.042  0.00  0.00    +0.000 S 
ATOM      2  N   UNL     1       3.426  17.580  24.623  0.00  0.00    +0.000 N 
ATOM      3  N   UNL     1       4.967  18.338  23.195  0.00  0.00    +0.000 NA
ATOM      4  C   UNL     1       3.838  16.462  23.937  0.00  0.00    +0.000 A 
ATOM      5  C   UNL     1       4.762  16.978  23.020  0.00  0.00    +0.000 A 
ATOM      6  C   UNL     1       4.189  18.627  24.200  0.00  0.00    +0.000 A 
ATOM      7  C   UNL     1       2.461  17.915  25.550  0.00  0.00    +0.000 A 
ATOM      8  C   UNL     1       2.533  19.203  25.919  0.00  0.00    +0.000 A 
ENDROOT
BRANCH   5   9
ATOM      9  C   UNL     1       5.405  16.238  21.939  0.00  0.00    +0.000 A 
ATOM     10  C   UNL     1       4.805  16.102  20.680  0.00  0.00    +0.000 A 
ATOM     11  C   UNL     1       6.675  15.684  22.146  0.00  0.00    +0.000 A 
ATOM     12  C   UNL     1       5.501  15.513  19.622  0.00  0.00    +0.000 A 
ATOM     13  C   UNL     1       7.363  15.076  21.092  0.00  0.00    +0.000 A 
ATOM     14  C   UNL     1       6.784  15.013  19.825  0.00  0.00    +0.000 A 
ENDBRANCH   5   9
BRANCH   4  16
ATOM     15  N   UNL     1       2.372  14.537  23.434  0.00  0.00    +0.000 NA
ATOM     16  C   UNL     1       3.346  15.116  24.074  0.00  0.00    +0.000 C 
BRANCH  15  17
ATOM     17  O   UNL     1       1.673  15.416  22.597  0.00  0.00    +0.000 OA
BRANCH  17  18
ATOM     18  C   UNL     1       0.333  15.567  23.074  0.00  0.00    +0.000 C 
BRANCH  18  21
ATOM     19 CL   UNL     1      -0.786  18.494  23.257  0.00  0.00    +0.000 Cl
ATOM     20 CL   UNL     1      -3.242  17.416  18.616  0.00  0.00    +0.000 Cl
ATOM     21  C   UNL     1      -0.512  16.096  21.957  0.00  0.00    +0.000 A 
ATOM     22  C   UNL     1      -1.076  17.380  21.965  0.00  0.00    +0.000 A 
ATOM     23  C   UNL     1      -0.804  15.229  20.889  0.00  0.00    +0.000 A 
ATOM     24  C   UNL     1      -1.909  17.790  20.926  0.00  0.00    +0.000 A 
ATOM     25  C   UNL     1      -1.642  15.639  19.857  0.00  0.00    +0.000 A 
ATOM     26  C   UNL     1      -2.187  16.915  19.878  0.00  0.00    +0.000 A 
ENDBRANCH  18  21
ENDBRANCH  17  18
ENDBRANCH  15  17
ENDBRANCH   4  16
TORSDOF 5
ENDMDL
MODEL 9
REMARK VINA RESULT:      -4.9     11.713     14.424
REMARK  Name = 6062654
REMARK  5 active torsions:
REMARK  status: ('A' for Active; 'I' for Inactive)
REMARK    1  A    between atoms: O_4  and  N_7
REMARK    2  A    between atoms: O_4  and  C_20
REMARK    3  A    between atoms: C_8  and  C_13
REMARK    4  A    between atoms: C_9  and  C_11
REMARK    5  A    between atoms: C_17  and  C_20
REMARK                            x       y       z     vdW  Elec       q    Type
REMARK                         _______ _______ _______ _____ _____    ______ ____
ROOT
ATOM      1  S   UNL     1       1.927  17.335  18.220  0.00  0.00    +0.000 S 
ATOM      2  N   UNL     1       1.241  16.180  20.413  0.00  0.00    +0.000 N 
ATOM      3  N   UNL     1       0.868  18.373  20.606  0.00  0.00    +0.000 NA
ATOM      4  C   UNL     1       0.660  16.322  21.651  0.00  0.00    +0.000 A 
ATOM      5  C   UNL     1       0.486  17.707  21.760  0.00  0.00    +0.000 A 
ATOM      6  C   UNL     1       1.252  17.407  19.820  0.00  0.00    +0.000 A 
ATOM      7  C   UNL     1       1.828  15.180  19.666  0.00  0.00    +0.000 A 
ATOM      8  C   UNL     1       2.211  15.606  18.453  0.00  0.00    +0.000 A 
ENDROOT
BRANCH   5   9
ATOM      9  C   UNL     1       0.036  18.426  22.947  0.00  0.00    +0.000 A 
ATOM     10  C   UNL     1      -1.290  18.355  23.394  0.00  0.00    +0.000 A 
ATOM     11  C   UNL     1       0.960  19.173  23.691  0.00  0.00    +0.000 A 
ATOM     12  C   UNL     1      -1.662  18.936  24.608  0.00  0.00    +0.000 A 
ATOM     13  C   UNL     1       0.582  19.771  24.896  0.00  0.00    +0.000 A 
ATOM     14  C   UNL     1      -0.723  19.631  25.365  0.00  0.00    +0.000 A 
ENDBRANCH   5   9
BRANCH   4  16
ATOM     15  N   UNL     1       1.230  14.732  23.455  0.00  0.00    +0.000 NA
ATOM     16  C   UNL     1       0.401  15.293  22.624  0.00  0.00    +0.000 C 
BRANCH  15  17
ATOM     17  O   UNL     1       2.556  15.139  23.258  0.00  0.00    +0.000 OA
BRANCH  17  18
ATOM     18  C   UNL     1       2.903  16.132  24.227  0.00  0.00    +0.000 C 
BRANCH  18  21
ATOM     19 CL   UNL     1       4.017  18.731  25.587  0.00  0.00    +0.000 Cl
ATOM     20 CL   UNL     1       8.650  17.524  23.177  0.00  0.00    +0.000 Cl
ATOM     21  C   UNL     1       4.346  16.487  24.047  0.00  0.00    +0.000 A 
ATOM     22  C   UNL     1       4.924  17.643  24.594  0.00  0.00    +0.000 A 
ATOM     23  C   UNL     1       5.130  15.654  23.229  0.00  0.00    +0.000 A 
ATOM     24  C   UNL     1       6.257  17.955  24.335  0.00  0.00    +0.000 A 
ATOM     25  C   UNL     1       6.458  15.973  22.966  0.00  0.00    +0.000 A 
ATOM     26  C   UNL     1       7.015  17.116  23.521  0.00  0.00    +0.000 A 
ENDBRANCH  18  21
ENDBRANCH  17  18
ENDBRANCH  15  17
ENDBRANCH   4  16
TORSDOF 5
ENDMDL
MODEL 10
REMARK VINA RESULT:      -4.8     30.301     32.068
REMARK  Name = 6062654
REMARK  5 active torsions:
REMARK  status: ('A' for Active; 'I' for Inactive)
REMARK    1  A    between atoms: O_4  and  N_7
REMARK    2  A    between atoms: O_4  and  C_20
REMARK    3  A    between atoms: C_8  and  C_13
REMARK    4  A    between atoms: C_9  and  C_11
REMARK    5  A    between atoms: C_17  and  C_20
REMARK                            x       y       z     vdW  Elec       q    Type
REMARK                         _______ _______ _______ _____ _____    ______ ____
ROOT
ATOM      1  S   UNL     1      -8.239  -6.475   7.915  0.00  0.00    +0.000 S 
ATOM      2  N   UNL     1     -10.430  -7.268   9.004  0.00  0.00    +0.000 N 
ATOM      3  N   UNL     1     -10.291  -5.048   9.199  0.00  0.00    +0.000 NA
ATOM      4  C   UNL     1     -11.615  -6.901   9.599  0.00  0.00    +0.000 A 
ATOM      5  C   UNL     1     -11.473  -5.516   9.752  0.00  0.00    +0.000 A 
ATOM      6  C   UNL     1      -9.741  -6.128   8.719  0.00  0.00    +0.000 A 
ATOM      7  C   UNL     1      -9.768  -8.433   8.676  0.00  0.00    +0.000 A 
ATOM      8  C   UNL     1      -8.604  -8.199   8.050  0.00  0.00    +0.000 A 
ENDROOT
BRANCH   5   9
ATOM      9  C   UNL     1     -12.388  -4.633  10.465  0.00  0.00    +0.000 A 
ATOM     10  C   UNL     1     -13.434  -3.969   9.810  0.00  0.00    +0.000 A 
ATOM     11  C   UNL     1     -12.251  -4.474  11.851  0.00  0.00    +0.000 A 
ATOM     12  C   UNL     1     -14.380  -3.243  10.537  0.00  0.00    +0.000 A 
ATOM     13  C   UNL     1     -13.187  -3.730  12.575  0.00  0.00    +0.000 A 
ATOM     14  C   UNL     1     -14.264  -3.136  11.920  0.00  0.00    +0.000 A 
ENDBRANCH   5   9
BRANCH   4  16
ATOM     15  N   UNL     1     -12.866  -8.283  11.220  0.00  0.00    +0.000 NA
ATOM     16  C   UNL     1     -12.679  -7.762  10.043  0.00  0.00    +0.000 C 
BRANCH  15  17
ATOM     17  O   UNL     1     -11.804  -8.036  12.099  0.00  0.00    +0.000 OA
BRANCH  17  18
ATOM     18  C   UNL     1     -12.312  -7.833  13.421  0.00  0.00    +0.000 C 
BRANCH  18  21
ATOM     19 CL   UNL     1     -11.840  -5.933  15.874  0.00  0.00    +0.000 Cl
ATOM     20 CL   UNL     1      -7.762  -9.189  17.100  0.00  0.00    +0.000 Cl
ATOM     21  C   UNL     1     -11.230  -8.164  14.401  0.00  0.00    +0.000 A 
ATOM     22  C   UNL     1     -10.930  -7.359  15.511  0.00  0.00    +0.000 A 
ATOM     23  C   UNL     1     -10.438  -9.298  14.147  0.00  0.00    +0.000 A 
ATOM     24  C   UNL     1      -9.866  -7.684  16.350  0.00  0.00    +0.000 A 
ATOM     25  C   UNL     1      -9.373  -9.615  14.982  0.00  0.00    +0.000 A 
ATOM     26  C   UNL     1      -9.094  -8.812  16.079  0.00  0.00    +0.000 A 
ENDBRANCH  18  21
ENDBRANCH  17  18
ENDBRANCH  15  17
ENDBRANCH   4  16
TORSDOF 5
ENDMDL
