MODEL 1
REMARK VINA RESULT:      -6.0      0.000      0.000
REMARK  Name = 6066662
REMARK  6 active torsions:
REMARK  status: ('A' for Active; 'I' for Inactive)
REMARK    1  A    between atoms: O_3  and  N_6
REMARK    2  A    between atoms: O_3  and  C_21
REMARK    3  A    between atoms: C_7  and  C_9
REMARK    4  A    between atoms: C_8  and  C_14
REMARK    5  A    between atoms: C_15  and  C_19
REMARK    6  A    between atoms: C_20  and  C_21
REMARK                            x       y       z     vdW  Elec       q    Type
REMARK                         _______ _______ _______ _____ _____    ______ ____
ROOT
ATOM      1  S   UNL     1      -8.774  -6.765   7.773  0.00  0.00    +0.000 S 
ATOM      2  N   UNL     1      -7.158  -8.684   7.214  0.00  0.00    +0.000 N 
ATOM      3  N   UNL     1      -6.813  -8.040   9.324  0.00  0.00    +0.000 NA
ATOM      4  C   UNL     1      -5.937  -9.062   8.978  0.00  0.00    +0.000 A 
ATOM      5  C   UNL     1      -6.161  -9.512   7.673  0.00  0.00    +0.000 A 
ATOM      6  C   UNL     1      -7.500  -7.852   8.235  0.00  0.00    +0.000 A 
ATOM      7  C   UNL     1      -7.880  -8.507   6.052  0.00  0.00    +0.000 A 
ATOM      8  C   UNL     1      -8.785  -7.520   6.173  0.00  0.00    +0.000 A 
ENDROOT
BRANCH   4   9
ATOM      9  C   UNL     1      -4.905  -9.507   9.907  0.00  0.00    +0.000 A 
ATOM     10  C   UNL     1      -5.280 -10.219  11.053  0.00  0.00    +0.000 A 
ATOM     11  C   UNL     1      -3.554  -9.176   9.738  0.00  0.00    +0.000 A 
ATOM     12  C   UNL     1      -2.981 -10.273  11.827  0.00  0.00    +0.000 A 
ATOM     13  C   UNL     1      -4.330 -10.596  12.006  0.00  0.00    +0.000 A 
ATOM     14  C   UNL     1      -2.601  -9.563  10.685  0.00  0.00    +0.000 A 
ATOM     15  C   UNL     1      -1.965 -10.601  12.880  0.00  0.00    +0.000 C 
ENDBRANCH   4   9
BRANCH   5  17
ATOM     16  N   UNL     1      -6.146 -11.695   6.762  0.00  0.00    +0.000 NA
ATOM     17  C   UNL     1      -5.538 -10.567   6.937  0.00  0.00    +0.000 C 
BRANCH  16  18
ATOM     18  O   UNL     1      -5.348 -12.525   5.955  0.00  0.00    +0.000 OA
BRANCH  18  19
ATOM     19  C   UNL     1      -4.417 -11.702   5.246  0.00  0.00    +0.000 C 
BRANCH  19  21
ATOM     20 CL   UNL     1       0.062 -15.124   3.101  0.00  0.00    +0.000 Cl
ATOM     21  C   UNL     1      -3.241 -12.502   4.741  0.00  0.00    +0.000 A 
ATOM     22  C   UNL     1      -2.949 -12.511   3.367  0.00  0.00    +0.000 A 
ATOM     23  C   UNL     1      -2.483 -13.314   5.598  0.00  0.00    +0.000 A 
ATOM     24  C   UNL     1      -1.922 -13.312   2.862  0.00  0.00    +0.000 A 
ATOM     25  C   UNL     1      -1.454 -14.114   5.093  0.00  0.00    +0.000 A 
ATOM     26  C   UNL     1      -1.182 -14.114   3.726  0.00  0.00    +0.000 A 
ENDBRANCH  19  21
ENDBRANCH  18  19
ENDBRANCH  16  18
ENDBRANCH   5  17
TORSDOF 5
ENDMDL
MODEL 2
REMARK VINA RESULT:      -5.9     27.203     30.337
REMARK  Name = 6066662
REMARK  6 active torsions:
REMARK  status: ('A' for Active; 'I' for Inactive)
REMARK    1  A    between atoms: O_3  and  N_6
REMARK    2  A    between atoms: O_3  and  C_21
REMARK    3  A    between atoms: C_7  and  C_9
REMARK    4  A    between atoms: C_8  and  C_14
REMARK    5  A    between atoms: C_15  and  C_19
REMARK    6  A    between atoms: C_20  and  C_21
REMARK                            x       y       z     vdW  Elec       q    Type
REMARK                         _______ _______ _______ _____ _____    ______ ____
ROOT
ATOM      1  S   UNL     1       7.826  -5.001  38.183  0.00  0.00    +0.000 S 
ATOM      2  N   UNL     1       9.018  -4.762  35.919  0.00  0.00    +0.000 N 
ATOM      3  N   UNL     1       7.443  -6.334  35.744  0.00  0.00    +0.000 NA
ATOM      4  C   UNL     1       8.126  -6.195  34.542  0.00  0.00    +0.000 A 
ATOM      5  C   UNL     1       9.092  -5.186  34.614  0.00  0.00    +0.000 A 
ATOM      6  C   UNL     1       8.024  -5.469  36.523  0.00  0.00    +0.000 A 
ATOM      7  C   UNL     1       9.644  -3.834  36.725  0.00  0.00    +0.000 A 
ATOM      8  C   UNL     1       9.135  -3.829  37.969  0.00  0.00    +0.000 A 
ENDROOT
BRANCH   4   9
ATOM      9  C   UNL     1       7.843  -7.076  33.415  0.00  0.00    +0.000 A 
ATOM     10  C   UNL     1       6.573  -7.043  32.827  0.00  0.00    +0.000 A 
ATOM     11  C   UNL     1       8.770  -8.018  32.952  0.00  0.00    +0.000 A 
ATOM     12  C   UNL     1       7.171  -8.856  31.328  0.00  0.00    +0.000 A 
ATOM     13  C   UNL     1       6.237  -7.926  31.796  0.00  0.00    +0.000 A 
ATOM     14  C   UNL     1       8.440  -8.894  31.913  0.00  0.00    +0.000 A 
ATOM     15  C   UNL     1       6.797  -9.861  30.280  0.00  0.00    +0.000 C 
ENDBRANCH   4   9
BRANCH   5  17
ATOM     16  N   UNL     1      11.125  -5.228  33.404  0.00  0.00    +0.000 NA
ATOM     17  C   UNL     1       9.974  -4.676  33.611  0.00  0.00    +0.000 C 
BRANCH  16  18
ATOM     18  O   UNL     1      11.757  -4.580  32.329  0.00  0.00    +0.000 OA
BRANCH  18  19
ATOM     19  C   UNL     1      13.171  -4.641  32.536  0.00  0.00    +0.000 C 
BRANCH  19  21
ATOM     20 CL   UNL     1      16.105  -7.222  27.942  0.00  0.00    +0.000 Cl
ATOM     21  C   UNL     1      13.885  -5.219  31.338  0.00  0.00    +0.000 A 
ATOM     22  C   UNL     1      13.312  -6.299  30.646  0.00  0.00    +0.000 A 
ATOM     23  C   UNL     1      15.155  -4.766  30.951  0.00  0.00    +0.000 A 
ATOM     24  C   UNL     1      13.992  -6.910  29.590  0.00  0.00    +0.000 A 
ATOM     25  C   UNL     1      15.835  -5.376  29.893  0.00  0.00    +0.000 A 
ATOM     26  C   UNL     1      15.253  -6.450  29.222  0.00  0.00    +0.000 A 
ENDBRANCH  19  21
ENDBRANCH  18  19
ENDBRANCH  16  18
ENDBRANCH   5  17
TORSDOF 5
ENDMDL
MODEL 3
REMARK VINA RESULT:      -5.8     26.581     29.778
REMARK  Name = 6066662
REMARK  6 active torsions:
REMARK  status: ('A' for Active; 'I' for Inactive)
REMARK    1  A    between atoms: O_3  and  N_6
REMARK    2  A    between atoms: O_3  and  C_21
REMARK    3  A    between atoms: C_7  and  C_9
REMARK    4  A    between atoms: C_8  and  C_14
REMARK    5  A    between atoms: C_15  and  C_19
REMARK    6  A    between atoms: C_20  and  C_21
REMARK                            x       y       z     vdW  Elec       q    Type
REMARK                         _______ _______ _______ _____ _____    ______ ____
ROOT
ATOM      1  S   UNL     1       9.003  -3.222  37.756  0.00  0.00    +0.000 S 
ATOM      2  N   UNL     1       8.230  -4.949  36.016  0.00  0.00    +0.000 N 
ATOM      3  N   UNL     1      10.351  -4.397  35.593  0.00  0.00    +0.000 NA
ATOM      4  C   UNL     1       9.891  -5.313  34.655  0.00  0.00    +0.000 A 
ATOM      5  C   UNL     1       8.576  -5.707  34.923  0.00  0.00    +0.000 A 
ATOM      6  C   UNL     1       9.320  -4.211  36.364  0.00  0.00    +0.000 A 
ATOM      7  C   UNL     1       7.126  -4.774  36.825  0.00  0.00    +0.000 A 
ATOM      8  C   UNL     1       7.362  -3.883  37.804  0.00  0.00    +0.000 A 
ENDROOT
BRANCH   4   9
ATOM      9  C   UNL     1      10.727  -5.714  33.529  0.00  0.00    +0.000 A 
ATOM     10  C   UNL     1      10.924  -7.077  33.278  0.00  0.00    +0.000 A 
ATOM     11  C   UNL     1      11.411  -4.783  32.738  0.00  0.00    +0.000 A 
ATOM     12  C   UNL     1      12.451  -6.568  31.462  0.00  0.00    +0.000 A 
ATOM     13  C   UNL     1      11.779  -7.502  32.257  0.00  0.00    +0.000 A 
ATOM     14  C   UNL     1      12.258  -5.205  31.709  0.00  0.00    +0.000 A 
ATOM     15  C   UNL     1      13.432  -7.010  30.418  0.00  0.00    +0.000 C 
ENDBRANCH   4   9
BRANCH   5  17
ATOM     16  N   UNL     1       6.919  -6.278  33.334  0.00  0.00    +0.000 NA
ATOM     17  C   UNL     1       7.740  -6.657  34.258  0.00  0.00    +0.000 C 
BRANCH  16  18
ATOM     18  O   UNL     1       6.273  -7.408  32.804  0.00  0.00    +0.000 OA
BRANCH  18  19
ATOM     19  C   UNL     1       6.857  -8.576  33.388  0.00  0.00    +0.000 C 
BRANCH  19  21
ATOM     20 CL   UNL     1       6.148 -13.225  29.613  0.00  0.00    +0.000 Cl
ATOM     21  C   UNL     1       6.756  -9.769  32.469  0.00  0.00    +0.000 A 
ATOM     22  C   UNL     1       6.922  -9.593  31.085  0.00  0.00    +0.000 A 
ATOM     23  C   UNL     1       6.405 -11.039  32.951  0.00  0.00    +0.000 A 
ATOM     24  C   UNL     1       6.746 -10.662  30.205  0.00  0.00    +0.000 A 
ATOM     25  C   UNL     1       6.231 -12.110  32.070  0.00  0.00    +0.000 A 
ATOM     26  C   UNL     1       6.396 -11.915  30.700  0.00  0.00    +0.000 A 
ENDBRANCH  19  21
ENDBRANCH  18  19
ENDBRANCH  16  18
ENDBRANCH   5  17
TORSDOF 5
ENDMDL
MODEL 4
REMARK VINA RESULT:      -5.6     28.928     31.339
REMARK  Name = 6066662
REMARK  6 active torsions:
REMARK  status: ('A' for Active; 'I' for Inactive)
REMARK    1  A    between atoms: O_3  and  N_6
REMARK    2  A    between atoms: O_3  and  C_21
REMARK    3  A    between atoms: C_7  and  C_9
REMARK    4  A    between atoms: C_8  and  C_14
REMARK    5  A    between atoms: C_15  and  C_19
REMARK    6  A    between atoms: C_20  and  C_21
REMARK                            x       y       z     vdW  Elec       q    Type
REMARK                         _______ _______ _______ _____ _____    ______ ____
ROOT
ATOM      1  S   UNL     1       3.842  16.428  14.560  0.00  0.00    +0.000 S 
ATOM      2  N   UNL     1       2.637  15.771  16.733  0.00  0.00    +0.000 N 
ATOM      3  N   UNL     1       4.543  16.813  17.250  0.00  0.00    +0.000 NA
ATOM      4  C   UNL     1       3.874  16.420  18.403  0.00  0.00    +0.000 A 
ATOM      5  C   UNL     1       2.657  15.801  18.106  0.00  0.00    +0.000 A 
ATOM      6  C   UNL     1       3.768  16.389  16.294  0.00  0.00    +0.000 A 
ATOM      7  C   UNL     1       1.797  15.319  15.736  0.00  0.00    +0.000 A 
ATOM      8  C   UNL     1       2.287  15.584  14.512  0.00  0.00    +0.000 A 
ENDROOT
BRANCH   4   9
ATOM      9  C   UNL     1       4.474  16.618  19.718  0.00  0.00    +0.000 A 
ATOM     10  C   UNL     1       5.382  15.670  20.203  0.00  0.00    +0.000 A 
ATOM     11  C   UNL     1       4.110  17.683  20.552  0.00  0.00    +0.000 A 
ATOM     12  C   UNL     1       5.562  16.854  22.313  0.00  0.00    +0.000 A 
ATOM     13  C   UNL     1       5.920  15.783  21.489  0.00  0.00    +0.000 A 
ATOM     14  C   UNL     1       4.655  17.804  21.834  0.00  0.00    +0.000 A 
ATOM     15  C   UNL     1       6.068  16.944  23.722  0.00  0.00    +0.000 C 
ENDBRANCH   4   9
BRANCH   5  17
ATOM     16  N   UNL     1       0.798  16.101  19.539  0.00  0.00    +0.000 NA
ATOM     17  C   UNL     1       1.638  15.297  18.974  0.00  0.00    +0.000 C 
BRANCH  16  18
ATOM     18  O   UNL     1      -0.130  15.348  20.279  0.00  0.00    +0.000 OA
BRANCH  18  19
ATOM     19  C   UNL     1       0.589  14.541  21.215  0.00  0.00    +0.000 C 
BRANCH  19  21
ATOM     20 CL   UNL     1       2.850  18.011  25.599  0.00  0.00    +0.000 Cl
ATOM     21  C   UNL     1       1.114  15.360  22.369  0.00  0.00    +0.000 A 
ATOM     22  C   UNL     1       0.585  16.639  22.608  0.00  0.00    +0.000 A 
ATOM     23  C   UNL     1       2.187  14.915  23.157  0.00  0.00    +0.000 A 
ATOM     24  C   UNL     1       1.113  17.452  23.612  0.00  0.00    +0.000 A 
ATOM     25  C   UNL     1       2.714  15.729  24.164  0.00  0.00    +0.000 A 
ATOM     26  C   UNL     1       2.179  16.996  24.382  0.00  0.00    +0.000 A 
ENDBRANCH  19  21
ENDBRANCH  18  19
ENDBRANCH  16  18
ENDBRANCH   5  17
TORSDOF 5
ENDMDL
MODEL 5
REMARK VINA RESULT:      -5.6     11.187     13.571
REMARK  Name = 6066662
REMARK  6 active torsions:
REMARK  status: ('A' for Active; 'I' for Inactive)
REMARK    1  A    between atoms: O_3  and  N_6
REMARK    2  A    between atoms: O_3  and  C_21
REMARK    3  A    between atoms: C_7  and  C_9
REMARK    4  A    between atoms: C_8  and  C_14
REMARK    5  A    between atoms: C_15  and  C_19
REMARK    6  A    between atoms: C_20  and  C_21
REMARK                            x       y       z     vdW  Elec       q    Type
REMARK                         _______ _______ _______ _____ _____    ______ ____
ROOT
ATOM      1  S   UNL     1     -11.053 -14.216  21.798  0.00  0.00    +0.000 S 
ATOM      2  N   UNL     1     -10.629 -12.378  20.052  0.00  0.00    +0.000 N 
ATOM      3  N   UNL     1      -8.737 -13.520  20.374  0.00  0.00    +0.000 NA
ATOM      4  C   UNL     1      -8.539 -12.499  19.452  0.00  0.00    +0.000 A 
ATOM      5  C   UNL     1      -9.720 -11.795  19.202  0.00  0.00    +0.000 A 
ATOM      6  C   UNL     1      -9.990 -13.389  20.702  0.00  0.00    +0.000 A 
ATOM      7  C   UNL     1     -11.960 -12.226  20.379  0.00  0.00    +0.000 A 
ATOM      8  C   UNL     1     -12.353 -13.123  21.300  0.00  0.00    +0.000 A 
ENDROOT
BRANCH   4   9
ATOM      9  C   UNL     1      -7.212 -12.232  18.908  0.00  0.00    +0.000 A 
ATOM     10  C   UNL     1      -6.514 -11.098  19.340  0.00  0.00    +0.000 A 
ATOM     11  C   UNL     1      -6.643 -13.025  17.903  0.00  0.00    +0.000 A 
ATOM     12  C   UNL     1      -4.704 -11.567  17.792  0.00  0.00    +0.000 A 
ATOM     13  C   UNL     1      -5.274 -10.765  18.787  0.00  0.00    +0.000 A 
ATOM     14  C   UNL     1      -5.397 -12.700  17.357  0.00  0.00    +0.000 A 
ATOM     15  C   UNL     1      -3.415 -11.177  17.134  0.00  0.00    +0.000 C 
ENDBRANCH   4   9
BRANCH   5  17
ATOM     16  N   UNL     1     -10.287  -9.544  18.744  0.00  0.00    +0.000 NA
ATOM     17  C   UNL     1      -9.983 -10.719  18.298  0.00  0.00    +0.000 C 
BRANCH  16  18
ATOM     18  O   UNL     1     -10.429  -8.664  17.657  0.00  0.00    +0.000 OA
BRANCH  18  19
ATOM     19  C   UNL     1     -11.741  -8.828  17.112  0.00  0.00    +0.000 C 
BRANCH  19  21
ATOM     20 CL   UNL     1     -13.359  -4.337  13.426  0.00  0.00    +0.000 Cl
ATOM     21  C   UNL     1     -12.140  -7.650  16.256  0.00  0.00    +0.000 A 
ATOM     22  C   UNL     1     -13.478  -7.510  15.852  0.00  0.00    +0.000 A 
ATOM     23  C   UNL     1     -11.189  -6.739  15.772  0.00  0.00    +0.000 A 
ATOM     24  C   UNL     1     -13.856  -6.480  14.988  0.00  0.00    +0.000 A 
ATOM     25  C   UNL     1     -11.568  -5.708  14.909  0.00  0.00    +0.000 A 
ATOM     26  C   UNL     1     -12.899  -5.587  14.516  0.00  0.00    +0.000 A 
ENDBRANCH  19  21
ENDBRANCH  18  19
ENDBRANCH  16  18
ENDBRANCH   5  17
TORSDOF 5
ENDMDL
MODEL 6
REMARK VINA RESULT:      -5.5     29.265     31.866
REMARK  Name = 6066662
REMARK  6 active torsions:
REMARK  status: ('A' for Active; 'I' for Inactive)
REMARK    1  A    between atoms: O_3  and  N_6
REMARK    2  A    between atoms: O_3  and  C_21
REMARK    3  A    between atoms: C_7  and  C_9
REMARK    4  A    between atoms: C_8  and  C_14
REMARK    5  A    between atoms: C_15  and  C_19
REMARK    6  A    between atoms: C_20  and  C_21
REMARK                            x       y       z     vdW  Elec       q    Type
REMARK                         _______ _______ _______ _____ _____    ______ ____
ROOT
ATOM      1  S   UNL     1      13.910  16.415  23.763  0.00  0.00    +0.000 S 
ATOM      2  N   UNL     1      12.626  14.376  22.869  0.00  0.00    +0.000 N 
ATOM      3  N   UNL     1      11.345  16.191  22.649  0.00  0.00    +0.000 NA
ATOM      4  C   UNL     1      10.672  15.062  22.197  0.00  0.00    +0.000 A 
ATOM      5  C   UNL     1      11.469  13.918  22.287  0.00  0.00    +0.000 A 
ATOM      6  C   UNL     1      12.490  15.719  23.046  0.00  0.00    +0.000 A 
ATOM      7  C   UNL     1      13.837  13.855  23.276  0.00  0.00    +0.000 A 
ATOM      8  C   UNL     1      14.644  14.805  23.782  0.00  0.00    +0.000 A 
ENDROOT
BRANCH   4   9
ATOM      9  C   UNL     1       9.284  15.147  21.757  0.00  0.00    +0.000 A 
ATOM     10  C   UNL     1       9.012  15.448  20.417  0.00  0.00    +0.000 A 
ATOM     11  C   UNL     1       8.208  15.021  22.645  0.00  0.00    +0.000 A 
ATOM     12  C   UNL     1       6.626  15.475  20.860  0.00  0.00    +0.000 A 
ATOM     13  C   UNL     1       7.697  15.614  19.971  0.00  0.00    +0.000 A 
ATOM     14  C   UNL     1       6.892  15.175  22.199  0.00  0.00    +0.000 A 
ATOM     15  C   UNL     1       5.218  15.730  20.414  0.00  0.00    +0.000 C 
ENDBRANCH   4   9
BRANCH   5  17
ATOM     16  N   UNL     1      11.206  11.615  22.760  0.00  0.00    +0.000 NA
ATOM     17  C   UNL     1      11.204  12.570  21.889  0.00  0.00    +0.000 C 
BRANCH  16  18
ATOM     18  O   UNL     1      10.853  10.413  22.122  0.00  0.00    +0.000 OA
BRANCH  18  19
ATOM     19  C   UNL     1      12.053   9.712  21.786  0.00  0.00    +0.000 C 
BRANCH  19  21
ATOM     20 CL   UNL     1      12.426   9.249  15.784  0.00  0.00    +0.000 Cl
ATOM     21  C   UNL     1      12.186   9.521  20.294  0.00  0.00    +0.000 A 
ATOM     22  C   UNL     1      13.121  10.287  19.579  0.00  0.00    +0.000 A 
ATOM     23  C   UNL     1      11.333   8.663  19.585  0.00  0.00    +0.000 A 
ATOM     24  C   UNL     1      13.204  10.195  18.188  0.00  0.00    +0.000 A 
ATOM     25  C   UNL     1      11.416   8.569  18.193  0.00  0.00    +0.000 A 
ATOM     26  C   UNL     1      12.347   9.340  17.500  0.00  0.00    +0.000 A 
ENDBRANCH  19  21
ENDBRANCH  18  19
ENDBRANCH  16  18
ENDBRANCH   5  17
TORSDOF 5
ENDMDL
MODEL 7
REMARK VINA RESULT:      -5.5     29.172     31.778
REMARK  Name = 6066662
REMARK  6 active torsions:
REMARK  status: ('A' for Active; 'I' for Inactive)
REMARK    1  A    between atoms: O_3  and  N_6
REMARK    2  A    between atoms: O_3  and  C_21
REMARK    3  A    between atoms: C_7  and  C_9
REMARK    4  A    between atoms: C_8  and  C_14
REMARK    5  A    between atoms: C_15  and  C_19
REMARK    6  A    between atoms: C_20  and  C_21
REMARK                            x       y       z     vdW  Elec       q    Type
REMARK                         _______ _______ _______ _____ _____    ______ ____
ROOT
ATOM      1  S   UNL     1      12.404  16.406  17.425  0.00  0.00    +0.000 S 
ATOM      2  N   UNL     1      12.043  15.013  19.554  0.00  0.00    +0.000 N 
ATOM      3  N   UNL     1      10.293  16.369  19.272  0.00  0.00    +0.000 NA
ATOM      4  C   UNL     1      10.143  15.616  20.431  0.00  0.00    +0.000 A 
ATOM      5  C   UNL     1      11.208  14.728  20.608  0.00  0.00    +0.000 A 
ATOM      6  C   UNL     1      11.442  15.977  18.805  0.00  0.00    +0.000 A 
ATOM      7  C   UNL     1      13.260  14.576  19.073  0.00  0.00    +0.000 A 
ATOM      8  C   UNL     1      13.608  15.217  17.943  0.00  0.00    +0.000 A 
ENDROOT
BRANCH   4   9
ATOM      9  C   UNL     1       9.010  15.834  21.323  0.00  0.00    +0.000 A 
ATOM     10  C   UNL     1       7.822  15.128  21.100  0.00  0.00    +0.000 A 
ATOM     11  C   UNL     1       9.038  16.790  22.346  0.00  0.00    +0.000 A 
ATOM     12  C   UNL     1       6.725  16.312  22.913  0.00  0.00    +0.000 A 
ATOM     13  C   UNL     1       6.688  15.365  21.884  0.00  0.00    +0.000 A 
ATOM     14  C   UNL     1       7.909  17.020  23.139  0.00  0.00    +0.000 A 
ATOM     15  C   UNL     1       5.495  16.633  23.707  0.00  0.00    +0.000 C 
ENDBRANCH   4   9
BRANCH   5  17
ATOM     16  N   UNL     1      11.298  12.484  21.352  0.00  0.00    +0.000 NA
ATOM     17  C   UNL     1      11.434  13.742  21.618  0.00  0.00    +0.000 C 
BRANCH  16  18
ATOM     18  O   UNL     1      11.642  11.735  22.491  0.00  0.00    +0.000 OA
BRANCH  18  19
ATOM     19  C   UNL     1      12.723  10.864  22.148  0.00  0.00    +0.000 C 
BRANCH  19  21
ATOM     20 CL   UNL     1      10.922   5.144  21.511  0.00  0.00    +0.000 Cl
ATOM     21  C   UNL     1      12.276   9.424  22.074  0.00  0.00    +0.000 A 
ATOM     22  C   UNL     1      13.171   8.445  21.612  0.00  0.00    +0.000 A 
ATOM     23  C   UNL     1      10.956   9.050  22.366  0.00  0.00    +0.000 A 
ATOM     24  C   UNL     1      12.756   7.121  21.450  0.00  0.00    +0.000 A 
ATOM     25  C   UNL     1      10.541   7.725  22.205  0.00  0.00    +0.000 A 
ATOM     26  C   UNL     1      11.442   6.768  21.741  0.00  0.00    +0.000 A 
ENDBRANCH  19  21
ENDBRANCH  18  19
ENDBRANCH  16  18
ENDBRANCH   5  17
TORSDOF 5
ENDMDL
MODEL 8
REMARK VINA RESULT:      -5.4     30.827     33.172
REMARK  Name = 6066662
REMARK  6 active torsions:
REMARK  status: ('A' for Active; 'I' for Inactive)
REMARK    1  A    between atoms: O_3  and  N_6
REMARK    2  A    between atoms: O_3  and  C_21
REMARK    3  A    between atoms: C_7  and  C_9
REMARK    4  A    between atoms: C_8  and  C_14
REMARK    5  A    between atoms: C_15  and  C_19
REMARK    6  A    between atoms: C_20  and  C_21
REMARK                            x       y       z     vdW  Elec       q    Type
REMARK                         _______ _______ _______ _____ _____    ______ ____
ROOT
ATOM      1  S   UNL     1       7.164  20.237  26.519  0.00  0.00    +0.000 S 
ATOM      2  N   UNL     1       7.360  18.504  24.632  0.00  0.00    +0.000 N 
ATOM      3  N   UNL     1       5.204  18.772  25.146  0.00  0.00    +0.000 NA
ATOM      4  C   UNL     1       5.351  17.821  24.143  0.00  0.00    +0.000 A 
ATOM      5  C   UNL     1       6.690  17.665  23.774  0.00  0.00    +0.000 A 
ATOM      6  C   UNL     1       6.429  19.130  25.402  0.00  0.00    +0.000 A 
ATOM      7  C   UNL     1       8.666  18.874  24.882  0.00  0.00    +0.000 A 
ATOM      8  C   UNL     1       8.745  19.789  25.863  0.00  0.00    +0.000 A 
ENDROOT
BRANCH   4   9
ATOM      9  C   UNL     1       4.198  17.085  23.638  0.00  0.00    +0.000 A 
ATOM     10  C   UNL     1       3.182  17.781  22.973  0.00  0.00    +0.000 A 
ATOM     11  C   UNL     1       4.028  15.713  23.868  0.00  0.00    +0.000 A 
ATOM     12  C   UNL     1       1.865  15.753  22.764  0.00  0.00    +0.000 A 
ATOM     13  C   UNL     1       2.025  17.125  22.542  0.00  0.00    +0.000 A 
ATOM     14  C   UNL     1       2.877  15.053  23.428  0.00  0.00    +0.000 A 
ATOM     15  C   UNL     1       0.596  15.054  22.380  0.00  0.00    +0.000 C 
ENDBRANCH   4   9
BRANCH   5  17
ATOM     16  N   UNL     1       7.466  17.306  21.568  0.00  0.00    +0.000 NA
ATOM     17  C   UNL     1       7.283  16.847  22.763  0.00  0.00    +0.000 C 
BRANCH  16  18
ATOM     18  O   UNL     1       8.121  16.330  20.797  0.00  0.00    +0.000 OA
BRANCH  18  19
ATOM     19  C   UNL     1       7.321  15.144  20.798  0.00  0.00    +0.000 C 
BRANCH  19  21
ATOM     20 CL   UNL     1       2.888  15.836  16.768  0.00  0.00    +0.000 Cl
ATOM     21  C   UNL     1       6.183  15.240  19.811  0.00  0.00    +0.000 A 
ATOM     22  C   UNL     1       6.444  15.110  18.437  0.00  0.00    +0.000 A 
ATOM     23  C   UNL     1       4.878  15.551  20.224  0.00  0.00    +0.000 A 
ATOM     24  C   UNL     1       5.425  15.282  17.499  0.00  0.00    +0.000 A 
ATOM     25  C   UNL     1       3.857  15.721  19.284  0.00  0.00    +0.000 A 
ATOM     26  C   UNL     1       4.137  15.593  17.926  0.00  0.00    +0.000 A 
ENDBRANCH  19  21
ENDBRANCH  18  19
ENDBRANCH  16  18
ENDBRANCH   5  17
TORSDOF 5
ENDMDL
MODEL 9
REMARK VINA RESULT:      -5.4      9.355     12.291
REMARK  Name = 6066662
REMARK  6 active torsions:
REMARK  status: ('A' for Active; 'I' for Inactive)
REMARK    1  A    between atoms: O_3  and  N_6
REMARK    2  A    between atoms: O_3  and  C_21
REMARK    3  A    between atoms: C_7  and  C_9
REMARK    4  A    between atoms: C_8  and  C_14
REMARK    5  A    between atoms: C_15  and  C_19
REMARK    6  A    between atoms: C_20  and  C_21
REMARK                            x       y       z     vdW  Elec       q    Type
REMARK                         _______ _______ _______ _____ _____    ______ ____
ROOT
ATOM      1  S   UNL     1     -12.907 -12.263  21.484  0.00  0.00    +0.000 S 
ATOM      2  N   UNL     1     -11.052 -11.866  19.750  0.00  0.00    +0.000 N 
ATOM      3  N   UNL     1     -12.509 -10.177  19.650  0.00  0.00    +0.000 NA
ATOM      4  C   UNL     1     -11.502 -10.008  18.707  0.00  0.00    +0.000 A 
ATOM      5  C   UNL     1     -10.554 -11.033  18.778  0.00  0.00    +0.000 A 
ATOM      6  C   UNL     1     -12.194 -11.300  20.227  0.00  0.00    +0.000 A 
ATOM      7  C   UNL     1     -10.695 -13.054  20.354  0.00  0.00    +0.000 A 
ATOM      8  C   UNL     1     -11.577 -13.416  21.302  0.00  0.00    +0.000 A 
ENDROOT
BRANCH   4   9
ATOM      9  C   UNL     1     -11.544  -8.899  17.761  0.00  0.00    +0.000 A 
ATOM     10  C   UNL     1     -12.701  -8.697  16.998  0.00  0.00    +0.000 A 
ATOM     11  C   UNL     1     -10.435  -8.076  17.525  0.00  0.00    +0.000 A 
ATOM     12  C   UNL     1     -11.647  -6.866  15.803  0.00  0.00    +0.000 A 
ATOM     13  C   UNL     1     -12.753  -7.693  16.026  0.00  0.00    +0.000 A 
ATOM     14  C   UNL     1     -10.490  -7.064  16.561  0.00  0.00    +0.000 A 
ATOM     15  C   UNL     1     -11.662  -5.840  14.709  0.00  0.00    +0.000 C 
ENDBRANCH   4   9
BRANCH   5  17
ATOM     16  N   UNL     1      -9.369 -11.708  16.844  0.00  0.00    +0.000 NA
ATOM     17  C   UNL     1      -9.342 -11.226  18.043  0.00  0.00    +0.000 C 
BRANCH  16  18
ATOM     18  O   UNL     1      -8.061 -11.731  16.330  0.00  0.00    +0.000 OA
BRANCH  18  19
ATOM     19  C   UNL     1      -7.310 -10.693  16.965  0.00  0.00    +0.000 C 
BRANCH  19  21
ATOM     20 CL   UNL     1      -1.370 -10.865  15.930  0.00  0.00    +0.000 Cl
ATOM     21  C   UNL     1      -5.834 -10.812  16.668  0.00  0.00    +0.000 A 
ATOM     22  C   UNL     1      -4.940 -11.108  17.709  0.00  0.00    +0.000 A 
ATOM     23  C   UNL     1      -5.319 -10.541  15.391  0.00  0.00    +0.000 A 
ATOM     24  C   UNL     1      -3.563 -11.136  17.479  0.00  0.00    +0.000 A 
ATOM     25  C   UNL     1      -3.941 -10.571  15.160  0.00  0.00    +0.000 A 
ATOM     26  C   UNL     1      -3.069 -10.862  16.207  0.00  0.00    +0.000 A 
ENDBRANCH  19  21
ENDBRANCH  18  19
ENDBRANCH  16  18
ENDBRANCH   5  17
TORSDOF 5
ENDMDL
MODEL 10
REMARK VINA RESULT:      -5.4     23.685     25.207
REMARK  Name = 6066662
REMARK  6 active torsions:
REMARK  status: ('A' for Active; 'I' for Inactive)
REMARK    1  A    between atoms: O_3  and  N_6
REMARK    2  A    between atoms: O_3  and  C_21
REMARK    3  A    between atoms: C_7  and  C_9
REMARK    4  A    between atoms: C_8  and  C_14
REMARK    5  A    between atoms: C_15  and  C_19
REMARK    6  A    between atoms: C_20  and  C_21
REMARK                            x       y       z     vdW  Elec       q    Type
REMARK                         _______ _______ _______ _____ _____    ______ ____
ROOT
ATOM      1  S   UNL     1     -20.672   2.045  21.200  0.00  0.00    +0.000 S 
ATOM      2  N   UNL     1     -18.441   3.279  21.528  0.00  0.00    +0.000 N 
ATOM      3  N   UNL     1     -19.213   2.637  23.522  0.00  0.00    +0.000 NA
ATOM      4  C   UNL     1     -18.017   3.331  23.663  0.00  0.00    +0.000 A 
ATOM      5  C   UNL     1     -17.492   3.709  22.424  0.00  0.00    +0.000 A 
ATOM      6  C   UNL     1     -19.418   2.651  22.237  0.00  0.00    +0.000 A 
ATOM      7  C   UNL     1     -18.635   3.300  20.162  0.00  0.00    +0.000 A 
ATOM      8  C   UNL     1     -19.780   2.687  19.812  0.00  0.00    +0.000 A 
ENDROOT
BRANCH   4   9
ATOM      9  C   UNL     1     -17.480   3.633  24.985  0.00  0.00    +0.000 A 
ATOM     10  C   UNL     1     -16.812   2.628  25.695  0.00  0.00    +0.000 A 
ATOM     11  C   UNL     1     -17.683   4.871  25.609  0.00  0.00    +0.000 A 
ATOM     12  C   UNL     1     -16.545   4.096  27.610  0.00  0.00    +0.000 A 
ATOM     13  C   UNL     1     -16.351   2.854  26.996  0.00  0.00    +0.000 A 
ATOM     14  C   UNL     1     -17.212   5.102  26.906  0.00  0.00    +0.000 A 
ATOM     15  C   UNL     1     -16.128   4.324  29.032  0.00  0.00    +0.000 C 
ENDBRANCH   4   9
BRANCH   5  17
ATOM     16  N   UNL     1     -15.151   3.994  22.614  0.00  0.00    +0.000 NA
ATOM     17  C   UNL     1     -16.273   4.382  22.101  0.00  0.00    +0.000 C 
BRANCH  16  18
ATOM     18  O   UNL     1     -14.110   4.775  22.083  0.00  0.00    +0.000 OA
BRANCH  18  19
ATOM     19  C   UNL     1     -14.427   6.153  22.298  0.00  0.00    +0.000 C 
BRANCH  19  21
ATOM     20 CL   UNL     1     -10.603   9.832  19.430  0.00  0.00    +0.000 Cl
ATOM     21  C   UNL     1     -13.416   7.065  21.646  0.00  0.00    +0.000 A 
ATOM     22  C   UNL     1     -13.656   8.449  21.605  0.00  0.00    +0.000 A 
ATOM     23  C   UNL     1     -12.283   6.557  20.993  0.00  0.00    +0.000 A 
ATOM     24  C   UNL     1     -12.782   9.304  20.931  0.00  0.00    +0.000 A 
ATOM     25  C   UNL     1     -11.406   7.413  20.320  0.00  0.00    +0.000 A 
ATOM     26  C   UNL     1     -11.664   8.782  20.287  0.00  0.00    +0.000 A 
ENDBRANCH  19  21
ENDBRANCH  18  19
ENDBRANCH  16  18
ENDBRANCH   5  17
TORSDOF 5
ENDMDL
