MODEL 1
REMARK VINA RESULT:      -5.8      0.000      0.000
REMARK  Name = 6066662
REMARK  6 active torsions:
REMARK  status: ('A' for Active; 'I' for Inactive)
REMARK    1  A    between atoms: O_3  and  N_6
REMARK    2  A    between atoms: O_3  and  C_21
REMARK    3  A    between atoms: C_7  and  C_9
REMARK    4  A    between atoms: C_8  and  C_14
REMARK    5  A    between atoms: C_15  and  C_19
REMARK    6  A    between atoms: C_20  and  C_21
REMARK                            x       y       z     vdW  Elec       q    Type
REMARK                         _______ _______ _______ _____ _____    ______ ____
ROOT
ATOM      1  S   UNL     1     -11.035   0.472 -33.420  0.00  0.00    +0.000 S 
ATOM      2  N   UNL     1     -11.316   2.685 -34.696  0.00  0.00    +0.000 N 
ATOM      3  N   UNL     1      -9.185   2.036 -34.835  0.00  0.00    +0.000 NA
ATOM      4  C   UNL     1      -9.370   3.245 -35.495  0.00  0.00    +0.000 A 
ATOM      5  C   UNL     1     -10.706   3.653 -35.457  0.00  0.00    +0.000 A 
ATOM      6  C   UNL     1     -10.370   1.762 -34.372  0.00  0.00    +0.000 A 
ATOM      7  C   UNL     1     -12.582   2.411 -34.221  0.00  0.00    +0.000 A 
ATOM      8  C   UNL     1     -12.613   1.267 -33.515  0.00  0.00    +0.000 A 
ENDROOT
BRANCH   4   9
ATOM      9  C   UNL     1      -8.239   3.959 -36.076  0.00  0.00    +0.000 A 
ATOM     10  C   UNL     1      -7.444   4.765 -35.251  0.00  0.00    +0.000 A 
ATOM     11  C   UNL     1      -7.966   3.936 -37.450  0.00  0.00    +0.000 A 
ATOM     12  C   UNL     1      -6.123   5.489 -37.154  0.00  0.00    +0.000 A 
ATOM     13  C   UNL     1      -6.399   5.525 -35.783  0.00  0.00    +0.000 A 
ATOM     14  C   UNL     1      -6.913   4.687 -37.982  0.00  0.00    +0.000 A 
ATOM     15  C   UNL     1      -5.058   6.361 -37.748  0.00  0.00    +0.000 C 
ENDBRANCH   4   9
BRANCH   5  17
ATOM     16  N   UNL     1     -11.085   5.983 -35.619  0.00  0.00    +0.000 NA
ATOM     17  C   UNL     1     -11.345   4.790 -36.044  0.00  0.00    +0.000 C 
BRANCH  16  18
ATOM     18  O   UNL     1     -11.789   6.912 -36.404  0.00  0.00    +0.000 OA
BRANCH  18  19
ATOM     19  C   UNL     1     -12.192   7.998 -35.564  0.00  0.00    +0.000 C 
BRANCH  19  21
ATOM     20 CL   UNL     1     -17.563   6.704 -33.144  0.00  0.00    +0.000 Cl
ATOM     21  C   UNL     1     -13.555   7.758 -34.960  0.00  0.00    +0.000 A 
ATOM     22  C   UNL     1     -13.660   7.426 -33.599  0.00  0.00    +0.000 A 
ATOM     23  C   UNL     1     -14.717   7.765 -35.745  0.00  0.00    +0.000 A 
ATOM     24  C   UNL     1     -14.898   7.112 -33.036  0.00  0.00    +0.000 A 
ATOM     25  C   UNL     1     -15.958   7.452 -35.181  0.00  0.00    +0.000 A 
ATOM     26  C   UNL     1     -16.041   7.121 -33.830  0.00  0.00    +0.000 A 
ENDBRANCH  19  21
ENDBRANCH  18  19
ENDBRANCH  16  18
ENDBRANCH   5  17
TORSDOF 5
ENDMDL
MODEL 2
REMARK VINA RESULT:      -5.8     17.463     19.336
REMARK  Name = 6066662
REMARK  6 active torsions:
REMARK  status: ('A' for Active; 'I' for Inactive)
REMARK    1  A    between atoms: O_3  and  N_6
REMARK    2  A    between atoms: O_3  and  C_21
REMARK    3  A    between atoms: C_7  and  C_9
REMARK    4  A    between atoms: C_8  and  C_14
REMARK    5  A    between atoms: C_15  and  C_19
REMARK    6  A    between atoms: C_20  and  C_21
REMARK                            x       y       z     vdW  Elec       q    Type
REMARK                         _______ _______ _______ _____ _____    ______ ____
ROOT
ATOM      1  S   UNL     1      -8.001  -1.602 -53.311  0.00  0.00    +0.000 S 
ATOM      2  N   UNL     1      -6.245  -0.095 -52.192  0.00  0.00    +0.000 N 
ATOM      3  N   UNL     1      -6.818   0.798 -54.156  0.00  0.00    +0.000 NA
ATOM      4  C   UNL     1      -5.850   1.575 -53.532  0.00  0.00    +0.000 A 
ATOM      5  C   UNL     1      -5.504   1.059 -52.280  0.00  0.00    +0.000 A 
ATOM      6  C   UNL     1      -7.001  -0.182 -53.320  0.00  0.00    +0.000 A 
ATOM      7  C   UNL     1      -6.429  -1.121 -51.288  0.00  0.00    +0.000 A 
ATOM      8  C   UNL     1      -7.330  -2.017 -51.726  0.00  0.00    +0.000 A 
ENDROOT
BRANCH   4   9
ATOM      9  C   UNL     1      -5.280   2.739 -54.202  0.00  0.00    +0.000 A 
ATOM     10  C   UNL     1      -4.267   2.551 -55.151  0.00  0.00    +0.000 A 
ATOM     11  C   UNL     1      -5.649   4.048 -53.870  0.00  0.00    +0.000 A 
ATOM     12  C   UNL     1      -4.023   4.949 -55.432  0.00  0.00    +0.000 A 
ATOM     13  C   UNL     1      -3.642   3.643 -55.758  0.00  0.00    +0.000 A 
ATOM     14  C   UNL     1      -5.033   5.142 -54.485  0.00  0.00    +0.000 A 
ATOM     15  C   UNL     1      -3.306   6.129 -56.016  0.00  0.00    +0.000 C 
ENDBRANCH   4   9
BRANCH   5  17
ATOM     16  N   UNL     1      -3.350   1.244 -51.318  0.00  0.00    +0.000 NA
ATOM     17  C   UNL     1      -4.604   1.559 -51.288  0.00  0.00    +0.000 C 
BRANCH  16  18
ATOM     18  O   UNL     1      -2.684   1.918 -50.280  0.00  0.00    +0.000 OA
BRANCH  18  19
ATOM     19  C   UNL     1      -1.275   1.790 -50.492  0.00  0.00    +0.000 C 
BRANCH  19  21
ATOM     20 CL   UNL     1       1.596   2.986 -45.324  0.00  0.00    +0.000 Cl
ATOM     21  C   UNL     1      -0.492   2.122 -49.244  0.00  0.00    +0.000 A 
ATOM     22  C   UNL     1       0.119   1.088 -48.515  0.00  0.00    +0.000 A 
ATOM     23  C   UNL     1      -0.436   3.429 -48.739  0.00  0.00    +0.000 A 
ATOM     24  C   UNL     1       0.774   1.357 -47.311  0.00  0.00    +0.000 A 
ATOM     25  C   UNL     1       0.221   3.699 -47.535  0.00  0.00    +0.000 A 
ATOM     26  C   UNL     1       0.817   2.660 -46.823  0.00  0.00    +0.000 A 
ENDBRANCH  19  21
ENDBRANCH  18  19
ENDBRANCH  16  18
ENDBRANCH   5  17
TORSDOF 5
ENDMDL
MODEL 3
REMARK VINA RESULT:      -5.6      4.062      6.789
REMARK  Name = 6066662
REMARK  6 active torsions:
REMARK  status: ('A' for Active; 'I' for Inactive)
REMARK    1  A    between atoms: O_3  and  N_6
REMARK    2  A    between atoms: O_3  and  C_21
REMARK    3  A    between atoms: C_7  and  C_9
REMARK    4  A    between atoms: C_8  and  C_14
REMARK    5  A    between atoms: C_15  and  C_19
REMARK    6  A    between atoms: C_20  and  C_21
REMARK                            x       y       z     vdW  Elec       q    Type
REMARK                         _______ _______ _______ _____ _____    ______ ____
ROOT
ATOM      1  S   UNL     1     -14.895   8.858 -29.065  0.00  0.00    +0.000 S 
ATOM      2  N   UNL     1     -13.851   8.834 -31.413  0.00  0.00    +0.000 N 
ATOM      3  N   UNL     1     -13.969   6.738 -30.652  0.00  0.00    +0.000 NA
ATOM      4  C   UNL     1     -13.385   6.766 -31.913  0.00  0.00    +0.000 A 
ATOM      5  C   UNL     1     -13.337   8.065 -32.429  0.00  0.00    +0.000 A 
ATOM      6  C   UNL     1     -14.210   7.992 -30.405  0.00  0.00    +0.000 A 
ATOM      7  C   UNL     1     -14.105  10.169 -31.175  0.00  0.00    +0.000 A 
ATOM      8  C   UNL     1     -14.660  10.363 -29.966  0.00  0.00    +0.000 A 
ENDROOT
BRANCH   4   9
ATOM      9  C   UNL     1     -12.861   5.548 -32.521  0.00  0.00    +0.000 A 
ATOM     10  C   UNL     1     -11.476   5.355 -32.577  0.00  0.00    +0.000 A 
ATOM     11  C   UNL     1     -13.693   4.600 -33.130  0.00  0.00    +0.000 A 
ATOM     12  C   UNL     1     -11.768   3.288 -33.815  0.00  0.00    +0.000 A 
ATOM     13  C   UNL     1     -10.932   4.239 -33.219  0.00  0.00    +0.000 A 
ATOM     14  C   UNL     1     -13.152   3.476 -33.763  0.00  0.00    +0.000 A 
ATOM     15  C   UNL     1     -11.196   2.130 -34.576  0.00  0.00    +0.000 C 
ENDBRANCH   4   9
BRANCH   5  17
ATOM     16  N   UNL     1     -11.636   8.867 -33.864  0.00  0.00    +0.000 NA
ATOM     17  C   UNL     1     -12.876   8.542 -33.696  0.00  0.00    +0.000 C 
BRANCH  16  18
ATOM     18  O   UNL     1     -11.437   9.236 -35.206  0.00  0.00    +0.000 OA
BRANCH  18  19
ATOM     19  C   UNL     1     -12.022   8.231 -36.040  0.00  0.00    +0.000 C 
BRANCH  19  21
ATOM     20 CL   UNL     1      -8.378   3.469 -36.690  0.00  0.00    +0.000 Cl
ATOM     21  C   UNL     1     -11.074   7.079 -36.270  0.00  0.00    +0.000 A 
ATOM     22  C   UNL     1     -11.562   5.880 -36.816  0.00  0.00    +0.000 A 
ATOM     23  C   UNL     1      -9.733   7.140 -35.864  0.00  0.00    +0.000 A 
ATOM     24  C   UNL     1     -10.727   4.770 -36.957  0.00  0.00    +0.000 A 
ATOM     25  C   UNL     1      -8.896   6.029 -36.006  0.00  0.00    +0.000 A 
ATOM     26  C   UNL     1      -9.399   4.847 -36.546  0.00  0.00    +0.000 A 
ENDBRANCH  19  21
ENDBRANCH  18  19
ENDBRANCH  16  18
ENDBRANCH   5  17
TORSDOF 5
ENDMDL
MODEL 4
REMARK VINA RESULT:      -5.6     20.250     23.610
REMARK  Name = 6066662
REMARK  6 active torsions:
REMARK  status: ('A' for Active; 'I' for Inactive)
REMARK    1  A    between atoms: O_3  and  N_6
REMARK    2  A    between atoms: O_3  and  C_21
REMARK    3  A    between atoms: C_7  and  C_9
REMARK    4  A    between atoms: C_8  and  C_14
REMARK    5  A    between atoms: C_15  and  C_19
REMARK    6  A    between atoms: C_20  and  C_21
REMARK                            x       y       z     vdW  Elec       q    Type
REMARK                         _______ _______ _______ _____ _____    ______ ____
ROOT
ATOM      1  S   UNL     1      -5.389   4.459 -61.137  0.00  0.00    +0.000 S 
ATOM      2  N   UNL     1      -4.280   5.650 -59.148  0.00  0.00    +0.000 N 
ATOM      3  N   UNL     1      -5.102   3.694 -58.453  0.00  0.00    +0.000 NA
ATOM      4  C   UNL     1      -4.515   4.378 -57.395  0.00  0.00    +0.000 A 
ATOM      5  C   UNL     1      -3.956   5.589 -57.814  0.00  0.00    +0.000 A 
ATOM      6  C   UNL     1      -4.942   4.502 -59.460  0.00  0.00    +0.000 A 
ATOM      7  C   UNL     1      -4.093   6.519 -60.203  0.00  0.00    +0.000 A 
ATOM      8  C   UNL     1      -4.626   6.043 -61.341  0.00  0.00    +0.000 A 
ENDROOT
BRANCH   4   9
ATOM      9  C   UNL     1      -4.574   3.848 -56.038  0.00  0.00    +0.000 A 
ATOM     10  C   UNL     1      -4.205   2.517 -55.809  0.00  0.00    +0.000 A 
ATOM     11  C   UNL     1      -5.069   4.599 -54.964  0.00  0.00    +0.000 A 
ATOM     12  C   UNL     1      -4.804   2.706 -53.465  0.00  0.00    +0.000 A 
ATOM     13  C   UNL     1      -4.321   1.949 -54.537  0.00  0.00    +0.000 A 
ATOM     14  C   UNL     1      -5.174   4.036 -53.688  0.00  0.00    +0.000 A 
ATOM     15  C   UNL     1      -5.009   2.086 -52.116  0.00  0.00    +0.000 C 
ENDBRANCH   4   9
BRANCH   5  17
ATOM     16  N   UNL     1      -1.938   6.457 -56.934  0.00  0.00    +0.000 NA
ATOM     17  C   UNL     1      -3.217   6.571 -57.082  0.00  0.00    +0.000 C 
BRANCH  16  18
ATOM     18  O   UNL     1      -1.455   7.579 -56.239  0.00  0.00    +0.000 OA
BRANCH  18  19
ATOM     19  C   UNL     1      -0.061   7.722 -56.527  0.00  0.00    +0.000 C 
BRANCH  19  21
ATOM     20 CL   UNL     1       2.912   8.429 -51.327  0.00  0.00    +0.000 Cl
ATOM     21  C   UNL     1       0.748   7.932 -55.270  0.00  0.00    +0.000 A 
ATOM     22  C   UNL     1       1.317   6.824 -54.620  0.00  0.00    +0.000 A 
ATOM     23  C   UNL     1       0.870   9.198 -54.678  0.00  0.00    +0.000 A 
ATOM     24  C   UNL     1       1.995   6.979 -53.409  0.00  0.00    +0.000 A 
ATOM     25  C   UNL     1       1.550   9.353 -53.467  0.00  0.00    +0.000 A 
ATOM     26  C   UNL     1       2.104   8.242 -52.835  0.00  0.00    +0.000 A 
ENDBRANCH  19  21
ENDBRANCH  18  19
ENDBRANCH  16  18
ENDBRANCH   5  17
TORSDOF 5
ENDMDL
MODEL 5
REMARK VINA RESULT:      -5.5     15.781     17.908
REMARK  Name = 6066662
REMARK  6 active torsions:
REMARK  status: ('A' for Active; 'I' for Inactive)
REMARK    1  A    between atoms: O_3  and  N_6
REMARK    2  A    between atoms: O_3  and  C_21
REMARK    3  A    between atoms: C_7  and  C_9
REMARK    4  A    between atoms: C_8  and  C_14
REMARK    5  A    between atoms: C_15  and  C_19
REMARK    6  A    between atoms: C_20  and  C_21
REMARK                            x       y       z     vdW  Elec       q    Type
REMARK                         _______ _______ _______ _____ _____    ______ ____
ROOT
ATOM      1  S   UNL     1     -20.213  15.039 -43.171  0.00  0.00    +0.000 S 
ATOM      2  N   UNL     1     -19.157  15.409 -45.485  0.00  0.00    +0.000 N 
ATOM      3  N   UNL     1     -17.546  15.453 -43.940  0.00  0.00    +0.000 NA
ATOM      4  C   UNL     1     -17.014  15.676 -45.204  0.00  0.00    +0.000 A 
ATOM      5  C   UNL     1     -17.998  15.612 -46.195  0.00  0.00    +0.000 A 
ATOM      6  C   UNL     1     -18.820  15.316 -44.169  0.00  0.00    +0.000 A 
ATOM      7  C   UNL     1     -20.503  15.259 -45.752  0.00  0.00    +0.000 A 
ATOM      8  C   UNL     1     -21.214  15.056 -44.630  0.00  0.00    +0.000 A 
ENDROOT
BRANCH   4   9
ATOM      9  C   UNL     1     -15.600  15.987 -45.375  0.00  0.00    +0.000 A 
ATOM     10  C   UNL     1     -15.206  17.326 -45.489  0.00  0.00    +0.000 A 
ATOM     11  C   UNL     1     -14.626  14.990 -45.514  0.00  0.00    +0.000 A 
ATOM     12  C   UNL     1     -12.900  16.663 -45.857  0.00  0.00    +0.000 A 
ATOM     13  C   UNL     1     -13.870  17.663 -45.731  0.00  0.00    +0.000 A 
ATOM     14  C   UNL     1     -13.288  15.325 -45.743  0.00  0.00    +0.000 A 
ATOM     15  C   UNL     1     -11.481  17.007 -46.196  0.00  0.00    +0.000 C 
ENDBRANCH   4   9
BRANCH   5  17
ATOM     16  N   UNL     1     -17.622  16.863 -48.167  0.00  0.00    +0.000 NA
ATOM     17  C   UNL     1     -17.891  15.725 -47.616  0.00  0.00    +0.000 C 
BRANCH  16  18
ATOM     18  O   UNL     1     -17.507  16.683 -49.557  0.00  0.00    +0.000 OA
BRANCH  18  19
ATOM     19  C   UNL     1     -16.783  15.473 -49.796  0.00  0.00    +0.000 C 
BRANCH  19  21
ATOM     20 CL   UNL     1     -11.153  16.903 -51.416  0.00  0.00    +0.000 Cl
ATOM     21  C   UNL     1     -15.363  15.749 -50.226  0.00  0.00    +0.000 A 
ATOM     22  C   UNL     1     -14.369  15.936 -49.251  0.00  0.00    +0.000 A 
ATOM     23  C   UNL     1     -15.025  15.919 -51.577  0.00  0.00    +0.000 A 
ATOM     24  C   UNL     1     -13.066  16.281 -49.619  0.00  0.00    +0.000 A 
ATOM     25  C   UNL     1     -13.721  16.262 -51.946  0.00  0.00    +0.000 A 
ATOM     26  C   UNL     1     -12.749  16.447 -50.964  0.00  0.00    +0.000 A 
ENDBRANCH  19  21
ENDBRANCH  18  19
ENDBRANCH  16  18
ENDBRANCH   5  17
TORSDOF 5
ENDMDL
MODEL 6
REMARK VINA RESULT:      -5.4     15.581     17.726
REMARK  Name = 6066662
REMARK  6 active torsions:
REMARK  status: ('A' for Active; 'I' for Inactive)
REMARK    1  A    between atoms: O_3  and  N_6
REMARK    2  A    between atoms: O_3  and  C_21
REMARK    3  A    between atoms: C_7  and  C_9
REMARK    4  A    between atoms: C_8  and  C_14
REMARK    5  A    between atoms: C_15  and  C_19
REMARK    6  A    between atoms: C_20  and  C_21
REMARK                            x       y       z     vdW  Elec       q    Type
REMARK                         _______ _______ _______ _____ _____    ______ ____
ROOT
ATOM      1  S   UNL     1     -21.762  14.589 -42.840  0.00  0.00    +0.000 S 
ATOM      2  N   UNL     1     -20.511  15.404 -44.932  0.00  0.00    +0.000 N 
ATOM      3  N   UNL     1     -19.037  15.089 -43.285  0.00  0.00    +0.000 NA
ATOM      4  C   UNL     1     -18.398  15.555 -44.428  0.00  0.00    +0.000 A 
ATOM      5  C   UNL     1     -19.295  15.721 -45.487  0.00  0.00    +0.000 A 
ATOM      6  C   UNL     1     -20.287  15.033 -43.642  0.00  0.00    +0.000 A 
ATOM      7  C   UNL     1     -21.830  15.345 -45.334  0.00  0.00    +0.000 A 
ATOM      8  C   UNL     1     -22.636  14.932 -44.340  0.00  0.00    +0.000 A 
ENDROOT
BRANCH   4   9
ATOM      9  C   UNL     1     -16.972  15.860 -44.415  0.00  0.00    +0.000 A 
ATOM     10  C   UNL     1     -16.087  15.011 -45.089  0.00  0.00    +0.000 A 
ATOM     11  C   UNL     1     -16.444  16.929 -43.678  0.00  0.00    +0.000 A 
ATOM     12  C   UNL     1     -14.184  16.301 -44.309  0.00  0.00    +0.000 A 
ATOM     13  C   UNL     1     -14.706  15.226 -45.035  0.00  0.00    +0.000 A 
ATOM     14  C   UNL     1     -15.064  17.152 -43.634  0.00  0.00    +0.000 A 
ATOM     15  C   UNL     1     -12.703  16.495 -44.177  0.00  0.00    +0.000 C 
ENDBRANCH   4   9
BRANCH   5  17
ATOM     16  N   UNL     1     -19.316  15.314 -47.818  0.00  0.00    +0.000 NA
ATOM     17  C   UNL     1     -19.067  16.123 -46.841  0.00  0.00    +0.000 C 
BRANCH  16  18
ATOM     18  O   UNL     1     -19.070  15.975 -49.034  0.00  0.00    +0.000 OA
BRANCH  18  19
ATOM     19  C   UNL     1     -18.285  15.115 -49.864  0.00  0.00    +0.000 C 
BRANCH  19  21
ATOM     20 CL   UNL     1     -12.408  16.458 -50.042  0.00  0.00    +0.000 Cl
ATOM     21  C   UNL     1     -16.833  15.529 -49.880  0.00  0.00    +0.000 A 
ATOM     22  C   UNL     1     -16.199  15.782 -51.107  0.00  0.00    +0.000 A 
ATOM     23  C   UNL     1     -16.071  15.578 -48.703  0.00  0.00    +0.000 A 
ATOM     24  C   UNL     1     -14.836  16.081 -51.156  0.00  0.00    +0.000 A 
ATOM     25  C   UNL     1     -14.707  15.879 -48.751  0.00  0.00    +0.000 A 
ATOM     26  C   UNL     1     -14.094  16.122 -49.979  0.00  0.00    +0.000 A 
ENDBRANCH  19  21
ENDBRANCH  18  19
ENDBRANCH  16  18
ENDBRANCH   5  17
TORSDOF 5
ENDMDL
MODEL 7
REMARK VINA RESULT:      -5.3     15.934     18.308
REMARK  Name = 6066662
REMARK  6 active torsions:
REMARK  status: ('A' for Active; 'I' for Inactive)
REMARK    1  A    between atoms: O_3  and  N_6
REMARK    2  A    between atoms: O_3  and  C_21
REMARK    3  A    between atoms: C_7  and  C_9
REMARK    4  A    between atoms: C_8  and  C_14
REMARK    5  A    between atoms: C_15  and  C_19
REMARK    6  A    between atoms: C_20  and  C_21
REMARK                            x       y       z     vdW  Elec       q    Type
REMARK                         _______ _______ _______ _____ _____    ______ ____
ROOT
ATOM      1  S   UNL     1     -20.773  15.554 -50.536  0.00  0.00    +0.000 S 
ATOM      2  N   UNL     1     -19.155  15.435 -48.543  0.00  0.00    +0.000 N 
ATOM      3  N   UNL     1     -18.107  16.388 -50.269  0.00  0.00    +0.000 NA
ATOM      4  C   UNL     1     -17.253  16.284 -49.177  0.00  0.00    +0.000 A 
ATOM      5  C   UNL     1     -17.899  15.727 -48.070  0.00  0.00    +0.000 A 
ATOM      6  C   UNL     1     -19.213  15.857 -49.836  0.00  0.00    +0.000 A 
ATOM      7  C   UNL     1     -20.320  14.875 -48.061  0.00  0.00    +0.000 A 
ATOM      8  C   UNL     1     -21.288  14.856 -48.994  0.00  0.00    +0.000 A 
ENDROOT
BRANCH   4   9
ATOM      9  C   UNL     1     -15.853  16.679 -49.285  0.00  0.00    +0.000 A 
ATOM     10  C   UNL     1     -15.478  17.972 -48.899  0.00  0.00    +0.000 A 
ATOM     11  C   UNL     1     -14.880  15.839 -49.840  0.00  0.00    +0.000 A 
ATOM     12  C   UNL     1     -13.191  17.567 -49.603  0.00  0.00    +0.000 A 
ATOM     13  C   UNL     1     -14.162  18.415 -49.059  0.00  0.00    +0.000 A 
ATOM     14  C   UNL     1     -13.560  16.276 -49.989  0.00  0.00    +0.000 A 
ATOM     15  C   UNL     1     -11.796  18.057 -49.854  0.00  0.00    +0.000 C 
ENDBRANCH   4   9
BRANCH   5  17
ATOM     16  N   UNL     1     -17.083  16.478 -45.979  0.00  0.00    +0.000 NA
ATOM     17  C   UNL     1     -17.423  15.491 -46.742  0.00  0.00    +0.000 C 
BRANCH  16  18
ATOM     18  O   UNL     1     -16.720  15.977 -44.717  0.00  0.00    +0.000 OA
BRANCH  18  19
ATOM     19  C   UNL     1     -15.659  15.035 -44.895  0.00  0.00    +0.000 C 
BRANCH  19  21
ATOM     20 CL   UNL     1     -10.170  17.470 -45.459  0.00  0.00    +0.000 Cl
ATOM     21  C   UNL     1     -14.322  15.721 -45.039  0.00  0.00    +0.000 A 
ATOM     22  C   UNL     1     -13.635  15.648 -46.262  0.00  0.00    +0.000 A 
ATOM     23  C   UNL     1     -13.702  16.354 -43.951  0.00  0.00    +0.000 A 
ATOM     24  C   UNL     1     -12.358  16.199 -46.394  0.00  0.00    +0.000 A 
ATOM     25  C   UNL     1     -12.425  16.907 -44.085  0.00  0.00    +0.000 A 
ATOM     26  C   UNL     1     -11.756  16.820 -45.304  0.00  0.00    +0.000 A 
ENDBRANCH  19  21
ENDBRANCH  18  19
ENDBRANCH  16  18
ENDBRANCH   5  17
TORSDOF 5
ENDMDL
MODEL 8
REMARK VINA RESULT:      -5.1     14.814     16.643
REMARK  Name = 6066662
REMARK  6 active torsions:
REMARK  status: ('A' for Active; 'I' for Inactive)
REMARK    1  A    between atoms: O_3  and  N_6
REMARK    2  A    between atoms: O_3  and  C_21
REMARK    3  A    between atoms: C_7  and  C_9
REMARK    4  A    between atoms: C_8  and  C_14
REMARK    5  A    between atoms: C_15  and  C_19
REMARK    6  A    between atoms: C_20  and  C_21
REMARK                            x       y       z     vdW  Elec       q    Type
REMARK                         _______ _______ _______ _____ _____    ______ ____
ROOT
ATOM      1  S   UNL     1     -10.224  22.306 -44.099  0.00  0.00    +0.000 S 
ATOM      2  N   UNL     1     -10.752  19.839 -44.590  0.00  0.00    +0.000 N 
ATOM      3  N   UNL     1      -8.589  20.026 -44.071  0.00  0.00    +0.000 NA
ATOM      4  C   UNL     1      -8.906  18.706 -44.368  0.00  0.00    +0.000 A 
ATOM      5  C   UNL     1     -10.266  18.556 -44.656  0.00  0.00    +0.000 A 
ATOM      6  C   UNL     1      -9.719  20.650 -44.233  0.00  0.00    +0.000 A 
ATOM      7  C   UNL     1     -11.963  20.479 -44.760  0.00  0.00    +0.000 A 
ATOM      8  C   UNL     1     -11.862  21.802 -44.540  0.00  0.00    +0.000 A 
ENDROOT
BRANCH   4   9
ATOM      9  C   UNL     1      -7.871  17.679 -44.406  0.00  0.00    +0.000 A 
ATOM     10  C   UNL     1      -7.316  17.316 -45.639  0.00  0.00    +0.000 A 
ATOM     11  C   UNL     1      -7.468  16.981 -43.260  0.00  0.00    +0.000 A 
ATOM     12  C   UNL     1      -5.970  15.597 -44.579  0.00  0.00    +0.000 A 
ATOM     13  C   UNL     1      -6.378  16.284 -45.728  0.00  0.00    +0.000 A 
ATOM     14  C   UNL     1      -6.521  15.956 -43.345  0.00  0.00    +0.000 A 
ATOM     15  C   UNL     1      -5.026  14.436 -44.671  0.00  0.00    +0.000 C 
ENDBRANCH   4   9
BRANCH   5  17
ATOM     16  N   UNL     1     -11.557  16.682 -44.009  0.00  0.00    +0.000 NA
ATOM     17  C   UNL     1     -11.025  17.382 -44.957  0.00  0.00    +0.000 C 
BRANCH  16  18
ATOM     18  O   UNL     1     -12.298  15.630 -44.576  0.00  0.00    +0.000 OA
BRANCH  18  19
ATOM     19  C   UNL     1     -13.687  15.889 -44.356  0.00  0.00    +0.000 C 
BRANCH  19  21
ATOM     20 CL   UNL     1     -17.004  15.244 -49.352  0.00  0.00    +0.000 Cl
ATOM     21  C   UNL     1     -14.504  15.643 -45.602  0.00  0.00    +0.000 A 
ATOM     22  C   UNL     1     -13.974  15.990 -46.856  0.00  0.00    +0.000 A 
ATOM     23  C   UNL     1     -15.820  15.162 -45.534  0.00  0.00    +0.000 A 
ATOM     24  C   UNL     1     -14.742  15.856 -48.015  0.00  0.00    +0.000 A 
ATOM     25  C   UNL     1     -16.588  15.026 -46.694  0.00  0.00    +0.000 A 
ATOM     26  C   UNL     1     -16.047  15.380 -47.929  0.00  0.00    +0.000 A 
ENDBRANCH  19  21
ENDBRANCH  18  19
ENDBRANCH  16  18
ENDBRANCH   5  17
TORSDOF 5
ENDMDL
MODEL 9
REMARK VINA RESULT:      -5.1      3.421      7.540
REMARK  Name = 6066662
REMARK  6 active torsions:
REMARK  status: ('A' for Active; 'I' for Inactive)
REMARK    1  A    between atoms: O_3  and  N_6
REMARK    2  A    between atoms: O_3  and  C_21
REMARK    3  A    between atoms: C_7  and  C_9
REMARK    4  A    between atoms: C_8  and  C_14
REMARK    5  A    between atoms: C_15  and  C_19
REMARK    6  A    between atoms: C_20  and  C_21
REMARK                            x       y       z     vdW  Elec       q    Type
REMARK                         _______ _______ _______ _____ _____    ______ ____
ROOT
ATOM      1  S   UNL     1     -13.342   1.481 -32.881  0.00  0.00    +0.000 S 
ATOM      2  N   UNL     1     -12.271   3.753 -33.426  0.00  0.00    +0.000 N 
ATOM      3  N   UNL     1     -14.376   4.087 -32.762  0.00  0.00    +0.000 NA
ATOM      4  C   UNL     1     -13.772   5.295 -33.090  0.00  0.00    +0.000 A 
ATOM      5  C   UNL     1     -12.439   5.116 -33.470  0.00  0.00    +0.000 A 
ATOM      6  C   UNL     1     -13.442   3.211 -32.994  0.00  0.00    +0.000 A 
ATOM      7  C   UNL     1     -11.264   2.843 -33.672  0.00  0.00    +0.000 A 
ATOM      8  C   UNL     1     -11.664   1.581 -33.435  0.00  0.00    +0.000 A 
ENDROOT
BRANCH   4   9
ATOM      9  C   UNL     1     -14.531   6.540 -33.066  0.00  0.00    +0.000 A 
ATOM     10  C   UNL     1     -15.267   6.910 -34.198  0.00  0.00    +0.000 A 
ATOM     11  C   UNL     1     -14.484   7.424 -31.981  0.00  0.00    +0.000 A 
ATOM     12  C   UNL     1     -15.905   9.006 -33.153  0.00  0.00    +0.000 A 
ATOM     13  C   UNL     1     -15.945   8.132 -34.245  0.00  0.00    +0.000 A 
ATOM     14  C   UNL     1     -15.171   8.641 -32.021  0.00  0.00    +0.000 A 
ATOM     15  C   UNL     1     -16.560  10.353 -33.221  0.00  0.00    +0.000 C 
ENDBRANCH   4   9
BRANCH   5  17
ATOM     16  N   UNL     1     -10.424   6.289 -33.062  0.00  0.00    +0.000 NA
ATOM     17  C   UNL     1     -11.442   6.076 -33.830  0.00  0.00    +0.000 C 
BRANCH  16  18
ATOM     18  O   UNL     1      -9.572   7.221 -33.677  0.00  0.00    +0.000 OA
BRANCH  18  19
ATOM     19  C   UNL     1      -9.606   6.999 -35.090  0.00  0.00    +0.000 C 
BRANCH  19  21
ATOM     20 CL   UNL     1      -4.456   4.905 -37.428  0.00  0.00    +0.000 Cl
ATOM     21  C   UNL     1      -8.276   6.510 -35.609  0.00  0.00    +0.000 A 
ATOM     22  C   UNL     1      -7.695   7.137 -36.723  0.00  0.00    +0.000 A 
ATOM     23  C   UNL     1      -7.646   5.381 -35.064  0.00  0.00    +0.000 A 
ATOM     24  C   UNL     1      -6.509   6.649 -37.278  0.00  0.00    +0.000 A 
ATOM     25  C   UNL     1      -6.459   4.893 -35.618  0.00  0.00    +0.000 A 
ATOM     26  C   UNL     1      -5.899   5.525 -36.726  0.00  0.00    +0.000 A 
ENDBRANCH  19  21
ENDBRANCH  18  19
ENDBRANCH  16  18
ENDBRANCH   5  17
TORSDOF 5
ENDMDL
MODEL 10
REMARK VINA RESULT:      -5.1     12.574     14.121
REMARK  Name = 6066662
REMARK  6 active torsions:
REMARK  status: ('A' for Active; 'I' for Inactive)
REMARK    1  A    between atoms: O_3  and  N_6
REMARK    2  A    between atoms: O_3  and  C_21
REMARK    3  A    between atoms: C_7  and  C_9
REMARK    4  A    between atoms: C_8  and  C_14
REMARK    5  A    between atoms: C_15  and  C_19
REMARK    6  A    between atoms: C_20  and  C_21
REMARK                            x       y       z     vdW  Elec       q    Type
REMARK                         _______ _______ _______ _____ _____    ______ ____
ROOT
ATOM      1  S   UNL     1       2.372  12.902 -40.179  0.00  0.00    +0.000 S 
ATOM      2  N   UNL     1      -0.037  12.314 -40.855  0.00  0.00    +0.000 N 
ATOM      3  N   UNL     1       1.180  10.443 -40.811  0.00  0.00    +0.000 NA
ATOM      4  C   UNL     1      -0.126  10.166 -41.198  0.00  0.00    +0.000 A 
ATOM      5  C   UNL     1      -0.919  11.317 -41.193  0.00  0.00    +0.000 A 
ATOM      6  C   UNL     1       1.174  11.732 -40.635  0.00  0.00    +0.000 A 
ATOM      7  C   UNL     1      -0.067  13.681 -40.667  0.00  0.00    +0.000 A 
ATOM      8  C   UNL     1       1.135  14.162 -40.306  0.00  0.00    +0.000 A 
ENDROOT
BRANCH   4   9
ATOM      9  C   UNL     1      -0.517   8.819 -41.598  0.00  0.00    +0.000 A 
ATOM     10  C   UNL     1      -1.550   8.175 -40.906  0.00  0.00    +0.000 A 
ATOM     11  C   UNL     1       0.162   8.109 -42.597  0.00  0.00    +0.000 A 
ATOM     12  C   UNL     1      -1.230   6.156 -42.215  0.00  0.00    +0.000 A 
ATOM     13  C   UNL     1      -1.902   6.856 -41.207  0.00  0.00    +0.000 A 
ATOM     14  C   UNL     1      -0.197   6.794 -42.908  0.00  0.00    +0.000 A 
ATOM     15  C   UNL     1      -1.543   4.716 -42.492  0.00  0.00    +0.000 C 
ENDBRANCH   4   9
BRANCH   5  17
ATOM     16  N   UNL     1      -2.713  12.344 -42.344  0.00  0.00    +0.000 NA
ATOM     17  C   UNL     1      -2.313  11.483 -41.466  0.00  0.00    +0.000 C 
BRANCH  16  18
ATOM     18  O   UNL     1      -4.111  12.258 -42.465  0.00  0.00    +0.000 OA
BRANCH  18  19
ATOM     19  C   UNL     1      -4.449  12.351 -43.852  0.00  0.00    +0.000 C 
BRANCH  19  21
ATOM     20 CL   UNL     1      -6.739  17.737 -45.305  0.00  0.00    +0.000 Cl
ATOM     21  C   UNL     1      -4.943  13.731 -44.213  0.00  0.00    +0.000 A 
ATOM     22  C   UNL     1      -5.627  14.495 -43.253  0.00  0.00    +0.000 A 
ATOM     23  C   UNL     1      -4.820  14.236 -45.516  0.00  0.00    +0.000 A 
ATOM     24  C   UNL     1      -6.171  15.737 -43.587  0.00  0.00    +0.000 A 
ATOM     25  C   UNL     1      -5.363  15.480 -45.850  0.00  0.00    +0.000 A 
ATOM     26  C   UNL     1      -6.042  16.222 -44.885  0.00  0.00    +0.000 A 
ENDBRANCH  19  21
ENDBRANCH  18  19
ENDBRANCH  16  18
ENDBRANCH   5  17
TORSDOF 5
ENDMDL
