MODEL 1
REMARK VINA RESULT:      -6.2      0.000      0.000
REMARK  Name = 6267892
REMARK  6 active torsions:
REMARK  status: ('A' for Active; 'I' for Inactive)
REMARK    1  A    between atoms: O_3  and  N_8
REMARK    2  A    between atoms: O_3  and  C_22
REMARK    3  A    between atoms: N_9  and  C_26
REMARK    4  A    between atoms: C_10  and  C_15
REMARK    5  A    between atoms: C_11  and  C_13
REMARK    6  A    between atoms: C_19  and  C_22
REMARK                            x       y       z     vdW  Elec       q    Type
REMARK                         _______ _______ _______ _____ _____    ______ ____
ROOT
ATOM      1  S   UNL     1     -14.591   7.623 -35.480  0.00  0.00    +0.000 S 
ATOM      2  N   UNL     1     -12.898   6.069 -34.328  0.00  0.00    +0.000 N 
ATOM      3  N   UNL     1     -11.941   6.968 -36.136  0.00  0.00    +0.000 NA
ATOM      4  C   UNL     1     -11.616   5.581 -34.320  0.00  0.00    +0.000 A 
ATOM      5  C   UNL     1     -11.054   6.127 -35.481  0.00  0.00    +0.000 A 
ATOM      6  C   UNL     1     -13.019   6.887 -35.412  0.00  0.00    +0.000 A 
ATOM      7  C   UNL     1     -14.020   5.992 -33.528  0.00  0.00    +0.000 A 
ATOM      8  C   UNL     1     -15.019   6.762 -33.994  0.00  0.00    +0.000 A 
ENDROOT
BRANCH   5  10
ATOM      9 CL   UNL     1      -5.515   5.218 -37.556  0.00  0.00    +0.000 Cl
ATOM     10  C   UNL     1      -9.709   5.893 -35.991  0.00  0.00    +0.000 A 
ATOM     11  C   UNL     1      -8.750   6.918 -35.925  0.00  0.00    +0.000 A 
ATOM     12  C   UNL     1      -9.349   4.675 -36.584  0.00  0.00    +0.000 A 
ATOM     13  C   UNL     1      -7.453   6.711 -36.410  0.00  0.00    +0.000 A 
ATOM     14  C   UNL     1      -8.051   4.462 -37.054  0.00  0.00    +0.000 A 
ATOM     15  C   UNL     1      -7.108   5.480 -36.964  0.00  0.00    +0.000 A 
ENDBRANCH   5  10
BRANCH   4  17
ATOM     16  N   UNL     1     -11.026   3.472 -33.359  0.00  0.00    +0.000 NA
ATOM     17  C   UNL     1     -11.027   4.767 -33.298  0.00  0.00    +0.000 C 
BRANCH  16  18
ATOM     18  O   UNL     1     -10.392   2.974 -32.201  0.00  0.00    +0.000 OA
BRANCH  18  19
ATOM     19  C   UNL     1      -9.770   1.722 -32.501  0.00  0.00    +0.000 C 
BRANCH  19  20
ATOM     20  C   UNL     1      -8.270   1.834 -32.343  0.00  0.00    +0.000 A 
ATOM     21  C   UNL     1      -7.505   2.597 -33.245  0.00  0.00    +0.000 A 
ATOM     22  C   UNL     1      -7.619   1.195 -31.276  0.00  0.00    +0.000 A 
ATOM     23  C   UNL     1      -5.491   2.081 -32.007  0.00  0.00    +0.000 A 
ATOM     24  C   UNL     1      -6.121   2.723 -33.080  0.00  0.00    +0.000 A 
ATOM     25  C   UNL     1      -6.236   1.316 -31.102  0.00  0.00    +0.000 A 
BRANCH  23  28
ATOM     26  O   UNL     1      -3.639   2.852 -30.837  0.00  0.00    +0.000 OA
ATOM     27  O   UNL     1      -3.297   1.672 -32.659  0.00  0.00    +0.000 OA
ATOM     28  N   UNL     1      -4.040   2.211 -31.822  0.00  0.00    +0.000 N 
ENDBRANCH  23  28
ENDBRANCH  19  20
ENDBRANCH  18  19
ENDBRANCH  16  18
ENDBRANCH   4  17
TORSDOF 6
ENDMDL
MODEL 2
REMARK VINA RESULT:      -5.7      4.271      7.872
REMARK  Name = 6267892
REMARK  6 active torsions:
REMARK  status: ('A' for Active; 'I' for Inactive)
REMARK    1  A    between atoms: O_3  and  N_8
REMARK    2  A    between atoms: O_3  and  C_22
REMARK    3  A    between atoms: N_9  and  C_26
REMARK    4  A    between atoms: C_10  and  C_15
REMARK    5  A    between atoms: C_11  and  C_13
REMARK    6  A    between atoms: C_19  and  C_22
REMARK                            x       y       z     vdW  Elec       q    Type
REMARK                         _______ _______ _______ _____ _____    ______ ____
ROOT
ATOM      1  S   UNL     1      -6.381  -2.154 -33.024  0.00  0.00    +0.000 S 
ATOM      2  N   UNL     1      -6.801  -0.239 -34.687  0.00  0.00    +0.000 N 
ATOM      3  N   UNL     1      -8.394  -0.199 -33.120  0.00  0.00    +0.000 NA
ATOM      4  C   UNL     1      -7.572   0.850 -35.005  0.00  0.00    +0.000 A 
ATOM      5  C   UNL     1      -8.581   0.827 -34.033  0.00  0.00    +0.000 A 
ATOM      6  C   UNL     1      -7.329  -0.802 -33.563  0.00  0.00    +0.000 A 
ATOM      7  C   UNL     1      -5.652  -0.843 -35.156  0.00  0.00    +0.000 A 
ATOM      8  C   UNL     1      -5.284  -1.881 -34.386  0.00  0.00    +0.000 A 
ENDROOT
BRANCH   5  10
ATOM      9 CL   UNL     1     -13.185   4.624 -33.588  0.00  0.00    +0.000 Cl
ATOM     10  C   UNL     1      -9.711   1.741 -33.930  0.00  0.00    +0.000 A 
ATOM     11  C   UNL     1      -9.530   3.011 -33.357  0.00  0.00    +0.000 A 
ATOM     12  C   UNL     1     -10.995   1.376 -34.357  0.00  0.00    +0.000 A 
ATOM     13  C   UNL     1     -10.604   3.903 -33.249  0.00  0.00    +0.000 A 
ATOM     14  C   UNL     1     -12.064   2.270 -34.264  0.00  0.00    +0.000 A 
ATOM     15  C   UNL     1     -11.864   3.531 -33.712  0.00  0.00    +0.000 A 
ENDBRANCH   5  10
BRANCH   4  17
ATOM     16  N   UNL     1      -6.633   2.878 -35.853  0.00  0.00    +0.000 NA
ATOM     17  C   UNL     1      -7.313   1.793 -36.053  0.00  0.00    +0.000 C 
BRANCH  16  18
ATOM     18  O   UNL     1      -6.574   3.594 -37.068  0.00  0.00    +0.000 OA
BRANCH  18  19
ATOM     19  C   UNL     1      -7.840   3.514 -37.729  0.00  0.00    +0.000 C 
BRANCH  19  20
ATOM     20  C   UNL     1      -8.812   4.496 -37.113  0.00  0.00    +0.000 A 
ATOM     21  C   UNL     1      -8.349   5.619 -36.403  0.00  0.00    +0.000 A 
ATOM     22  C   UNL     1     -10.196   4.313 -37.263  0.00  0.00    +0.000 A 
ATOM     23  C   UNL     1     -10.627   6.344 -36.023  0.00  0.00    +0.000 A 
ATOM     24  C   UNL     1      -9.250   6.542 -35.860  0.00  0.00    +0.000 A 
ATOM     25  C   UNL     1     -11.104   5.231 -36.724  0.00  0.00    +0.000 A 
BRANCH  23  28
ATOM     26  O   UNL     1     -12.769   7.214 -35.804  0.00  0.00    +0.000 OA
ATOM     27  O   UNL     1     -11.143   8.165 -34.674  0.00  0.00    +0.000 OA
ATOM     28  N   UNL     1     -11.579   7.309 -35.461  0.00  0.00    +0.000 N 
ENDBRANCH  23  28
ENDBRANCH  19  20
ENDBRANCH  18  19
ENDBRANCH  16  18
ENDBRANCH   4  17
TORSDOF 6
ENDMDL
MODEL 3
REMARK VINA RESULT:      -5.6     20.687     23.063
REMARK  Name = 6267892
REMARK  6 active torsions:
REMARK  status: ('A' for Active; 'I' for Inactive)
REMARK    1  A    between atoms: O_3  and  N_8
REMARK    2  A    between atoms: O_3  and  C_22
REMARK    3  A    between atoms: N_9  and  C_26
REMARK    4  A    between atoms: C_10  and  C_15
REMARK    5  A    between atoms: C_11  and  C_13
REMARK    6  A    between atoms: C_19  and  C_22
REMARK                            x       y       z     vdW  Elec       q    Type
REMARK                         _______ _______ _______ _____ _____    ______ ____
ROOT
ATOM      1  S   UNL     1      -0.486   7.353 -58.065  0.00  0.00    +0.000 S 
ATOM      2  N   UNL     1      -2.475   6.212 -56.905  0.00  0.00    +0.000 N 
ATOM      3  N   UNL     1      -2.548   5.747 -59.090  0.00  0.00    +0.000 NA
ATOM      4  C   UNL     1      -3.559   5.383 -57.047  0.00  0.00    +0.000 A 
ATOM      5  C   UNL     1      -3.603   5.141 -58.426  0.00  0.00    +0.000 A 
ATOM      6  C   UNL     1      -1.918   6.374 -58.139  0.00  0.00    +0.000 A 
ATOM      7  C   UNL     1      -1.806   6.843 -55.876  0.00  0.00    +0.000 A 
ATOM      8  C   UNL     1      -0.718   7.497 -56.316  0.00  0.00    +0.000 A 
ENDROOT
BRANCH   5  10
ATOM      9 CL   UNL     1      -7.661   1.853 -61.347  0.00  0.00    +0.000 Cl
ATOM     10  C   UNL     1      -4.599   4.352 -59.141  0.00  0.00    +0.000 A 
ATOM     11  C   UNL     1      -4.394   2.975 -59.328  0.00  0.00    +0.000 A 
ATOM     12  C   UNL     1      -5.750   4.938 -59.683  0.00  0.00    +0.000 A 
ATOM     13  C   UNL     1      -5.339   2.201 -60.011  0.00  0.00    +0.000 A 
ATOM     14  C   UNL     1      -6.702   4.164 -60.352  0.00  0.00    +0.000 A 
ATOM     15  C   UNL     1      -6.493   2.798 -60.512  0.00  0.00    +0.000 A 
ENDBRANCH   5  10
BRANCH   4  17
ATOM     16  N   UNL     1      -4.321   3.620 -55.624  0.00  0.00    +0.000 NA
ATOM     17  C   UNL     1      -4.371   4.863 -55.987  0.00  0.00    +0.000 C 
BRANCH  16  18
ATOM     18  O   UNL     1      -5.248   3.426 -54.577  0.00  0.00    +0.000 OA
BRANCH  18  19
ATOM     19  C   UNL     1      -4.578   2.862 -53.447  0.00  0.00    +0.000 C 
BRANCH  19  20
ATOM     20  C   UNL     1      -5.364   1.689 -52.907  0.00  0.00    +0.000 A 
ATOM     21  C   UNL     1      -6.229   0.955 -53.741  0.00  0.00    +0.000 A 
ATOM     22  C   UNL     1      -5.225   1.297 -51.566  0.00  0.00    +0.000 A 
ATOM     23  C   UNL     1      -6.778  -0.525 -51.907  0.00  0.00    +0.000 A 
ATOM     24  C   UNL     1      -6.933  -0.149 -53.247  0.00  0.00    +0.000 A 
ATOM     25  C   UNL     1      -5.924   0.195 -51.063  0.00  0.00    +0.000 A 
BRANCH  23  28
ATOM     26  O   UNL     1      -7.957  -1.608 -50.225  0.00  0.00    +0.000 OA
ATOM     27  O   UNL     1      -7.637  -2.675 -52.118  0.00  0.00    +0.000 OA
ATOM     28  N   UNL     1      -7.508  -1.684 -51.380  0.00  0.00    +0.000 N 
ENDBRANCH  23  28
ENDBRANCH  19  20
ENDBRANCH  18  19
ENDBRANCH  16  18
ENDBRANCH   4  17
TORSDOF 6
ENDMDL
MODEL 4
REMARK VINA RESULT:      -5.5      4.283      5.687
REMARK  Name = 6267892
REMARK  6 active torsions:
REMARK  status: ('A' for Active; 'I' for Inactive)
REMARK    1  A    between atoms: O_3  and  N_8
REMARK    2  A    between atoms: O_3  and  C_22
REMARK    3  A    between atoms: N_9  and  C_26
REMARK    4  A    between atoms: C_10  and  C_15
REMARK    5  A    between atoms: C_11  and  C_13
REMARK    6  A    between atoms: C_19  and  C_22
REMARK                            x       y       z     vdW  Elec       q    Type
REMARK                         _______ _______ _______ _____ _____    ______ ____
ROOT
ATOM      1  S   UNL     1     -17.069   9.717 -33.039  0.00  0.00    +0.000 S 
ATOM      2  N   UNL     1     -15.073   8.478 -34.081  0.00  0.00    +0.000 N 
ATOM      3  N   UNL     1     -14.359   9.641 -32.311  0.00  0.00    +0.000 NA
ATOM      4  C   UNL     1     -13.737   8.180 -33.986  0.00  0.00    +0.000 A 
ATOM      5  C   UNL     1     -13.310   8.950 -32.896  0.00  0.00    +0.000 A 
ATOM      6  C   UNL     1     -15.376   9.329 -33.060  0.00  0.00    +0.000 A 
ATOM      7  C   UNL     1     -16.143   8.109 -34.870  0.00  0.00    +0.000 A 
ATOM      8  C   UNL     1     -17.288   8.676 -34.454  0.00  0.00    +0.000 A 
ENDROOT
BRANCH   5  10
ATOM      9 CL   UNL     1      -7.711   9.405 -30.831  0.00  0.00    +0.000 Cl
ATOM     10  C   UNL     1     -11.950   9.053 -32.382  0.00  0.00    +0.000 A 
ATOM     11  C   UNL     1     -10.967   9.714 -33.138  0.00  0.00    +0.000 A 
ATOM     12  C   UNL     1     -11.580   8.475 -31.160  0.00  0.00    +0.000 A 
ATOM     13  C   UNL     1      -9.655   9.823 -32.660  0.00  0.00    +0.000 A 
ATOM     14  C   UNL     1     -10.275   8.596 -30.675  0.00  0.00    +0.000 A 
ATOM     15  C   UNL     1      -9.319   9.271 -31.426  0.00  0.00    +0.000 A 
ENDBRANCH   5  10
BRANCH   4  17
ATOM     16  N   UNL     1     -12.346   7.596 -35.840  0.00  0.00    +0.000 NA
ATOM     17  C   UNL     1     -13.021   7.237 -34.794  0.00  0.00    +0.000 C 
BRANCH  16  18
ATOM     18  O   UNL     1     -11.779   6.441 -36.420  0.00  0.00    +0.000 OA
BRANCH  18  19
ATOM     19  C   UNL     1     -10.911   5.812 -35.474  0.00  0.00    +0.000 C 
BRANCH  19  20
ATOM     20  C   UNL     1      -9.501   5.756 -36.017  0.00  0.00    +0.000 A 
ATOM     21  C   UNL     1      -9.000   4.581 -36.606  0.00  0.00    +0.000 A 
ATOM     22  C   UNL     1      -8.674   6.890 -35.963  0.00  0.00    +0.000 A 
ATOM     23  C   UNL     1      -6.897   5.683 -37.074  0.00  0.00    +0.000 A 
ATOM     24  C   UNL     1      -7.705   4.540 -37.134  0.00  0.00    +0.000 A 
ATOM     25  C   UNL     1      -7.379   6.860 -36.490  0.00  0.00    +0.000 A 
BRANCH  23  28
ATOM     26  O   UNL     1      -5.123   6.678 -38.193  0.00  0.00    +0.000 OA
ATOM     27  O   UNL     1      -4.883   4.605 -37.505  0.00  0.00    +0.000 OA
ATOM     28  N   UNL     1      -5.539   5.653 -37.630  0.00  0.00    +0.000 N 
ENDBRANCH  23  28
ENDBRANCH  19  20
ENDBRANCH  18  19
ENDBRANCH  16  18
ENDBRANCH   4  17
TORSDOF 6
ENDMDL
MODEL 5
REMARK VINA RESULT:      -5.1     22.809     25.573
REMARK  Name = 6267892
REMARK  6 active torsions:
REMARK  status: ('A' for Active; 'I' for Inactive)
REMARK    1  A    between atoms: O_3  and  N_8
REMARK    2  A    between atoms: O_3  and  C_22
REMARK    3  A    between atoms: N_9  and  C_26
REMARK    4  A    between atoms: C_10  and  C_15
REMARK    5  A    between atoms: C_11  and  C_13
REMARK    6  A    between atoms: C_19  and  C_22
REMARK                            x       y       z     vdW  Elec       q    Type
REMARK                         _______ _______ _______ _____ _____    ______ ____
ROOT
ATOM      1  S   UNL     1     -24.725   1.855 -59.866  0.00  0.00    +0.000 S 
ATOM      2  N   UNL     1     -24.582   3.350 -57.781  0.00  0.00    +0.000 N 
ATOM      3  N   UNL     1     -22.757   3.673 -59.030  0.00  0.00    +0.000 NA
ATOM      4  C   UNL     1     -23.873   4.318 -57.115  0.00  0.00    +0.000 A 
ATOM      5  C   UNL     1     -22.720   4.471 -57.896  0.00  0.00    +0.000 A 
ATOM      6  C   UNL     1     -23.879   3.026 -58.903  0.00  0.00    +0.000 A 
ATOM      7  C   UNL     1     -25.790   2.699 -57.641  0.00  0.00    +0.000 A 
ATOM      8  C   UNL     1     -26.028   1.864 -58.667  0.00  0.00    +0.000 A 
ENDROOT
BRANCH   5  10
ATOM      9 CL   UNL     1     -18.095   8.106 -56.798  0.00  0.00    +0.000 Cl
ATOM     10  C   UNL     1     -21.589   5.347 -57.619  0.00  0.00    +0.000 A 
ATOM     11  C   UNL     1     -21.349   6.458 -58.444  0.00  0.00    +0.000 A 
ATOM     12  C   UNL     1     -20.704   5.093 -56.562  0.00  0.00    +0.000 A 
ATOM     13  C   UNL     1     -20.268   7.312 -58.192  0.00  0.00    +0.000 A 
ATOM     14  C   UNL     1     -19.633   5.952 -56.301  0.00  0.00    +0.000 A 
ATOM     15  C   UNL     1     -19.421   7.059 -57.116  0.00  0.00    +0.000 A 
ENDBRANCH   5  10
BRANCH   4  17
ATOM     16  N   UNL     1     -24.366   4.451 -54.779  0.00  0.00    +0.000 NA
ATOM     17  C   UNL     1     -24.298   5.022 -55.941  0.00  0.00    +0.000 C 
BRANCH  16  18
ATOM     18  O   UNL     1     -24.833   5.401 -53.845  0.00  0.00    +0.000 OA
BRANCH  18  19
ATOM     19  C   UNL     1     -23.797   6.348 -53.571  0.00  0.00    +0.000 C 
BRANCH  19  20
ATOM     20  C   UNL     1     -23.793   6.705 -52.102  0.00  0.00    +0.000 A 
ATOM     21  C   UNL     1     -22.718   7.415 -51.536  0.00  0.00    +0.000 A 
ATOM     22  C   UNL     1     -24.878   6.354 -51.283  0.00  0.00    +0.000 A 
ATOM     23  C   UNL     1     -23.822   7.414 -49.382  0.00  0.00    +0.000 A 
ATOM     24  C   UNL     1     -22.730   7.770 -50.182  0.00  0.00    +0.000 A 
ATOM     25  C   UNL     1     -24.899   6.706 -49.929  0.00  0.00    +0.000 A 
BRANCH  23  28
ATOM     26  O   UNL     1     -24.051   8.978 -47.682  0.00  0.00    +0.000 OA
ATOM     27  O   UNL     1     -23.663   6.889 -47.123  0.00  0.00    +0.000 OA
ATOM     28  N   UNL     1     -23.847   7.786 -47.963  0.00  0.00    +0.000 N 
ENDBRANCH  23  28
ENDBRANCH  19  20
ENDBRANCH  18  19
ENDBRANCH  16  18
ENDBRANCH   4  17
TORSDOF 6
ENDMDL
MODEL 6
REMARK VINA RESULT:      -5.1      4.761      7.041
REMARK  Name = 6267892
REMARK  6 active torsions:
REMARK  status: ('A' for Active; 'I' for Inactive)
REMARK    1  A    between atoms: O_3  and  N_8
REMARK    2  A    between atoms: O_3  and  C_22
REMARK    3  A    between atoms: N_9  and  C_26
REMARK    4  A    between atoms: C_10  and  C_15
REMARK    5  A    between atoms: C_11  and  C_13
REMARK    6  A    between atoms: C_19  and  C_22
REMARK                            x       y       z     vdW  Elec       q    Type
REMARK                         _______ _______ _______ _____ _____    ______ ____
ROOT
ATOM      1  S   UNL     1     -12.121  11.365 -32.228  0.00  0.00    +0.000 S 
ATOM      2  N   UNL     1     -12.533   9.090 -33.351  0.00  0.00    +0.000 N 
ATOM      3  N   UNL     1     -14.404   9.734 -32.312  0.00  0.00    +0.000 NA
ATOM      4  C   UNL     1     -13.442   8.103 -33.633  0.00  0.00    +0.000 A 
ATOM      5  C   UNL     1     -14.589   8.511 -32.939  0.00  0.00    +0.000 A 
ATOM      6  C   UNL     1     -13.165  10.024 -32.584  0.00  0.00    +0.000 A 
ATOM      7  C   UNL     1     -11.227   9.392 -33.678  0.00  0.00    +0.000 A 
ATOM      8  C   UNL     1     -10.843  10.573 -33.164  0.00  0.00    +0.000 A 
ENDROOT
BRANCH   5  10
ATOM      9 CL   UNL     1     -19.813   5.610 -32.619  0.00  0.00    +0.000 Cl
ATOM     10  C   UNL     1     -15.856   7.795 -32.852  0.00  0.00    +0.000 A 
ATOM     11  C   UNL     1     -16.989   8.300 -33.511  0.00  0.00    +0.000 A 
ATOM     12  C   UNL     1     -15.988   6.624 -32.093  0.00  0.00    +0.000 A 
ATOM     13  C   UNL     1     -18.214   7.626 -33.439  0.00  0.00    +0.000 A 
ATOM     14  C   UNL     1     -17.206   5.942 -32.032  0.00  0.00    +0.000 A 
ATOM     15  C   UNL     1     -18.313   6.446 -32.707  0.00  0.00    +0.000 A 
ENDBRANCH   5  10
BRANCH   4  17
ATOM     16  N   UNL     1     -12.326   6.086 -34.265  0.00  0.00    +0.000 NA
ATOM     17  C   UNL     1     -13.233   6.981 -34.500  0.00  0.00    +0.000 C 
BRANCH  16  18
ATOM     18  O   UNL     1     -12.363   5.133 -35.306  0.00  0.00    +0.000 OA
BRANCH  18  19
ATOM     19  C   UNL     1     -11.805   5.705 -36.492  0.00  0.00    +0.000 C 
BRANCH  19  20
ATOM     20  C   UNL     1     -10.325   5.404 -36.570  0.00  0.00    +0.000 A 
ATOM     21  C   UNL     1      -9.861   4.216 -37.164  0.00  0.00    +0.000 A 
ATOM     22  C   UNL     1      -9.387   6.321 -36.070  0.00  0.00    +0.000 A 
ATOM     23  C   UNL     1      -7.570   4.882 -36.759  0.00  0.00    +0.000 A 
ATOM     24  C   UNL     1      -8.490   3.953 -37.261  0.00  0.00    +0.000 A 
ATOM     25  C   UNL     1      -8.015   6.068 -36.164  0.00  0.00    +0.000 A 
BRANCH  23  28
ATOM     26  O   UNL     1      -5.712   3.524 -36.450  0.00  0.00    +0.000 OA
ATOM     27  O   UNL     1      -5.410   5.503 -37.353  0.00  0.00    +0.000 OA
ATOM     28  N   UNL     1      -6.130   4.618 -36.861  0.00  0.00    +0.000 N 
ENDBRANCH  23  28
ENDBRANCH  19  20
ENDBRANCH  18  19
ENDBRANCH  16  18
ENDBRANCH   4  17
TORSDOF 6
ENDMDL
MODEL 7
REMARK VINA RESULT:      -5.0     25.348     27.638
REMARK  Name = 6267892
REMARK  6 active torsions:
REMARK  status: ('A' for Active; 'I' for Inactive)
REMARK    1  A    between atoms: O_3  and  N_8
REMARK    2  A    between atoms: O_3  and  C_22
REMARK    3  A    between atoms: N_9  and  C_26
REMARK    4  A    between atoms: C_10  and  C_15
REMARK    5  A    between atoms: C_11  and  C_13
REMARK    6  A    between atoms: C_19  and  C_22
REMARK                            x       y       z     vdW  Elec       q    Type
REMARK                         _______ _______ _______ _____ _____    ______ ____
ROOT
ATOM      1  S   UNL     1     -18.822  12.324 -60.330  0.00  0.00    +0.000 S 
ATOM      2  N   UNL     1     -16.379  12.248 -61.124  0.00  0.00    +0.000 N 
ATOM      3  N   UNL     1     -16.416  12.190 -58.891  0.00  0.00    +0.000 NA
ATOM      4  C   UNL     1     -15.061  12.137 -60.759  0.00  0.00    +0.000 A 
ATOM      5  C   UNL     1     -15.112  12.142 -59.359  0.00  0.00    +0.000 A 
ATOM      6  C   UNL     1     -17.122  12.260 -59.982  0.00  0.00    +0.000 A 
ATOM      7  C   UNL     1     -17.109  12.290 -62.295  0.00  0.00    +0.000 A 
ATOM      8  C   UNL     1     -18.431  12.330 -62.057  0.00  0.00    +0.000 A 
ENDROOT
BRANCH   5  10
ATOM      9 CL   UNL     1     -10.449  11.895 -55.615  0.00  0.00    +0.000 Cl
ATOM     10  C   UNL     1     -13.976  12.096 -58.446  0.00  0.00    +0.000 A 
ATOM     11  C   UNL     1     -13.491  10.856 -57.999  0.00  0.00    +0.000 A 
ATOM     12  C   UNL     1     -13.369  13.266 -57.968  0.00  0.00    +0.000 A 
ATOM     13  C   UNL     1     -12.401  10.792 -57.123  0.00  0.00    +0.000 A 
ATOM     14  C   UNL     1     -12.272  13.203 -57.105  0.00  0.00    +0.000 A 
ATOM     15  C   UNL     1     -11.792  11.966 -56.687  0.00  0.00    +0.000 A 
ENDBRANCH   5  10
BRANCH   4  17
ATOM     16  N   UNL     1     -13.381  12.989 -62.231  0.00  0.00    +0.000 NA
ATOM     17  C   UNL     1     -13.947  11.980 -61.647  0.00  0.00    +0.000 C 
BRANCH  16  18
ATOM     18  O   UNL     1     -12.337  12.502 -63.046  0.00  0.00    +0.000 OA
BRANCH  18  19
ATOM     19  C   UNL     1     -11.528  11.596 -62.291  0.00  0.00    +0.000 C 
BRANCH  19  20
ATOM     20  C   UNL     1     -10.546  12.364 -61.436  0.00  0.00    +0.000 A 
ATOM     21  C   UNL     1     -10.284  11.973 -60.110  0.00  0.00    +0.000 A 
ATOM     22  C   UNL     1      -9.859  13.470 -61.962  0.00  0.00    +0.000 A 
ATOM     23  C   UNL     1      -8.675  13.765 -59.874  0.00  0.00    +0.000 A 
ATOM     24  C   UNL     1      -9.353  12.667 -59.329  0.00  0.00    +0.000 A 
ATOM     25  C   UNL     1      -8.925  14.169 -61.190  0.00  0.00    +0.000 A 
BRANCH  23  28
ATOM     26  O   UNL     1      -7.578  15.717 -59.261  0.00  0.00    +0.000 OA
ATOM     27  O   UNL     1      -7.033  13.855 -58.231  0.00  0.00    +0.000 OA
ATOM     28  N   UNL     1      -7.693  14.497 -59.065  0.00  0.00    +0.000 N 
ENDBRANCH  23  28
ENDBRANCH  19  20
ENDBRANCH  18  19
ENDBRANCH  16  18
ENDBRANCH   4  17
TORSDOF 6
ENDMDL
MODEL 8
REMARK VINA RESULT:      -4.9     14.901     16.583
REMARK  Name = 6267892
REMARK  6 active torsions:
REMARK  status: ('A' for Active; 'I' for Inactive)
REMARK    1  A    between atoms: O_3  and  N_8
REMARK    2  A    between atoms: O_3  and  C_22
REMARK    3  A    between atoms: N_9  and  C_26
REMARK    4  A    between atoms: C_10  and  C_15
REMARK    5  A    between atoms: C_11  and  C_13
REMARK    6  A    between atoms: C_19  and  C_22
REMARK                            x       y       z     vdW  Elec       q    Type
REMARK                         _______ _______ _______ _____ _____    ______ ____
ROOT
ATOM      1  S   UNL     1     -10.981  -9.764 -48.439  0.00  0.00    +0.000 S 
ATOM      2  N   UNL     1     -11.823  -8.444 -46.401  0.00  0.00    +0.000 N 
ATOM      3  N   UNL     1      -9.809  -7.670 -46.983  0.00  0.00    +0.000 NA
ATOM      4  C   UNL     1     -11.583  -7.414 -45.527  0.00  0.00    +0.000 A 
ATOM      5  C   UNL     1     -10.302  -6.976 -45.889  0.00  0.00    +0.000 A 
ATOM      6  C   UNL     1     -10.750  -8.533 -47.237  0.00  0.00    +0.000 A 
ATOM      7  C   UNL     1     -12.847  -9.328 -46.672  0.00  0.00    +0.000 A 
ATOM      8  C   UNL     1     -12.567 -10.107 -47.730  0.00  0.00    +0.000 A 
ENDROOT
BRANCH   5  10
ATOM      9 CL   UNL     1      -7.119  -2.618 -43.301  0.00  0.00    +0.000 Cl
ATOM     10  C   UNL     1      -9.529  -5.921 -45.246  0.00  0.00    +0.000 A 
ATOM     11  C   UNL     1      -8.877  -4.956 -46.032  0.00  0.00    +0.000 A 
ATOM     12  C   UNL     1      -9.385  -5.858 -43.853  0.00  0.00    +0.000 A 
ATOM     13  C   UNL     1      -8.130  -3.935 -45.433  0.00  0.00    +0.000 A 
ATOM     14  C   UNL     1      -8.653  -4.831 -43.252  0.00  0.00    +0.000 A 
ATOM     15  C   UNL     1      -8.030  -3.873 -44.045  0.00  0.00    +0.000 A 
ENDBRANCH   5  10
BRANCH   4  17
ATOM     16  N   UNL     1     -13.360  -5.979 -44.822  0.00  0.00    +0.000 NA
ATOM     17  C   UNL     1     -12.496  -6.904 -44.547  0.00  0.00    +0.000 C 
BRANCH  16  18
ATOM     18  O   UNL     1     -14.088  -5.689 -43.648  0.00  0.00    +0.000 OA
BRANCH  18  19
ATOM     19  C   UNL     1     -15.308  -6.435 -43.650  0.00  0.00    +0.000 C 
BRANCH  19  20
ATOM     20  C   UNL     1     -15.437  -7.225 -42.367  0.00  0.00    +0.000 A 
ATOM     21  C   UNL     1     -14.330  -7.407 -41.517  0.00  0.00    +0.000 A 
ATOM     22  C   UNL     1     -16.675  -7.771 -41.991  0.00  0.00    +0.000 A 
ATOM     23  C   UNL     1     -15.703  -8.648 -39.957  0.00  0.00    +0.000 A 
ATOM     24  C   UNL     1     -14.459  -8.114 -40.316  0.00  0.00    +0.000 A 
ATOM     25  C   UNL     1     -16.814  -8.478 -40.792  0.00  0.00    +0.000 A 
BRANCH  23  28
ATOM     26  O   UNL     1     -16.726 -10.264 -38.640  0.00  0.00    +0.000 OA
ATOM     27  O   UNL     1     -15.089  -9.093 -37.760  0.00  0.00    +0.000 OA
ATOM     28  N   UNL     1     -15.850  -9.386 -38.697  0.00  0.00    +0.000 N 
ENDBRANCH  23  28
ENDBRANCH  19  20
ENDBRANCH  18  19
ENDBRANCH  16  18
ENDBRANCH   4  17
TORSDOF 6
ENDMDL
MODEL 9
REMARK VINA RESULT:      -4.8     17.201     19.305
REMARK  Name = 6267892
REMARK  6 active torsions:
REMARK  status: ('A' for Active; 'I' for Inactive)
REMARK    1  A    between atoms: O_3  and  N_8
REMARK    2  A    between atoms: O_3  and  C_22
REMARK    3  A    between atoms: N_9  and  C_26
REMARK    4  A    between atoms: C_10  and  C_15
REMARK    5  A    between atoms: C_11  and  C_13
REMARK    6  A    between atoms: C_19  and  C_22
REMARK                            x       y       z     vdW  Elec       q    Type
REMARK                         _______ _______ _______ _____ _____    ______ ____
ROOT
ATOM      1  S   UNL     1     -14.783  20.952 -40.753  0.00  0.00    +0.000 S 
ATOM      2  N   UNL     1     -14.192  18.902 -42.187  0.00  0.00    +0.000 N 
ATOM      3  N   UNL     1     -16.386  19.296 -42.356  0.00  0.00    +0.000 NA
ATOM      4  C   UNL     1     -14.647  17.954 -43.068  0.00  0.00    +0.000 A 
ATOM      5  C   UNL     1     -16.025  18.199 -43.124  0.00  0.00    +0.000 A 
ATOM      6  C   UNL     1     -15.260  19.666 -41.818  0.00  0.00    +0.000 A 
ATOM      7  C   UNL     1     -12.982  19.296 -41.652  0.00  0.00    +0.000 A 
ATOM      8  C   UNL     1     -13.112  20.377 -40.865  0.00  0.00    +0.000 A 
ENDROOT
BRANCH   5  10
ATOM      9 CL   UNL     1     -20.084  15.050 -46.194  0.00  0.00    +0.000 Cl
ATOM     10  C   UNL     1     -17.014  17.443 -43.882  0.00  0.00    +0.000 A 
ATOM     11  C   UNL     1     -17.370  16.149 -43.466  0.00  0.00    +0.000 A 
ATOM     12  C   UNL     1     -17.602  17.958 -45.045  0.00  0.00    +0.000 A 
ATOM     13  C   UNL     1     -18.318  15.407 -44.180  0.00  0.00    +0.000 A 
ATOM     14  C   UNL     1     -18.560  17.225 -45.751  0.00  0.00    +0.000 A 
ATOM     15  C   UNL     1     -18.915  15.953 -45.314  0.00  0.00    +0.000 A 
ENDBRANCH   5  10
BRANCH   4  17
ATOM     16  N   UNL     1     -13.241  17.316 -44.894  0.00  0.00    +0.000 NA
ATOM     17  C   UNL     1     -13.842  17.011 -43.786  0.00  0.00    +0.000 C 
BRANCH  16  18
ATOM     18  O   UNL     1     -12.553  16.173 -45.354  0.00  0.00    +0.000 OA
BRANCH  18  19
ATOM     19  C   UNL     1     -13.489  15.118 -45.592  0.00  0.00    +0.000 C 
BRANCH  19  20
ATOM     20  C   UNL     1     -14.277  15.395 -46.853  0.00  0.00    +0.000 A 
ATOM     21  C   UNL     1     -13.644  15.912 -47.998  0.00  0.00    +0.000 A 
ATOM     22  C   UNL     1     -15.651  15.115 -46.907  0.00  0.00    +0.000 A 
ATOM     23  C   UNL     1     -15.739  15.851 -49.209  0.00  0.00    +0.000 A 
ATOM     24  C   UNL     1     -14.369  16.139 -49.174  0.00  0.00    +0.000 A 
ATOM     25  C   UNL     1     -16.384  15.337 -48.078  0.00  0.00    +0.000 A 
BRANCH  23  28
ATOM     26  O   UNL     1     -16.660  15.122 -51.212  0.00  0.00    +0.000 OA
ATOM     27  O   UNL     1     -16.961  17.220 -50.636  0.00  0.00    +0.000 OA
ATOM     28  N   UNL     1     -16.507  16.081 -50.439  0.00  0.00    +0.000 N 
ENDBRANCH  23  28
ENDBRANCH  19  20
ENDBRANCH  18  19
ENDBRANCH  16  18
ENDBRANCH   4  17
TORSDOF 6
ENDMDL
MODEL 10
REMARK VINA RESULT:      -4.8     22.181     24.503
REMARK  Name = 6267892
REMARK  6 active torsions:
REMARK  status: ('A' for Active; 'I' for Inactive)
REMARK    1  A    between atoms: O_3  and  N_8
REMARK    2  A    between atoms: O_3  and  C_22
REMARK    3  A    between atoms: N_9  and  C_26
REMARK    4  A    between atoms: C_10  and  C_15
REMARK    5  A    between atoms: C_11  and  C_13
REMARK    6  A    between atoms: C_19  and  C_22
REMARK                            x       y       z     vdW  Elec       q    Type
REMARK                         _______ _______ _______ _____ _____    ______ ____
ROOT
ATOM      1  S   UNL     1      -2.695   7.972 -60.934  0.00  0.00    +0.000 S 
ATOM      2  N   UNL     1      -3.923   6.354 -59.360  0.00  0.00    +0.000 N 
ATOM      3  N   UNL     1      -4.201   5.664 -61.468  0.00  0.00    +0.000 NA
ATOM      4  C   UNL     1      -4.652   5.196 -59.252  0.00  0.00    +0.000 A 
ATOM      5  C   UNL     1      -4.844   4.809 -60.585  0.00  0.00    +0.000 A 
ATOM      6  C   UNL     1      -3.680   6.564 -60.685  0.00  0.00    +0.000 A 
ATOM      7  C   UNL     1      -3.353   7.278 -58.509  0.00  0.00    +0.000 A 
ATOM      8  C   UNL     1      -2.658   8.212 -59.180  0.00  0.00    +0.000 A 
ENDROOT
BRANCH   5  10
ATOM      9 CL   UNL     1      -7.919   0.054 -62.520  0.00  0.00    +0.000 Cl
ATOM     10  C   UNL     1      -5.605   3.659 -61.057  0.00  0.00    +0.000 A 
ATOM     11  C   UNL     1      -4.945   2.448 -61.321  0.00  0.00    +0.000 A 
ATOM     12  C   UNL     1      -6.984   3.736 -61.292  0.00  0.00    +0.000 A 
ATOM     13  C   UNL     1      -5.659   1.332 -61.775  0.00  0.00    +0.000 A 
ATOM     14  C   UNL     1      -7.701   2.620 -61.730  0.00  0.00    +0.000 A 
ATOM     15  C   UNL     1      -7.035   1.422 -61.968  0.00  0.00    +0.000 A 
ENDBRANCH   5  10
BRANCH   4  17
ATOM     16  N   UNL     1      -4.161   4.063 -57.205  0.00  0.00    +0.000 NA
ATOM     17  C   UNL     1      -5.033   4.546 -58.033  0.00  0.00    +0.000 C 
BRANCH  16  18
ATOM     18  O   UNL     1      -4.854   3.478 -56.123  0.00  0.00    +0.000 OA
BRANCH  18  19
ATOM     19  C   UNL     1      -3.957   2.653 -55.375  0.00  0.00    +0.000 C 
BRANCH  19  20
ATOM     20  C   UNL     1      -4.733   1.747 -54.447  0.00  0.00    +0.000 A 
ATOM     21  C   UNL     1      -4.907   2.081 -53.091  0.00  0.00    +0.000 A 
ATOM     22  C   UNL     1      -5.316   0.565 -54.932  0.00  0.00    +0.000 A 
ATOM     23  C   UNL     1      -6.227   0.083 -52.744  0.00  0.00    +0.000 A 
ATOM     24  C   UNL     1      -5.651   1.256 -52.241  0.00  0.00    +0.000 A 
ATOM     25  C   UNL     1      -6.062  -0.266 -54.090  0.00  0.00    +0.000 A 
BRANCH  23  28
ATOM     26  O   UNL     1      -6.532  -1.074 -50.754  0.00  0.00    +0.000 OA
ATOM     27  O   UNL     1      -8.117  -1.186 -52.271  0.00  0.00    +0.000 OA
ATOM     28  N   UNL     1      -7.014  -0.787 -51.862  0.00  0.00    +0.000 N 
ENDBRANCH  23  28
ENDBRANCH  19  20
ENDBRANCH  18  19
ENDBRANCH  16  18
ENDBRANCH   4  17
TORSDOF 6
ENDMDL
