MODEL 1
REMARK VINA RESULT:      -6.0      0.000      0.000
REMARK  Name = 6267892
REMARK  6 active torsions:
REMARK  status: ('A' for Active; 'I' for Inactive)
REMARK    1  A    between atoms: O_3  and  N_8
REMARK    2  A    between atoms: O_3  and  C_22
REMARK    3  A    between atoms: N_9  and  C_26
REMARK    4  A    between atoms: C_10  and  C_15
REMARK    5  A    between atoms: C_11  and  C_13
REMARK    6  A    between atoms: C_19  and  C_22
REMARK                            x       y       z     vdW  Elec       q    Type
REMARK                         _______ _______ _______ _____ _____    ______ ____
ROOT
ATOM      1  S   UNL     1      14.664  14.606  26.321  0.00  0.00    +0.000 S 
ATOM      2  N   UNL     1      12.411  14.530  25.087  0.00  0.00    +0.000 N 
ATOM      3  N   UNL     1      13.574  12.689  24.585  0.00  0.00    +0.000 NA
ATOM      4  C   UNL     1      11.578  13.806  24.273  0.00  0.00    +0.000 A 
ATOM      5  C   UNL     1      12.345  12.681  23.943  0.00  0.00    +0.000 A 
ATOM      6  C   UNL     1      13.560  13.813  25.241  0.00  0.00    +0.000 A 
ATOM      7  C   UNL     1      12.361  15.711  25.800  0.00  0.00    +0.000 A 
ATOM      8  C   UNL     1      13.481  15.909  26.517  0.00  0.00    +0.000 A 
ENDROOT
BRANCH   5  10
ATOM      9 CL   UNL     1      10.795   8.241  20.241  0.00  0.00    +0.000 Cl
ATOM     10  C   UNL     1      11.959  11.594  23.052  0.00  0.00    +0.000 A 
ATOM     11  C   UNL     1      12.418  11.585  21.724  0.00  0.00    +0.000 A 
ATOM     12  C   UNL     1      11.105  10.565  23.473  0.00  0.00    +0.000 A 
ATOM     13  C   UNL     1      12.058  10.550  20.853  0.00  0.00    +0.000 A 
ATOM     14  C   UNL     1      10.758   9.523  22.610  0.00  0.00    +0.000 A 
ATOM     15  C   UNL     1      11.237   9.519  21.304  0.00  0.00    +0.000 A 
ENDBRANCH   5  10
BRANCH   4  17
ATOM     16  N   UNL     1       9.934  14.955  22.971  0.00  0.00    +0.000 NA
ATOM     17  C   UNL     1      10.225  14.139  23.935  0.00  0.00    +0.000 C 
BRANCH  16  18
ATOM     18  O   UNL     1       8.530  15.084  22.909  0.00  0.00    +0.000 OA
BRANCH  18  19
ATOM     19  C   UNL     1       8.177  16.469  22.961  0.00  0.00    +0.000 C 
BRANCH  19  20
ATOM     20  C   UNL     1       6.734  16.624  23.385  0.00  0.00    +0.000 A 
ATOM     21  C   UNL     1       5.763  15.682  22.995  0.00  0.00    +0.000 A 
ATOM     22  C   UNL     1       6.343  17.700  24.198  0.00  0.00    +0.000 A 
ATOM     23  C   UNL     1       4.065  16.890  24.225  0.00  0.00    +0.000 A 
ATOM     24  C   UNL     1       4.434  15.811  23.412  0.00  0.00    +0.000 A 
ATOM     25  C   UNL     1       5.017  17.836  24.621  0.00  0.00    +0.000 A 
BRANCH  23  28
ATOM     26  O   UNL     1       2.448  17.795  25.624  0.00  0.00    +0.000 OA
ATOM     27  O   UNL     1       1.802  16.379  24.074  0.00  0.00    +0.000 OA
ATOM     28  N   UNL     1       2.674  17.031  24.673  0.00  0.00    +0.000 N 
ENDBRANCH  23  28
ENDBRANCH  19  20
ENDBRANCH  18  19
ENDBRANCH  16  18
ENDBRANCH   4  17
TORSDOF 6
ENDMDL
MODEL 2
REMARK VINA RESULT:      -5.9     20.078     22.991
REMARK  Name = 6267892
REMARK  6 active torsions:
REMARK  status: ('A' for Active; 'I' for Inactive)
REMARK    1  A    between atoms: O_3  and  N_8
REMARK    2  A    between atoms: O_3  and  C_22
REMARK    3  A    between atoms: N_9  and  C_26
REMARK    4  A    between atoms: C_10  and  C_15
REMARK    5  A    between atoms: C_11  and  C_13
REMARK    6  A    between atoms: C_19  and  C_22
REMARK                            x       y       z     vdW  Elec       q    Type
REMARK                         _______ _______ _______ _____ _____    ______ ____
ROOT
ATOM      1  S   UNL     1      -9.172  15.819  16.853  0.00  0.00    +0.000 S 
ATOM      2  N   UNL     1      -9.448  13.333  17.442  0.00  0.00    +0.000 N 
ATOM      3  N   UNL     1     -11.280  14.436  18.088  0.00  0.00    +0.000 NA
ATOM      4  C   UNL     1     -10.274  12.363  17.950  0.00  0.00    +0.000 A 
ATOM      5  C   UNL     1     -11.394  13.086  18.382  0.00  0.00    +0.000 A 
ATOM      6  C   UNL     1     -10.103  14.524  17.540  0.00  0.00    +0.000 A 
ATOM      7  C   UNL     1      -8.210  13.397  16.834  0.00  0.00    +0.000 A 
ATOM      8  C   UNL     1      -7.905  14.649  16.454  0.00  0.00    +0.000 A 
ENDROOT
BRANCH   5  10
ATOM      9 CL   UNL     1     -16.194  10.872  21.188  0.00  0.00    +0.000 Cl
ATOM     10  C   UNL     1     -12.571  12.550  19.054  0.00  0.00    +0.000 A 
ATOM     11  C   UNL     1     -12.435  11.924  20.304  0.00  0.00    +0.000 A 
ATOM     12  C   UNL     1     -13.843  12.610  18.468  0.00  0.00    +0.000 A 
ATOM     13  C   UNL     1     -13.555  11.403  20.965  0.00  0.00    +0.000 A 
ATOM     14  C   UNL     1     -14.963  12.104  19.133  0.00  0.00    +0.000 A 
ATOM     15  C   UNL     1     -14.814  11.504  20.379  0.00  0.00    +0.000 A 
ENDBRANCH   5  10
BRANCH   4  17
ATOM     16  N   UNL     1     -10.163  10.229  16.877  0.00  0.00    +0.000 NA
ATOM     17  C   UNL     1     -10.027  10.951  17.945  0.00  0.00    +0.000 C 
BRANCH  16  18
ATOM     18  O   UNL     1      -9.865   8.890  17.207  0.00  0.00    +0.000 OA
BRANCH  18  19
ATOM     19  C   UNL     1     -11.008   8.071  16.944  0.00  0.00    +0.000 C 
BRANCH  19  20
ATOM     20  C   UNL     1     -11.780   7.829  18.221  0.00  0.00    +0.000 A 
ATOM     21  C   UNL     1     -11.154   7.261  19.346  0.00  0.00    +0.000 A 
ATOM     22  C   UNL     1     -13.134   8.191  18.312  0.00  0.00    +0.000 A 
ATOM     23  C   UNL     1     -13.211   7.436  20.608  0.00  0.00    +0.000 A 
ATOM     24  C   UNL     1     -11.863   7.065  20.537  0.00  0.00    +0.000 A 
ATOM     25  C   UNL     1     -13.850   8.001  19.498  0.00  0.00    +0.000 A 
BRANCH  23  28
ATOM     26  O   UNL     1     -14.128   6.075  22.251  0.00  0.00    +0.000 OA
ATOM     27  O   UNL     1     -14.389   8.248  22.441  0.00  0.00    +0.000 OA
ATOM     28  N   UNL     1     -13.962   7.240  21.854  0.00  0.00    +0.000 N 
ENDBRANCH  23  28
ENDBRANCH  19  20
ENDBRANCH  18  19
ENDBRANCH  16  18
ENDBRANCH   4  17
TORSDOF 6
ENDMDL
MODEL 3
REMARK VINA RESULT:      -5.9     22.734     25.612
REMARK  Name = 6267892
REMARK  6 active torsions:
REMARK  status: ('A' for Active; 'I' for Inactive)
REMARK    1  A    between atoms: O_3  and  N_8
REMARK    2  A    between atoms: O_3  and  C_22
REMARK    3  A    between atoms: N_9  and  C_26
REMARK    4  A    between atoms: C_10  and  C_15
REMARK    5  A    between atoms: C_11  and  C_13
REMARK    6  A    between atoms: C_19  and  C_22
REMARK                            x       y       z     vdW  Elec       q    Type
REMARK                         _______ _______ _______ _____ _____    ______ ____
ROOT
ATOM      1  S   UNL     1     -15.783   3.310  24.578  0.00  0.00    +0.000 S 
ATOM      2  N   UNL     1     -16.233   4.779  22.518  0.00  0.00    +0.000 N 
ATOM      3  N   UNL     1     -14.140   5.133  23.216  0.00  0.00    +0.000 NA
ATOM      4  C   UNL     1     -15.713   5.671  21.614  0.00  0.00    +0.000 A 
ATOM      5  C   UNL     1     -14.418   5.904  22.097  0.00  0.00    +0.000 A 
ATOM      6  C   UNL     1     -15.254   4.494  23.423  0.00  0.00    +0.000 A 
ATOM      7  C   UNL     1     -17.413   4.089  22.699  0.00  0.00    +0.000 A 
ATOM      8  C   UNL     1     -17.349   3.257  23.753  0.00  0.00    +0.000 A 
ENDROOT
BRANCH   5  10
ATOM      9 CL   UNL     1     -10.398   9.711  19.826  0.00  0.00    +0.000 Cl
ATOM     10  C   UNL     1     -13.432   6.820  21.539  0.00  0.00    +0.000 A 
ATOM     11  C   UNL     1     -13.653   8.206  21.602  0.00  0.00    +0.000 A 
ATOM     12  C   UNL     1     -12.273   6.354  20.903  0.00  0.00    +0.000 A 
ATOM     13  C   UNL     1     -12.717   9.101  21.072  0.00  0.00    +0.000 A 
ATOM     14  C   UNL     1     -11.330   7.247  20.387  0.00  0.00    +0.000 A 
ATOM     15  C   UNL     1     -11.555   8.617  20.475  0.00  0.00    +0.000 A 
ENDBRANCH   5  10
BRANCH   4  17
ATOM     16  N   UNL     1     -16.849   7.355  20.354  0.00  0.00    +0.000 NA
ATOM     17  C   UNL     1     -16.364   6.157  20.433  0.00  0.00    +0.000 C 
BRANCH  16  18
ATOM     18  O   UNL     1     -17.435   7.514  19.080  0.00  0.00    +0.000 OA
BRANCH  18  19
ATOM     19  C   UNL     1     -16.502   7.109  18.075  0.00  0.00    +0.000 C 
BRANCH  19  20
ATOM     20  C   UNL     1     -15.432   8.163  17.902  0.00  0.00    +0.000 A 
ATOM     21  C   UNL     1     -14.115   7.805  17.558  0.00  0.00    +0.000 A 
ATOM     22  C   UNL     1     -15.743   9.523  18.058  0.00  0.00    +0.000 A 
ATOM     23  C   UNL     1     -13.465  10.135  17.527  0.00  0.00    +0.000 A 
ATOM     24  C   UNL     1     -13.133   8.784  17.369  0.00  0.00    +0.000 A 
ATOM     25  C   UNL     1     -14.769  10.509  17.870  0.00  0.00    +0.000 A 
BRANCH  23  28
ATOM     26  O   UNL     1     -11.405  10.849  16.727  0.00  0.00    +0.000 OA
ATOM     27  O   UNL     1     -12.676  12.309  17.765  0.00  0.00    +0.000 OA
ATOM     28  N   UNL     1     -12.443  11.170  17.326  0.00  0.00    +0.000 N 
ENDBRANCH  23  28
ENDBRANCH  19  20
ENDBRANCH  18  19
ENDBRANCH  16  18
ENDBRANCH   4  17
TORSDOF 6
ENDMDL
MODEL 4
REMARK VINA RESULT:      -5.8      6.546      9.169
REMARK  Name = 6267892
REMARK  6 active torsions:
REMARK  status: ('A' for Active; 'I' for Inactive)
REMARK    1  A    between atoms: O_3  and  N_8
REMARK    2  A    between atoms: O_3  and  C_22
REMARK    3  A    between atoms: N_9  and  C_26
REMARK    4  A    between atoms: C_10  and  C_15
REMARK    5  A    between atoms: C_11  and  C_13
REMARK    6  A    between atoms: C_19  and  C_22
REMARK                            x       y       z     vdW  Elec       q    Type
REMARK                         _______ _______ _______ _____ _____    ______ ____
ROOT
ATOM      1  S   UNL     1       3.630  16.579  14.540  0.00  0.00    +0.000 S 
ATOM      2  N   UNL     1       2.904  15.453  16.734  0.00  0.00    +0.000 N 
ATOM      3  N   UNL     1       4.873  16.460  17.055  0.00  0.00    +0.000 NA
ATOM      4  C   UNL     1       3.189  15.240  18.058  0.00  0.00    +0.000 A 
ATOM      5  C   UNL     1       4.442  15.846  18.221  0.00  0.00    +0.000 A 
ATOM      6  C   UNL     1       3.925  16.186  16.206  0.00  0.00    +0.000 A 
ATOM      7  C   UNL     1       1.872  15.178  15.860  0.00  0.00    +0.000 A 
ATOM      8  C   UNL     1       2.093  15.707  14.644  0.00  0.00    +0.000 A 
ENDROOT
BRANCH   5  10
ATOM      9 CL   UNL     1       7.700  15.999  23.239  0.00  0.00    +0.000 Cl
ATOM     10  C   UNL     1       5.245  15.874  19.437  0.00  0.00    +0.000 A 
ATOM     11  C   UNL     1       4.904  16.755  20.477  0.00  0.00    +0.000 A 
ATOM     12  C   UNL     1       6.380  15.065  19.588  0.00  0.00    +0.000 A 
ATOM     13  C   UNL     1       5.663  16.795  21.653  0.00  0.00    +0.000 A 
ATOM     14  C   UNL     1       7.129  15.093  20.767  0.00  0.00    +0.000 A 
ATOM     15  C   UNL     1       6.767  15.958  21.795  0.00  0.00    +0.000 A 
ENDBRANCH   5  10
BRANCH   4  17
ATOM     16  N   UNL     1       1.463  15.268  19.712  0.00  0.00    +0.000 NA
ATOM     17  C   UNL     1       2.334  14.606  19.018  0.00  0.00    +0.000 C 
BRANCH  16  18
ATOM     18  O   UNL     1       0.800  14.364  20.570  0.00  0.00    +0.000 OA
BRANCH  18  19
ATOM     19  C   UNL     1       0.098  15.095  21.579  0.00  0.00    +0.000 C 
BRANCH  19  20
ATOM     20  C   UNL     1       1.078  15.818  22.476  0.00  0.00    +0.000 A 
ATOM     21  C   UNL     1       2.069  15.109  23.181  0.00  0.00    +0.000 A 
ATOM     22  C   UNL     1       1.029  17.216  22.600  0.00  0.00    +0.000 A 
ATOM     23  C   UNL     1       2.930  17.178  24.095  0.00  0.00    +0.000 A 
ATOM     24  C   UNL     1       2.993  15.783  23.987  0.00  0.00    +0.000 A 
ATOM     25  C   UNL     1       1.950  17.898  23.403  0.00  0.00    +0.000 A 
BRANCH  23  28
ATOM     26  O   UNL     1       5.101  17.624  24.788  0.00  0.00    +0.000 OA
ATOM     27  O   UNL     1       3.460  18.730  25.742  0.00  0.00    +0.000 OA
ATOM     28  N   UNL     1       3.898  17.894  24.934  0.00  0.00    +0.000 N 
ENDBRANCH  23  28
ENDBRANCH  19  20
ENDBRANCH  18  19
ENDBRANCH  16  18
ENDBRANCH   4  17
TORSDOF 6
ENDMDL
MODEL 5
REMARK VINA RESULT:      -5.8      5.742      8.748
REMARK  Name = 6267892
REMARK  6 active torsions:
REMARK  status: ('A' for Active; 'I' for Inactive)
REMARK    1  A    between atoms: O_3  and  N_8
REMARK    2  A    between atoms: O_3  and  C_22
REMARK    3  A    between atoms: N_9  and  C_26
REMARK    4  A    between atoms: C_10  and  C_15
REMARK    5  A    between atoms: C_11  and  C_13
REMARK    6  A    between atoms: C_19  and  C_22
REMARK                            x       y       z     vdW  Elec       q    Type
REMARK                         _______ _______ _______ _____ _____    ______ ____
ROOT
ATOM      1  S   UNL     1      10.440  15.319  24.320  0.00  0.00    +0.000 S 
ATOM      2  N   UNL     1      12.389  14.109  23.162  0.00  0.00    +0.000 N 
ATOM      3  N   UNL     1      10.657  12.706  23.317  0.00  0.00    +0.000 NA
ATOM      4  C   UNL     1      12.816  12.962  22.542  0.00  0.00    +0.000 A 
ATOM      5  C   UNL     1      11.728  12.091  22.688  0.00  0.00    +0.000 A 
ATOM      6  C   UNL     1      11.110  13.897  23.582  0.00  0.00    +0.000 A 
ATOM      7  C   UNL     1      12.880  15.376  23.404  0.00  0.00    +0.000 A 
ATOM      8  C   UNL     1      11.971  16.155  24.014  0.00  0.00    +0.000 A 
ENDROOT
BRANCH   5  10
ATOM      9 CL   UNL     1      11.409   6.378  20.935  0.00  0.00    +0.000 Cl
ATOM     10  C   UNL     1      11.659  10.703  22.251  0.00  0.00    +0.000 A 
ATOM     11  C   UNL     1      10.968   9.760  23.030  0.00  0.00    +0.000 A 
ATOM     12  C   UNL     1      12.298  10.268  21.081  0.00  0.00    +0.000 A 
ATOM     13  C   UNL     1      10.891   8.422  22.625  0.00  0.00    +0.000 A 
ATOM     14  C   UNL     1      12.209   8.936  20.668  0.00  0.00    +0.000 A 
ATOM     15  C   UNL     1      11.504   8.019  21.441  0.00  0.00    +0.000 A 
ENDBRANCH   5  10
BRANCH   4  17
ATOM     16  N   UNL     1      14.339  13.398  20.751  0.00  0.00    +0.000 NA
ATOM     17  C   UNL     1      14.063  12.783  21.858  0.00  0.00    +0.000 C 
BRANCH  16  18
ATOM     18  O   UNL     1      15.624  12.995  20.329  0.00  0.00    +0.000 OA
BRANCH  18  19
ATOM     19  C   UNL     1      15.733  13.161  18.913  0.00  0.00    +0.000 C 
BRANCH  19  20
ATOM     20  C   UNL     1      15.222  11.928  18.202  0.00  0.00    +0.000 A 
ATOM     21  C   UNL     1      15.221  10.675  18.843  0.00  0.00    +0.000 A 
ATOM     22  C   UNL     1      14.714  12.020  16.896  0.00  0.00    +0.000 A 
ATOM     23  C   UNL     1      14.216   9.653  16.893  0.00  0.00    +0.000 A 
ATOM     24  C   UNL     1      14.720   9.541  18.195  0.00  0.00    +0.000 A 
ATOM     25  C   UNL     1      14.211  10.891  16.241  0.00  0.00    +0.000 A 
BRANCH  23  28
ATOM     26  O   UNL     1      13.554   7.428  16.867  0.00  0.00    +0.000 OA
ATOM     27  O   UNL     1      13.392   8.579  15.004  0.00  0.00    +0.000 OA
ATOM     28  N   UNL     1      13.684   8.471  16.206  0.00  0.00    +0.000 N 
ENDBRANCH  23  28
ENDBRANCH  19  20
ENDBRANCH  18  19
ENDBRANCH  16  18
ENDBRANCH   4  17
TORSDOF 6
ENDMDL
MODEL 6
REMARK VINA RESULT:      -5.5     23.804     27.917
REMARK  Name = 6267892
REMARK  6 active torsions:
REMARK  status: ('A' for Active; 'I' for Inactive)
REMARK    1  A    between atoms: O_3  and  N_8
REMARK    2  A    between atoms: O_3  and  C_22
REMARK    3  A    between atoms: N_9  and  C_26
REMARK    4  A    between atoms: C_10  and  C_15
REMARK    5  A    between atoms: C_11  and  C_13
REMARK    6  A    between atoms: C_19  and  C_22
REMARK                            x       y       z     vdW  Elec       q    Type
REMARK                         _______ _______ _______ _____ _____    ______ ____
ROOT
ATOM      1  S   UNL     1     -21.261   5.767  24.703  0.00  0.00    +0.000 S 
ATOM      2  N   UNL     1     -18.768   5.285  24.303  0.00  0.00    +0.000 N 
ATOM      3  N   UNL     1     -19.395   4.314  26.216  0.00  0.00    +0.000 NA
ATOM      4  C   UNL     1     -17.645   4.633  24.745  0.00  0.00    +0.000 A 
ATOM      5  C   UNL     1     -18.055   4.069  25.960  0.00  0.00    +0.000 A 
ATOM      6  C   UNL     1     -19.762   5.046  25.204  0.00  0.00    +0.000 A 
ATOM      7  C   UNL     1     -19.143   6.033  23.206  0.00  0.00    +0.000 A 
ATOM      8  C   UNL     1     -20.442   6.373  23.254  0.00  0.00    +0.000 A 
ENDROOT
BRANCH   5  10
ATOM      9 CL   UNL     1     -14.659   0.964  29.786  0.00  0.00    +0.000 Cl
ATOM     10  C   UNL     1     -17.231   3.301  26.885  0.00  0.00    +0.000 A 
ATOM     11  C   UNL     1     -16.425   3.970  27.822  0.00  0.00    +0.000 A 
ATOM     12  C   UNL     1     -17.192   1.900  26.846  0.00  0.00    +0.000 A 
ATOM     13  C   UNL     1     -15.628   3.248  28.719  0.00  0.00    +0.000 A 
ATOM     14  C   UNL     1     -16.409   1.179  27.751  0.00  0.00    +0.000 A 
ATOM     15  C   UNL     1     -15.631   1.856  28.684  0.00  0.00    +0.000 A 
ENDBRANCH   5  10
BRANCH   4  17
ATOM     16  N   UNL     1     -16.301   3.969  22.882  0.00  0.00    +0.000 NA
ATOM     17  C   UNL     1     -16.397   4.529  24.047  0.00  0.00    +0.000 C 
BRANCH  16  18
ATOM     18  O   UNL     1     -14.948   4.010  22.481  0.00  0.00    +0.000 OA
BRANCH  18  19
ATOM     19  C   UNL     1     -14.351   5.222  22.948  0.00  0.00    +0.000 C 
BRANCH  19  20
ATOM     20  C   UNL     1     -13.810   6.019  21.783  0.00  0.00    +0.000 A 
ATOM     21  C   UNL     1     -14.676   6.733  20.934  0.00  0.00    +0.000 A 
ATOM     22  C   UNL     1     -12.427   6.080  21.545  0.00  0.00    +0.000 A 
ATOM     23  C   UNL     1     -12.789   7.544  19.654  0.00  0.00    +0.000 A 
ATOM     24  C   UNL     1     -14.171   7.494  19.873  0.00  0.00    +0.000 A 
ATOM     25  C   UNL     1     -11.913   6.839  20.488  0.00  0.00    +0.000 A 
BRANCH  23  28
ATOM     26  O   UNL     1     -11.269   9.069  18.783  0.00  0.00    +0.000 OA
ATOM     27  O   UNL     1     -12.801   8.250  17.439  0.00  0.00    +0.000 OA
ATOM     28  N   UNL     1     -12.249   8.344  18.548  0.00  0.00    +0.000 N 
ENDBRANCH  23  28
ENDBRANCH  19  20
ENDBRANCH  18  19
ENDBRANCH  16  18
ENDBRANCH   4  17
TORSDOF 6
ENDMDL
MODEL 7
REMARK VINA RESULT:      -5.4     22.417     26.393
REMARK  Name = 6267892
REMARK  6 active torsions:
REMARK  status: ('A' for Active; 'I' for Inactive)
REMARK    1  A    between atoms: O_3  and  N_8
REMARK    2  A    between atoms: O_3  and  C_22
REMARK    3  A    between atoms: N_9  and  C_26
REMARK    4  A    between atoms: C_10  and  C_15
REMARK    5  A    between atoms: C_11  and  C_13
REMARK    6  A    between atoms: C_19  and  C_22
REMARK                            x       y       z     vdW  Elec       q    Type
REMARK                         _______ _______ _______ _____ _____    ______ ____
ROOT
ATOM      1  S   UNL     1     -19.136   7.053  33.961  0.00  0.00    +0.000 S 
ATOM      2  N   UNL     1     -16.688   7.054  33.180  0.00  0.00    +0.000 N 
ATOM      3  N   UNL     1     -17.560   5.028  32.822  0.00  0.00    +0.000 NA
ATOM      4  C   UNL     1     -15.679   6.343  32.581  0.00  0.00    +0.000 A 
ATOM      5  C   UNL     1     -16.239   5.071  32.405  0.00  0.00    +0.000 A 
ATOM      6  C   UNL     1     -17.768   6.228  33.279  0.00  0.00    +0.000 A 
ATOM      7  C   UNL     1     -16.895   8.341  33.630  0.00  0.00    +0.000 A 
ATOM      8  C   UNL     1     -18.149   8.518  34.080  0.00  0.00    +0.000 A 
ENDROOT
BRANCH   5  10
ATOM      9 CL   UNL     1     -13.524   0.224  30.179  0.00  0.00    +0.000 Cl
ATOM     10  C   UNL     1     -15.577   3.897  31.850  0.00  0.00    +0.000 A 
ATOM     11  C   UNL     1     -15.231   2.828  32.694  0.00  0.00    +0.000 A 
ATOM     12  C   UNL     1     -15.240   3.816  30.492  0.00  0.00    +0.000 A 
ATOM     13  C   UNL     1     -14.595   1.692  32.179  0.00  0.00    +0.000 A 
ATOM     14  C   UNL     1     -14.619   2.676  29.974  0.00  0.00    +0.000 A 
ATOM     15  C   UNL     1     -14.300   1.619  30.819  0.00  0.00    +0.000 A 
ENDBRANCH   5  10
BRANCH   4  17
ATOM     16  N   UNL     1     -13.443   7.059  33.036  0.00  0.00    +0.000 NA
ATOM     17  C   UNL     1     -14.400   6.857  32.186  0.00  0.00    +0.000 C 
BRANCH  16  18
ATOM     18  O   UNL     1     -12.333   7.582  32.339  0.00  0.00    +0.000 OA
BRANCH  18  19
ATOM     19  C   UNL     1     -12.638   8.904  31.884  0.00  0.00    +0.000 C 
BRANCH  19  20
ATOM     20  C   UNL     1     -11.450   9.815  32.098  0.00  0.00    +0.000 A 
ATOM     21  C   UNL     1     -10.459   9.497  33.045  0.00  0.00    +0.000 A 
ATOM     22  C   UNL     1     -11.305  10.984  31.334  0.00  0.00    +0.000 A 
ATOM     23  C   UNL     1      -9.217  11.486  32.446  0.00  0.00    +0.000 A 
ATOM     24  C   UNL     1      -9.345  10.326  33.220  0.00  0.00    +0.000 A 
ATOM     25  C   UNL     1     -10.195  11.818  31.502  0.00  0.00    +0.000 A 
BRANCH  23  28
ATOM     26  O   UNL     1      -7.269  12.477  31.662  0.00  0.00    +0.000 OA
ATOM     27  O   UNL     1      -7.911  12.934  33.712  0.00  0.00    +0.000 OA
ATOM     28  N   UNL     1      -8.051  12.360  32.619  0.00  0.00    +0.000 N 
ENDBRANCH  23  28
ENDBRANCH  19  20
ENDBRANCH  18  19
ENDBRANCH  16  18
ENDBRANCH   4  17
TORSDOF 6
ENDMDL
MODEL 8
REMARK VINA RESULT:      -5.3     25.869     28.674
REMARK  Name = 6267892
REMARK  6 active torsions:
REMARK  status: ('A' for Active; 'I' for Inactive)
REMARK    1  A    between atoms: O_3  and  N_8
REMARK    2  A    between atoms: O_3  and  C_22
REMARK    3  A    between atoms: N_9  and  C_26
REMARK    4  A    between atoms: C_10  and  C_15
REMARK    5  A    between atoms: C_11  and  C_13
REMARK    6  A    between atoms: C_19  and  C_22
REMARK                            x       y       z     vdW  Elec       q    Type
REMARK                         _______ _______ _______ _____ _____    ______ ____
ROOT
ATOM      1  S   UNL     1       8.322 -15.493  28.339  0.00  0.00    +0.000 S 
ATOM      2  N   UNL     1       6.673 -14.823  30.194  0.00  0.00    +0.000 N 
ATOM      3  N   UNL     1       7.811 -13.011  29.549  0.00  0.00    +0.000 NA
ATOM      4  C   UNL     1       6.147 -13.800  30.941  0.00  0.00    +0.000 A 
ATOM      5  C   UNL     1       6.903 -12.688  30.545  0.00  0.00    +0.000 A 
ATOM      6  C   UNL     1       7.635 -14.291  29.388  0.00  0.00    +0.000 A 
ATOM      7  C   UNL     1       6.447 -16.173  30.018  0.00  0.00    +0.000 A 
ATOM      8  C   UNL     1       7.239 -16.692  29.064  0.00  0.00    +0.000 A 
ENDROOT
BRANCH   5  10
ATOM      9 CL   UNL     1       6.462  -7.139  32.741  0.00  0.00    +0.000 Cl
ATOM     10  C   UNL     1       6.795 -11.332  31.067  0.00  0.00    +0.000 A 
ATOM     11  C   UNL     1       6.645 -11.126  32.448  0.00  0.00    +0.000 A 
ATOM     12  C   UNL     1       6.802 -10.215  30.219  0.00  0.00    +0.000 A 
ATOM     13  C   UNL     1       6.541  -9.830  32.968  0.00  0.00    +0.000 A 
ATOM     14  C   UNL     1       6.713  -8.921  30.737  0.00  0.00    +0.000 A 
ATOM     15  C   UNL     1       6.584  -8.733  32.110  0.00  0.00    +0.000 A 
ENDBRANCH   5  10
BRANCH   4  17
ATOM     16  N   UNL     1       3.817 -13.666  31.463  0.00  0.00    +0.000 NA
ATOM     17  C   UNL     1       5.036 -13.893  31.842  0.00  0.00    +0.000 C 
BRANCH  16  18
ATOM     18  O   UNL     1       2.970 -13.822  32.581  0.00  0.00    +0.000 OA
BRANCH  18  19
ATOM     19  C   UNL     1       3.756 -14.133  33.734  0.00  0.00    +0.000 C 
BRANCH  19  20
ATOM     20  C   UNL     1       3.834 -12.933  34.651  0.00  0.00    +0.000 A 
ATOM     21  C   UNL     1       2.787 -11.994  34.700  0.00  0.00    +0.000 A 
ATOM     22  C   UNL     1       4.946 -12.750  35.488  0.00  0.00    +0.000 A 
ATOM     23  C   UNL     1       3.964 -10.737  36.400  0.00  0.00    +0.000 A 
ATOM     24  C   UNL     1       2.847 -10.900  35.570  0.00  0.00    +0.000 A 
ATOM     25  C   UNL     1       5.015 -11.660  36.363  0.00  0.00    +0.000 A 
BRANCH  23  28
ATOM     26  O   UNL     1       4.339  -8.489  36.847  0.00  0.00    +0.000 OA
ATOM     27  O   UNL     1       3.786  -9.800  38.520  0.00  0.00    +0.000 OA
ATOM     28  N   UNL     1       4.035  -9.596  37.321  0.00  0.00    +0.000 N 
ENDBRANCH  23  28
ENDBRANCH  19  20
ENDBRANCH  18  19
ENDBRANCH  16  18
ENDBRANCH   4  17
TORSDOF 6
ENDMDL
MODEL 9
REMARK VINA RESULT:      -5.3     30.912     33.657
REMARK  Name = 6267892
REMARK  6 active torsions:
REMARK  status: ('A' for Active; 'I' for Inactive)
REMARK    1  A    between atoms: O_3  and  N_8
REMARK    2  A    between atoms: O_3  and  C_22
REMARK    3  A    between atoms: N_9  and  C_26
REMARK    4  A    between atoms: C_10  and  C_15
REMARK    5  A    between atoms: C_11  and  C_13
REMARK    6  A    between atoms: C_19  and  C_22
REMARK                            x       y       z     vdW  Elec       q    Type
REMARK                         _______ _______ _______ _____ _____    ______ ____
ROOT
ATOM      1  S   UNL     1     -14.856  -9.920  17.496  0.00  0.00    +0.000 S 
ATOM      2  N   UNL     1     -12.639 -10.245  18.755  0.00  0.00    +0.000 N 
ATOM      3  N   UNL     1     -14.224 -11.463  19.754  0.00  0.00    +0.000 NA
ATOM      4  C   UNL     1     -11.986 -10.896  19.770  0.00  0.00    +0.000 A 
ATOM      5  C   UNL     1     -13.007 -11.619  20.401  0.00  0.00    +0.000 A 
ATOM      6  C   UNL     1     -13.946 -10.632  18.792  0.00  0.00    +0.000 A 
ATOM      7  C   UNL     1     -12.315  -9.388  17.723  0.00  0.00    +0.000 A 
ATOM      8  C   UNL     1     -13.379  -9.111  16.951  0.00  0.00    +0.000 A 
ENDROOT
BRANCH   5  10
ATOM      9 CL   UNL     1     -12.516 -15.029  25.294  0.00  0.00    +0.000 Cl
ATOM     10  C   UNL     1     -12.877 -12.456  21.586  0.00  0.00    +0.000 A 
ATOM     11  C   UNL     1     -13.628 -12.159  22.736  0.00  0.00    +0.000 A 
ATOM     12  C   UNL     1     -11.990 -13.541  21.627  0.00  0.00    +0.000 A 
ATOM     13  C   UNL     1     -13.516 -12.953  23.884  0.00  0.00    +0.000 A 
ATOM     14  C   UNL     1     -11.889 -14.343  22.766  0.00  0.00    +0.000 A 
ATOM     15  C   UNL     1     -12.654 -14.046  23.890  0.00  0.00    +0.000 A 
ENDBRANCH   5  10
BRANCH   4  17
ATOM     16  N   UNL     1      -9.765 -11.754  19.552  0.00  0.00    +0.000 NA
ATOM     17  C   UNL     1     -10.576 -10.863  20.029  0.00  0.00    +0.000 C 
BRANCH  16  18
ATOM     18  O   UNL     1      -8.462 -11.452  20.001  0.00  0.00    +0.000 OA
BRANCH  18  19
ATOM     19  C   UNL     1      -7.599 -12.561  19.736  0.00  0.00    +0.000 C 
BRANCH  19  20
ATOM     20  C   UNL     1      -6.512 -12.155  18.766  0.00  0.00    +0.000 A 
ATOM     21  C   UNL     1      -5.784 -10.966  18.956  0.00  0.00    +0.000 A 
ATOM     22  C   UNL     1      -6.195 -12.974  17.670  0.00  0.00    +0.000 A 
ATOM     23  C   UNL     1      -4.456 -11.439  16.988  0.00  0.00    +0.000 A 
ATOM     24  C   UNL     1      -4.758 -10.607  18.074  0.00  0.00    +0.000 A 
ATOM     25  C   UNL     1      -5.172 -12.624  16.784  0.00  0.00    +0.000 A 
BRANCH  23  28
ATOM     26  O   UNL     1      -2.265 -10.812  16.542  0.00  0.00    +0.000 OA
ATOM     27  O   UNL     1      -3.641 -11.049  14.846  0.00  0.00    +0.000 OA
ATOM     28  N   UNL     1      -3.379 -11.074  16.060  0.00  0.00    +0.000 N 
ENDBRANCH  23  28
ENDBRANCH  19  20
ENDBRANCH  18  19
ENDBRANCH  16  18
ENDBRANCH   4  17
TORSDOF 6
ENDMDL
MODEL 10
REMARK VINA RESULT:      -5.2     22.747     26.247
REMARK  Name = 6267892
REMARK  6 active torsions:
REMARK  status: ('A' for Active; 'I' for Inactive)
REMARK    1  A    between atoms: O_3  and  N_8
REMARK    2  A    between atoms: O_3  and  C_22
REMARK    3  A    between atoms: N_9  and  C_26
REMARK    4  A    between atoms: C_10  and  C_15
REMARK    5  A    between atoms: C_11  and  C_13
REMARK    6  A    between atoms: C_19  and  C_22
REMARK                            x       y       z     vdW  Elec       q    Type
REMARK                         _______ _______ _______ _____ _____    ______ ____
ROOT
ATOM      1  S   UNL     1     -18.396   8.688  34.056  0.00  0.00    +0.000 S 
ATOM      2  N   UNL     1     -15.994   8.493  33.163  0.00  0.00    +0.000 N 
ATOM      3  N   UNL     1     -17.034   6.537  32.872  0.00  0.00    +0.000 NA
ATOM      4  C   UNL     1     -15.071   7.702  32.527  0.00  0.00    +0.000 A 
ATOM      5  C   UNL     1     -15.734   6.475  32.393  0.00  0.00    +0.000 A 
ATOM      6  C   UNL     1     -17.128   7.754  33.323  0.00  0.00    +0.000 A 
ATOM      7  C   UNL     1     -16.081   9.797  33.605  0.00  0.00    +0.000 A 
ATOM      8  C   UNL     1     -17.295  10.074  34.110  0.00  0.00    +0.000 A 
ENDROOT
BRANCH   5  10
ATOM      9 CL   UNL     1     -13.533   1.448  30.007  0.00  0.00    +0.000 Cl
ATOM     10  C   UNL     1     -15.191   5.248  31.824  0.00  0.00    +0.000 A 
ATOM     11  C   UNL     1     -15.653   4.794  30.578  0.00  0.00    +0.000 A 
ATOM     12  C   UNL     1     -14.236   4.481  32.506  0.00  0.00    +0.000 A 
ATOM     13  C   UNL     1     -15.142   3.618  30.015  0.00  0.00    +0.000 A 
ATOM     14  C   UNL     1     -13.714   3.316  31.938  0.00  0.00    +0.000 A 
ATOM     15  C   UNL     1     -14.168   2.890  30.694  0.00  0.00    +0.000 A 
ENDBRANCH   5  10
BRANCH   4  17
ATOM     16  N   UNL     1     -12.684   7.744  32.657  0.00  0.00    +0.000 NA
ATOM     17  C   UNL     1     -13.777   8.113  32.066  0.00  0.00    +0.000 C 
BRANCH  16  18
ATOM     18  O   UNL     1     -11.594   8.328  31.976  0.00  0.00    +0.000 OA
BRANCH  18  19
ATOM     19  C   UNL     1     -11.456   9.692  32.381  0.00  0.00    +0.000 C 
BRANCH  19  20
ATOM     20  C   UNL     1     -10.657   9.777  33.662  0.00  0.00    +0.000 A 
ATOM     21  C   UNL     1     -11.280   9.614  34.913  0.00  0.00    +0.000 A 
ATOM     22  C   UNL     1      -9.270   9.997  33.621  0.00  0.00    +0.000 A 
ATOM     23  C   UNL     1      -9.151   9.881  36.033  0.00  0.00    +0.000 A 
ATOM     24  C   UNL     1     -10.533   9.664  36.095  0.00  0.00    +0.000 A 
ATOM     25  C   UNL     1      -8.516  10.047  34.797  0.00  0.00    +0.000 A 
BRANCH  23  28
ATOM     26  O   UNL     1      -7.931  11.035  37.636  0.00  0.00    +0.000 OA
ATOM     27  O   UNL     1      -8.161   8.864  37.874  0.00  0.00    +0.000 OA
ATOM     28  N   UNL     1      -8.358   9.930  37.267  0.00  0.00    +0.000 N 
ENDBRANCH  23  28
ENDBRANCH  19  20
ENDBRANCH  18  19
ENDBRANCH  16  18
ENDBRANCH   4  17
TORSDOF 6
ENDMDL
