REMARK  Name = 6267892
REMARK  6 active torsions:
REMARK  status: ('A' for Active; 'I' for Inactive)
REMARK    1  A    between atoms: O_3  and  N_8
REMARK    2  A    between atoms: O_3  and  C_22
REMARK    3  A    between atoms: N_9  and  C_26
REMARK    4  A    between atoms: C_10  and  C_15
REMARK    5  A    between atoms: C_11  and  C_13
REMARK    6  A    between atoms: C_19  and  C_22
REMARK                            x       y       z     vdW  Elec       q    Type
REMARK                         _______ _______ _______ _____ _____    ______ ____
ROOT
ATOM      1  S   UNL     1       0.064  -2.681  -4.615  0.00  0.00    +0.000 S 
ATOM      2  N   UNL     1       2.301  -1.954  -3.579  0.00  0.00    +0.000 N 
ATOM      3  N   UNL     1       0.638  -1.321  -2.227  0.00  0.00    +0.000 NA
ATOM      4  C   UNL     1       2.929  -1.374  -2.506  0.00  0.00    +0.000 A 
ATOM      5  C   UNL     1       1.865  -0.953  -1.697  0.00  0.00    +0.000 A 
ATOM      6  C   UNL     1       0.959  -1.903  -3.346  0.00  0.00    +0.000 A 
ATOM      7  C   UNL     1       2.666  -2.595  -4.745  0.00  0.00    +0.000 A 
ATOM      8  C   UNL     1       1.597  -3.049  -5.421  0.00  0.00    +0.000 A 
ENDROOT
BRANCH   5  10
ATOM      9 CL   UNL     1       2.222   2.010   3.490  0.00  0.00    +0.000 Cl
ATOM     10  C   UNL     1       1.963  -0.224  -0.439  0.00  0.00    +0.000 A 
ATOM     11  C   UNL     1       0.997  -0.426   0.561  0.00  0.00    +0.000 A 
ATOM     12  C   UNL     1       2.983   0.709  -0.207  0.00  0.00    +0.000 A 
ATOM     13  C   UNL     1       1.075   0.265   1.776  0.00  0.00    +0.000 A 
ATOM     14  C   UNL     1       3.071   1.388   1.011  0.00  0.00    +0.000 A 
ATOM     15  C   UNL     1       2.117   1.162   1.998  0.00  0.00    +0.000 A 
ENDBRANCH   5  10
BRANCH   4  17
ATOM     16  N   UNL     1       5.194  -1.263  -3.263  0.00  0.00    +0.000 NA
ATOM     17  C   UNL     1       4.344  -1.310  -2.286  0.00  0.00    +0.000 C 
BRANCH  16  18
ATOM     18  O   UNL     1       6.495  -1.226  -2.717  0.00  0.00    +0.000 OA
BRANCH  18  19
ATOM     19  C   UNL     1       7.372  -0.553  -3.624  0.00  0.00    +0.000 C 
BRANCH  19  20
ATOM     20  C   UNL     1       8.801  -0.657  -3.141  0.00  0.00    +0.000 A 
ATOM     21  C   UNL     1       9.449  -1.904  -3.070  0.00  0.00    +0.000 A 
ATOM     22  C   UNL     1       9.514   0.497  -2.778  0.00  0.00    +0.000 A 
ATOM     23  C   UNL     1      11.476  -0.832  -2.296  0.00  0.00    +0.000 A 
ATOM     24  C   UNL     1      10.781  -1.995  -2.651  0.00  0.00    +0.000 A 
ATOM     25  C   UNL     1      10.846   0.416  -2.359  0.00  0.00    +0.000 A 
BRANCH  23  28
ATOM     26  O   UNL     1      13.400  -2.040  -1.816  0.00  0.00    +0.000 OA
ATOM     27  O   UNL     1      13.455   0.141  -1.561  0.00  0.00    +0.000 OA
ATOM     28  N   UNL     1      12.875  -0.916  -1.860  0.00  0.00    +0.000 N 
ENDBRANCH  23  28
ENDBRANCH  19  20
ENDBRANCH  18  19
ENDBRANCH  16  18
ENDBRANCH   4  17
TORSDOF 6
