REMARK  Name = 82367708
REMARK  4 active torsions:
REMARK  status: ('A' for Active; 'I' for Inactive)
REMARK    1  A    between atoms: O_4  and  C_13
REMARK    2  A    between atoms: C_7  and  C_13
REMARK    3  A    between atoms: C_8  and  C_12
REMARK    4  A    between atoms: C_11  and  C_14
REMARK                            x       y       z     vdW  Elec       q    Type
REMARK                         _______ _______ _______ _____ _____    ______ ____
ROOT
ATOM      1  S   UNL     1      -6.658   3.610  -1.380  0.00  0.00    +0.000 S 
ATOM      2  N   UNL     1      -5.836   2.081   0.505  0.00  0.00    +0.000 N 
ATOM      3  N   UNL     1      -4.265   2.178  -1.070  0.00  0.00    +0.000 NA
ATOM      4  C   UNL     1      -4.828   1.280   0.975  0.00  0.00    +0.000 A 
ATOM      5  C   UNL     1      -3.848   1.372  -0.018  0.00  0.00    +0.000 A 
ATOM      6  C   UNL     1      -5.445   2.582  -0.694  0.00  0.00    +0.000 A 
ATOM      7  C   UNL     1      -7.086   2.476   0.930  0.00  0.00    +0.000 A 
ATOM      8  C   UNL     1      -7.677   3.300   0.044  0.00  0.00    +0.000 A 
ENDROOT
BRANCH   5  11
ATOM      9 CL   UNL     1       0.081  -0.699   2.615  0.00  0.00    +0.000 Cl
ATOM     10 CL   UNL     1       1.350  -1.612  -0.237  0.00  0.00    +0.000 Cl
ATOM     11  C   UNL     1      -2.561   0.692  -0.041  0.00  0.00    +0.000 A 
ATOM     12  C   UNL     1      -1.861   0.396   1.134  0.00  0.00    +0.000 A 
ATOM     13  C   UNL     1      -1.996   0.312  -1.267  0.00  0.00    +0.000 A 
ATOM     14  C   UNL     1      -0.662  -0.325   1.101  0.00  0.00    +0.000 A 
ATOM     15  C   UNL     1      -0.787  -0.391  -1.308  0.00  0.00    +0.000 A 
ATOM     16  C   UNL     1      -0.125  -0.722  -0.123  0.00  0.00    +0.000 A 
ENDBRANCH   5  11
BRANCH   8  17
ATOM     17  C   UNL     1      -8.995   3.939   0.180  0.00  0.00    +0.000 A 
ATOM     18  C   UNL     1      -9.484   4.288   1.451  0.00  0.00    +0.000 A 
ATOM     19  C   UNL     1      -9.793   4.238  -0.935  0.00  0.00    +0.000 A 
ATOM     20  C   UNL     1     -10.720   4.924   1.600  0.00  0.00    +0.000 A 
ATOM     21  C   UNL     1     -11.027   4.880  -0.787  0.00  0.00    +0.000 A 
ATOM     22  C   UNL     1     -11.488   5.225   0.480  0.00  0.00    +0.000 A 
ENDBRANCH   8  17
BRANCH   4  23
ATOM     23  C   UNL     1      -4.921   0.556   2.260  0.00  0.00    +0.000 C 
BRANCH  23  24
ATOM     24  O   UNL     1      -4.737  -0.822   1.991  0.00  0.00    +0.000 OA
ATOM     25  H   UNL     1      -5.446  -1.102   1.387  0.00  0.00    +0.000 HD
ENDBRANCH  23  24
ENDBRANCH   4  23
TORSDOF 4
