MODEL 1
REMARK VINA RESULT:      -6.6      0.000      0.000
REMARK  Name = 82367708
REMARK  4 active torsions:
REMARK  status: ('A' for Active; 'I' for Inactive)
REMARK    1  A    between atoms: O_4  and  C_13
REMARK    2  A    between atoms: C_7  and  C_13
REMARK    3  A    between atoms: C_8  and  C_12
REMARK    4  A    between atoms: C_11  and  C_14
REMARK                            x       y       z     vdW  Elec       q    Type
REMARK                         _______ _______ _______ _____ _____    ______ ____
ROOT
ATOM      1  S   UNL     1     -10.063   4.584 -36.768  0.00  0.00    +0.000 S 
ATOM      2  N   UNL     1     -10.785   6.724 -35.558  0.00  0.00    +0.000 N 
ATOM      3  N   UNL     1     -12.583   5.454 -35.893  0.00  0.00    +0.000 NA
ATOM      4  C   UNL     1     -11.819   7.442 -35.016  0.00  0.00    +0.000 A 
ATOM      5  C   UNL     1     -12.930   6.618 -35.220  0.00  0.00    +0.000 A 
ATOM      6  C   UNL     1     -11.295   5.568 -36.052  0.00  0.00    +0.000 A 
ATOM      7  C   UNL     1      -9.426   6.886 -35.720  0.00  0.00    +0.000 A 
ATOM      8  C   UNL     1      -8.869   5.835 -36.350  0.00  0.00    +0.000 A 
ENDROOT
BRANCH   5  11
ATOM      9 CL   UNL     1     -16.712   6.301 -31.718  0.00  0.00    +0.000 Cl
ATOM     10 CL   UNL     1     -18.567   8.041 -33.745  0.00  0.00    +0.000 Cl
ATOM     11  C   UNL     1     -14.310   6.906 -34.854  0.00  0.00    +0.000 A 
ATOM     12  C   UNL     1     -14.858   6.475 -33.641  0.00  0.00    +0.000 A 
ATOM     13  C   UNL     1     -15.124   7.639 -35.730  0.00  0.00    +0.000 A 
ATOM     14  C   UNL     1     -16.161   6.824 -33.270  0.00  0.00    +0.000 A 
ATOM     15  C   UNL     1     -16.435   7.973 -35.374  0.00  0.00    +0.000 A 
ATOM     16  C   UNL     1     -16.951   7.577 -34.138  0.00  0.00    +0.000 A 
ENDBRANCH   5  11
BRANCH   8  17
ATOM     17  C   UNL     1      -7.444   5.650 -36.664  0.00  0.00    +0.000 A 
ATOM     18  C   UNL     1      -6.803   4.438 -36.354  0.00  0.00    +0.000 A 
ATOM     19  C   UNL     1      -6.687   6.651 -37.291  0.00  0.00    +0.000 A 
ATOM     20  C   UNL     1      -5.458   4.230 -36.671  0.00  0.00    +0.000 A 
ATOM     21  C   UNL     1      -5.342   6.442 -37.614  0.00  0.00    +0.000 A 
ATOM     22  C   UNL     1      -4.729   5.231 -37.307  0.00  0.00    +0.000 A 
ENDBRANCH   8  17
BRANCH   4  23
ATOM     23  C   UNL     1     -11.627   8.770 -34.396  0.00  0.00    +0.000 C 
BRANCH  23  24
ATOM     24  O   UNL     1     -11.195   9.659 -35.410  0.00  0.00    +0.000 OA
ATOM     25  H   UNL     1     -10.357   9.316 -35.766  0.00  0.00    +0.000 HD
ENDBRANCH  23  24
ENDBRANCH   4  23
TORSDOF 4
ENDMDL
MODEL 2
REMARK VINA RESULT:      -6.4      4.033      8.815
REMARK  Name = 82367708
REMARK  4 active torsions:
REMARK  status: ('A' for Active; 'I' for Inactive)
REMARK    1  A    between atoms: O_4  and  C_13
REMARK    2  A    between atoms: C_7  and  C_13
REMARK    3  A    between atoms: C_8  and  C_12
REMARK    4  A    between atoms: C_11  and  C_14
REMARK                            x       y       z     vdW  Elec       q    Type
REMARK                         _______ _______ _______ _____ _____    ______ ____
ROOT
ATOM      1  S   UNL     1     -14.879   7.731 -35.518  0.00  0.00    +0.000 S 
ATOM      2  N   UNL     1     -13.224   6.135 -34.386  0.00  0.00    +0.000 N 
ATOM      3  N   UNL     1     -12.188   7.157 -36.071  0.00  0.00    +0.000 NA
ATOM      4  C   UNL     1     -11.951   5.627 -34.366  0.00  0.00    +0.000 A 
ATOM      5  C   UNL     1     -11.316   6.296 -35.417  0.00  0.00    +0.000 A 
ATOM      6  C   UNL     1     -13.299   7.030 -35.403  0.00  0.00    +0.000 A 
ATOM      7  C   UNL     1     -14.386   5.963 -33.664  0.00  0.00    +0.000 A 
ATOM      8  C   UNL     1     -15.382   6.740 -34.130  0.00  0.00    +0.000 A 
ENDROOT
BRANCH   5  11
ATOM      9 CL   UNL     1      -7.778   3.291 -37.677  0.00  0.00    +0.000 Cl
ATOM     10 CL   UNL     1      -5.679   5.759 -37.393  0.00  0.00    +0.000 Cl
ATOM     11  C   UNL     1      -9.942   6.118 -35.862  0.00  0.00    +0.000 A 
ATOM     12  C   UNL     1      -9.500   4.919 -36.433  0.00  0.00    +0.000 A 
ATOM     13  C   UNL     1      -9.024   7.169 -35.726  0.00  0.00    +0.000 A 
ATOM     14  C   UNL     1      -8.196   4.789 -36.926  0.00  0.00    +0.000 A 
ATOM     15  C   UNL     1      -7.713   7.038 -36.197  0.00  0.00    +0.000 A 
ATOM     16  C   UNL     1      -7.301   5.852 -36.810  0.00  0.00    +0.000 A 
ENDBRANCH   5  11
BRANCH   8  17
ATOM     17  C   UNL     1     -16.746   6.841 -33.588  0.00  0.00    +0.000 A 
ATOM     18  C   UNL     1     -17.638   7.803 -34.093  0.00  0.00    +0.000 A 
ATOM     19  C   UNL     1     -17.208   5.984 -32.578  0.00  0.00    +0.000 A 
ATOM     20  C   UNL     1     -18.948   7.896 -33.614  0.00  0.00    +0.000 A 
ATOM     21  C   UNL     1     -18.521   6.072 -32.102  0.00  0.00    +0.000 A 
ATOM     22  C   UNL     1     -19.390   7.026 -32.623  0.00  0.00    +0.000 A 
ENDBRANCH   8  17
BRANCH   4  23
ATOM     23  C   UNL     1     -11.517   4.608 -33.388  0.00  0.00    +0.000 C 
BRANCH  23  24
ATOM     24  O   UNL     1     -10.858   5.281 -32.331  0.00  0.00    +0.000 OA
ATOM     25  H   UNL     1      -9.992   4.856 -32.205  0.00  0.00    +0.000 HD
ENDBRANCH  23  24
ENDBRANCH   4  23
TORSDOF 4
ENDMDL
MODEL 3
REMARK VINA RESULT:      -6.1      2.016      2.833
REMARK  Name = 82367708
REMARK  4 active torsions:
REMARK  status: ('A' for Active; 'I' for Inactive)
REMARK    1  A    between atoms: O_4  and  C_13
REMARK    2  A    between atoms: C_7  and  C_13
REMARK    3  A    between atoms: C_8  and  C_12
REMARK    4  A    between atoms: C_11  and  C_14
REMARK                            x       y       z     vdW  Elec       q    Type
REMARK                         _______ _______ _______ _____ _____    ______ ____
ROOT
ATOM      1  S   UNL     1     -10.897   4.746 -34.001  0.00  0.00    +0.000 S 
ATOM      2  N   UNL     1     -12.647   6.384 -34.908  0.00  0.00    +0.000 N 
ATOM      3  N   UNL     1     -13.485   5.366 -33.114  0.00  0.00    +0.000 NA
ATOM      4  C   UNL     1     -13.901   6.917 -34.766  0.00  0.00    +0.000 A 
ATOM      5  C   UNL     1     -14.399   6.279 -33.625  0.00  0.00    +0.000 A 
ATOM      6  C   UNL     1     -12.460   5.485 -33.908  0.00  0.00    +0.000 A 
ATOM      7  C   UNL     1     -11.587   6.527 -35.778  0.00  0.00    +0.000 A 
ATOM      8  C   UNL     1     -10.557   5.725 -35.446  0.00  0.00    +0.000 A 
ENDROOT
BRANCH   5  11
ATOM      9 CL   UNL     1     -19.031   4.285 -32.520  0.00  0.00    +0.000 Cl
ATOM     10 CL   UNL     1     -19.716   7.055 -30.960  0.00  0.00    +0.000 Cl
ATOM     11  C   UNL     1     -15.716   6.456 -33.030  0.00  0.00    +0.000 A 
ATOM     12  C   UNL     1     -16.693   5.456 -33.088  0.00  0.00    +0.000 A 
ATOM     13  C   UNL     1     -16.027   7.655 -32.372  0.00  0.00    +0.000 A 
ATOM     14  C   UNL     1     -17.927   5.611 -32.446  0.00  0.00    +0.000 A 
ATOM     15  C   UNL     1     -17.267   7.824 -31.746  0.00  0.00    +0.000 A 
ATOM     16  C   UNL     1     -18.214   6.797 -31.771  0.00  0.00    +0.000 A 
ENDBRANCH   5  11
BRANCH   8  17
ATOM     17  C   UNL     1      -9.257   5.636 -36.128  0.00  0.00    +0.000 A 
ATOM     18  C   UNL     1      -8.356   6.714 -36.076  0.00  0.00    +0.000 A 
ATOM     19  C   UNL     1      -8.863   4.485 -36.827  0.00  0.00    +0.000 A 
ATOM     20  C   UNL     1      -7.102   6.638 -36.690  0.00  0.00    +0.000 A 
ATOM     21  C   UNL     1      -7.607   4.406 -37.437  0.00  0.00    +0.000 A 
ATOM     22  C   UNL     1      -6.726   5.482 -37.365  0.00  0.00    +0.000 A 
ENDBRANCH   8  17
BRANCH   4  23
ATOM     23  C   UNL     1     -14.447   7.926 -35.697  0.00  0.00    +0.000 C 
BRANCH  23  24
ATOM     24  O   UNL     1     -15.565   7.350 -36.348  0.00  0.00    +0.000 OA
ATOM     25  H   UNL     1     -15.498   6.385 -36.251  0.00  0.00    +0.000 HD
ENDBRANCH  23  24
ENDBRANCH   4  23
TORSDOF 4
ENDMDL
MODEL 4
REMARK VINA RESULT:      -5.7     15.678     18.275
REMARK  Name = 82367708
REMARK  4 active torsions:
REMARK  status: ('A' for Active; 'I' for Inactive)
REMARK    1  A    between atoms: O_4  and  C_13
REMARK    2  A    between atoms: C_7  and  C_13
REMARK    3  A    between atoms: C_8  and  C_12
REMARK    4  A    between atoms: C_11  and  C_14
REMARK                            x       y       z     vdW  Elec       q    Type
REMARK                         _______ _______ _______ _____ _____    ______ ____
ROOT
ATOM      1  S   UNL     1     -23.056   6.625 -50.275  0.00  0.00    +0.000 S 
ATOM      2  N   UNL     1     -23.902   8.456 -48.695  0.00  0.00    +0.000 N 
ATOM      3  N   UNL     1     -23.691   6.563 -47.543  0.00  0.00    +0.000 NA
ATOM      4  C   UNL     1     -24.289   8.784 -47.421  0.00  0.00    +0.000 A 
ATOM      5  C   UNL     1     -24.130   7.588 -46.714  0.00  0.00    +0.000 A 
ATOM      6  C   UNL     1     -23.559   7.143 -48.701  0.00  0.00    +0.000 A 
ATOM      7  C   UNL     1     -23.787   9.102 -49.907  0.00  0.00    +0.000 A 
ATOM      8  C   UNL     1     -23.347   8.274 -50.873  0.00  0.00    +0.000 A 
ENDROOT
BRANCH   5  11
ATOM      9 CL   UNL     1     -22.553   7.787 -41.802  0.00  0.00    +0.000 Cl
ATOM     10 CL   UNL     1     -25.529   6.802 -40.935  0.00  0.00    +0.000 Cl
ATOM     11  C   UNL     1     -24.424   7.360 -45.307  0.00  0.00    +0.000 A 
ATOM     12  C   UNL     1     -23.468   7.575 -44.308  0.00  0.00    +0.000 A 
ATOM     13  C   UNL     1     -25.698   6.916 -44.925  0.00  0.00    +0.000 A 
ATOM     14  C   UNL     1     -23.788   7.424 -42.954  0.00  0.00    +0.000 A 
ATOM     15  C   UNL     1     -26.018   6.743 -43.574  0.00  0.00    +0.000 A 
ATOM     16  C   UNL     1     -25.067   7.010 -42.586  0.00  0.00    +0.000 A 
ENDBRANCH   5  11
BRANCH   8  17
ATOM     17  C   UNL     1     -23.078   8.624 -52.277  0.00  0.00    +0.000 A 
ATOM     18  C   UNL     1     -22.280   7.785 -53.074  0.00  0.00    +0.000 A 
ATOM     19  C   UNL     1     -23.613   9.778 -52.869  0.00  0.00    +0.000 A 
ATOM     20  C   UNL     1     -22.037   8.083 -54.418  0.00  0.00    +0.000 A 
ATOM     21  C   UNL     1     -23.376  10.073 -54.216  0.00  0.00    +0.000 A 
ATOM     22  C   UNL     1     -22.591   9.224 -54.990  0.00  0.00    +0.000 A 
ENDBRANCH   8  17
BRANCH   4  23
ATOM     23  C   UNL     1     -24.744  10.140 -47.052  0.00  0.00    +0.000 C 
BRANCH  23  24
ATOM     24  O   UNL     1     -23.723  10.740 -46.276  0.00  0.00    +0.000 OA
ATOM     25  H   UNL     1     -23.909  10.544 -45.342  0.00  0.00    +0.000 HD
ENDBRANCH  23  24
ENDBRANCH   4  23
TORSDOF 4
ENDMDL
MODEL 5
REMARK VINA RESULT:      -5.7     20.025     22.639
REMARK  Name = 82367708
REMARK  4 active torsions:
REMARK  status: ('A' for Active; 'I' for Inactive)
REMARK    1  A    between atoms: O_4  and  C_13
REMARK    2  A    between atoms: C_7  and  C_13
REMARK    3  A    between atoms: C_8  and  C_12
REMARK    4  A    between atoms: C_11  and  C_14
REMARK                            x       y       z     vdW  Elec       q    Type
REMARK                         _______ _______ _______ _____ _____    ______ ____
ROOT
ATOM      1  S   UNL     1      -4.840   0.496 -55.624  0.00  0.00    +0.000 S 
ATOM      2  N   UNL     1      -4.892   2.941 -54.858  0.00  0.00    +0.000 N 
ATOM      3  N   UNL     1      -3.582   2.784 -56.652  0.00  0.00    +0.000 NA
ATOM      4  C   UNL     1      -4.454   4.221 -55.077  0.00  0.00    +0.000 A 
ATOM      5  C   UNL     1      -3.652   4.102 -56.216  0.00  0.00    +0.000 A 
ATOM      6  C   UNL     1      -4.350   2.146 -55.816  0.00  0.00    +0.000 A 
ATOM      7  C   UNL     1      -5.701   2.298 -53.946  0.00  0.00    +0.000 A 
ATOM      8  C   UNL     1      -5.790   0.979 -54.201  0.00  0.00    +0.000 A 
ENDROOT
BRANCH   5  11
ATOM      9 CL   UNL     1      -3.591   7.923 -59.688  0.00  0.00    +0.000 Cl
ATOM     10 CL   UNL     1      -0.557   8.587 -58.722  0.00  0.00    +0.000 Cl
ATOM     11  C   UNL     1      -2.910   5.165 -56.877  0.00  0.00    +0.000 A 
ATOM     12  C   UNL     1      -3.473   5.931 -57.905  0.00  0.00    +0.000 A 
ATOM     13  C   UNL     1      -1.594   5.446 -56.482  0.00  0.00    +0.000 A 
ATOM     14  C   UNL     1      -2.774   6.999 -58.479  0.00  0.00    +0.000 A 
ATOM     15  C   UNL     1      -0.882   6.499 -57.066  0.00  0.00    +0.000 A 
ATOM     16  C   UNL     1      -1.477   7.286 -58.056  0.00  0.00    +0.000 A 
ENDBRANCH   5  11
BRANCH   8  17
ATOM     17  C   UNL     1      -6.587  -0.009 -53.458  0.00  0.00    +0.000 A 
ATOM     18  C   UNL     1      -6.275  -0.307 -52.120  0.00  0.00    +0.000 A 
ATOM     19  C   UNL     1      -7.682  -0.667 -54.038  0.00  0.00    +0.000 A 
ATOM     20  C   UNL     1      -7.038  -1.219 -51.386  0.00  0.00    +0.000 A 
ATOM     21  C   UNL     1      -8.450  -1.575 -53.302  0.00  0.00    +0.000 A 
ATOM     22  C   UNL     1      -8.129  -1.848 -51.976  0.00  0.00    +0.000 A 
ENDBRANCH   8  17
BRANCH   4  23
ATOM     23  C   UNL     1      -4.840   5.353 -54.209  0.00  0.00    +0.000 C 
BRANCH  23  24
ATOM     24  O   UNL     1      -4.444   5.035 -52.887  0.00  0.00    +0.000 OA
ATOM     25  H   UNL     1      -5.239   5.057 -52.328  0.00  0.00    +0.000 HD
ENDBRANCH  23  24
ENDBRANCH   4  23
TORSDOF 4
ENDMDL
MODEL 6
REMARK VINA RESULT:      -5.7      2.138      2.979
REMARK  Name = 82367708
REMARK  4 active torsions:
REMARK  status: ('A' for Active; 'I' for Inactive)
REMARK    1  A    between atoms: O_4  and  C_13
REMARK    2  A    between atoms: C_7  and  C_13
REMARK    3  A    between atoms: C_8  and  C_12
REMARK    4  A    between atoms: C_11  and  C_14
REMARK                            x       y       z     vdW  Elec       q    Type
REMARK                         _______ _______ _______ _____ _____    ______ ____
ROOT
ATOM      1  S   UNL     1     -11.347   7.707 -36.242  0.00  0.00    +0.000 S 
ATOM      2  N   UNL     1     -12.812   6.365 -34.624  0.00  0.00    +0.000 N 
ATOM      3  N   UNL     1     -14.065   7.935 -35.585  0.00  0.00    +0.000 NA
ATOM      4  C   UNL     1     -14.059   6.190 -34.082  0.00  0.00    +0.000 A 
ATOM      5  C   UNL     1     -14.830   7.171 -34.713  0.00  0.00    +0.000 A 
ATOM      6  C   UNL     1     -12.881   7.399 -35.501  0.00  0.00    +0.000 A 
ATOM      7  C   UNL     1     -11.571   5.781 -34.498  0.00  0.00    +0.000 A 
ATOM      8  C   UNL     1     -10.658   6.371 -35.292  0.00  0.00    +0.000 A 
ENDROOT
BRANCH   5  11
ATOM      9 CL   UNL     1     -18.975   6.722 -31.668  0.00  0.00    +0.000 Cl
ATOM     10 CL   UNL     1     -20.593   8.562 -33.807  0.00  0.00    +0.000 Cl
ATOM     11  C   UNL     1     -16.241   7.451 -34.489  0.00  0.00    +0.000 A 
ATOM     12  C   UNL     1     -16.920   6.970 -33.364  0.00  0.00    +0.000 A 
ATOM     13  C   UNL     1     -16.953   8.226 -35.416  0.00  0.00    +0.000 A 
ATOM     14  C   UNL     1     -18.256   7.310 -33.124  0.00  0.00    +0.000 A 
ATOM     15  C   UNL     1     -18.295   8.553 -35.192  0.00  0.00    +0.000 A 
ATOM     16  C   UNL     1     -18.944   8.106 -34.039  0.00  0.00    +0.000 A 
ENDBRANCH   5  11
BRANCH   8  17
ATOM     17  C   UNL     1      -9.244   5.993 -35.440  0.00  0.00    +0.000 A 
ATOM     18  C   UNL     1      -8.385   6.766 -36.241  0.00  0.00    +0.000 A 
ATOM     19  C   UNL     1      -8.702   4.877 -34.785  0.00  0.00    +0.000 A 
ATOM     20  C   UNL     1      -7.031   6.442 -36.370  0.00  0.00    +0.000 A 
ATOM     21  C   UNL     1      -7.346   4.555 -34.909  0.00  0.00    +0.000 A 
ATOM     22  C   UNL     1      -6.512   5.340 -35.699  0.00  0.00    +0.000 A 
ENDBRANCH   8  17
BRANCH   4  23
ATOM     23  C   UNL     1     -14.347   5.152 -33.070  0.00  0.00    +0.000 C 
BRANCH  23  24
ATOM     24  O   UNL     1     -14.453   3.912 -33.746  0.00  0.00    +0.000 OA
ATOM     25  H   UNL     1     -13.842   3.289 -33.316  0.00  0.00    +0.000 HD
ENDBRANCH  23  24
ENDBRANCH   4  23
TORSDOF 4
ENDMDL
MODEL 7
REMARK VINA RESULT:      -5.7      5.411      7.504
REMARK  Name = 82367708
REMARK  4 active torsions:
REMARK  status: ('A' for Active; 'I' for Inactive)
REMARK    1  A    between atoms: O_4  and  C_13
REMARK    2  A    between atoms: C_7  and  C_13
REMARK    3  A    between atoms: C_8  and  C_12
REMARK    4  A    between atoms: C_11  and  C_14
REMARK                            x       y       z     vdW  Elec       q    Type
REMARK                         _______ _______ _______ _____ _____    ______ ____
ROOT
ATOM      1  S   UNL     1      -4.789   2.451 -32.052  0.00  0.00    +0.000 S 
ATOM      2  N   UNL     1      -6.010   2.156 -34.286  0.00  0.00    +0.000 N 
ATOM      3  N   UNL     1      -6.719   4.038 -33.329  0.00  0.00    +0.000 NA
ATOM      4  C   UNL     1      -6.930   2.664 -35.166  0.00  0.00    +0.000 A 
ATOM      5  C   UNL     1      -7.345   3.851 -34.555  0.00  0.00    +0.000 A 
ATOM      6  C   UNL     1      -5.928   3.008 -33.232  0.00  0.00    +0.000 A 
ATOM      7  C   UNL     1      -5.196   1.047 -34.213  0.00  0.00    +0.000 A 
ATOM      8  C   UNL     1      -4.467   1.037 -33.081  0.00  0.00    +0.000 A 
ENDROOT
BRANCH   5  11
ATOM      9 CL   UNL     1     -12.307   4.872 -35.556  0.00  0.00    +0.000 Cl
ATOM     10 CL   UNL     1     -11.386   7.866 -36.433  0.00  0.00    +0.000 Cl
ATOM     11  C   UNL     1      -8.343   4.787 -35.052  0.00  0.00    +0.000 A 
ATOM     12  C   UNL     1      -9.697   4.445 -35.142  0.00  0.00    +0.000 A 
ATOM     13  C   UNL     1      -7.953   6.074 -35.452  0.00  0.00    +0.000 A 
ATOM     14  C   UNL     1     -10.655   5.379 -35.551  0.00  0.00    +0.000 A 
ATOM     15  C   UNL     1      -8.904   7.007 -35.881  0.00  0.00    +0.000 A 
ATOM     16  C   UNL     1     -10.258   6.665 -35.918  0.00  0.00    +0.000 A 
ENDBRANCH   5  11
BRANCH   8  17
ATOM     17  C   UNL     1      -3.473   0.028 -32.684  0.00  0.00    +0.000 A 
ATOM     18  C   UNL     1      -2.870  -0.792 -33.654  0.00  0.00    +0.000 A 
ATOM     19  C   UNL     1      -3.079  -0.140 -31.347  0.00  0.00    +0.000 A 
ATOM     20  C   UNL     1      -1.900  -1.735 -33.302  0.00  0.00    +0.000 A 
ATOM     21  C   UNL     1      -2.104  -1.079 -30.995  0.00  0.00    +0.000 A 
ATOM     22  C   UNL     1      -1.514  -1.874 -31.973  0.00  0.00    +0.000 A 
ENDBRANCH   8  17
BRANCH   4  23
ATOM     23  C   UNL     1      -7.284   1.982 -36.428  0.00  0.00    +0.000 C 
BRANCH  23  24
ATOM     24  O   UNL     1      -6.938   2.846 -37.495  0.00  0.00    +0.000 OA
ATOM     25  H   UNL     1      -7.529   3.617 -37.454  0.00  0.00    +0.000 HD
ENDBRANCH  23  24
ENDBRANCH   4  23
TORSDOF 4
ENDMDL
MODEL 8
REMARK VINA RESULT:      -5.5     20.821     22.156
REMARK  Name = 82367708
REMARK  4 active torsions:
REMARK  status: ('A' for Active; 'I' for Inactive)
REMARK    1  A    between atoms: O_4  and  C_13
REMARK    2  A    between atoms: C_7  and  C_13
REMARK    3  A    between atoms: C_8  and  C_12
REMARK    4  A    between atoms: C_11  and  C_14
REMARK                            x       y       z     vdW  Elec       q    Type
REMARK                         _______ _______ _______ _____ _____    ______ ____
ROOT
ATOM      1  S   UNL     1      -8.032  14.576 -55.166  0.00  0.00    +0.000 S 
ATOM      2  N   UNL     1      -9.431  12.441 -55.398  0.00  0.00    +0.000 N 
ATOM      3  N   UNL     1      -9.744  13.698 -57.209  0.00  0.00    +0.000 NA
ATOM      4  C   UNL     1     -10.307  11.722 -56.169  0.00  0.00    +0.000 A 
ATOM      5  C   UNL     1     -10.472  12.519 -57.306  0.00  0.00    +0.000 A 
ATOM      6  C   UNL     1      -9.135  13.586 -56.063  0.00  0.00    +0.000 A 
ATOM      7  C   UNL     1      -8.815  12.293 -54.174  0.00  0.00    +0.000 A 
ATOM      8  C   UNL     1      -8.025  13.344 -53.883  0.00  0.00    +0.000 A 
ENDROOT
BRANCH   5  11
ATOM      9 CL   UNL     1     -15.195  12.585 -59.391  0.00  0.00    +0.000 Cl
ATOM     10 CL   UNL     1     -13.854  11.526 -62.158  0.00  0.00    +0.000 Cl
ATOM     11  C   UNL     1     -11.326  12.241 -58.451  0.00  0.00    +0.000 A 
ATOM     12  C   UNL     1     -12.711  12.440 -58.406  0.00  0.00    +0.000 A 
ATOM     13  C   UNL     1     -10.760  11.765 -59.643  0.00  0.00    +0.000 A 
ATOM     14  C   UNL     1     -13.509  12.240 -59.538  0.00  0.00    +0.000 A 
ATOM     15  C   UNL     1     -11.556  11.544 -60.772  0.00  0.00    +0.000 A 
ATOM     16  C   UNL     1     -12.929  11.794 -60.725  0.00  0.00    +0.000 A 
ENDBRANCH   5  11
BRANCH   8  17
ATOM     17  C   UNL     1      -7.194  13.514 -52.682  0.00  0.00    +0.000 A 
ATOM     18  C   UNL     1      -7.098  12.478 -51.736  0.00  0.00    +0.000 A 
ATOM     19  C   UNL     1      -6.460  14.687 -52.447  0.00  0.00    +0.000 A 
ATOM     20  C   UNL     1      -6.289  12.607 -50.603  0.00  0.00    +0.000 A 
ATOM     21  C   UNL     1      -5.646  14.814 -51.316  0.00  0.00    +0.000 A 
ATOM     22  C   UNL     1      -5.559  13.773 -50.397  0.00  0.00    +0.000 A 
ENDBRANCH   8  17
BRANCH   4  23
ATOM     23  C   UNL     1     -10.855  10.417 -55.743  0.00  0.00    +0.000 C 
BRANCH  23  24
ATOM     24  O   UNL     1     -12.030  10.668 -54.995  0.00  0.00    +0.000 OA
ATOM     25  H   UNL     1     -11.759  11.017 -54.128  0.00  0.00    +0.000 HD
ENDBRANCH  23  24
ENDBRANCH   4  23
TORSDOF 4
ENDMDL
MODEL 9
REMARK VINA RESULT:      -5.5      4.238      9.044
REMARK  Name = 82367708
REMARK  4 active torsions:
REMARK  status: ('A' for Active; 'I' for Inactive)
REMARK    1  A    between atoms: O_4  and  C_13
REMARK    2  A    between atoms: C_7  and  C_13
REMARK    3  A    between atoms: C_8  and  C_12
REMARK    4  A    between atoms: C_11  and  C_14
REMARK                            x       y       z     vdW  Elec       q    Type
REMARK                         _______ _______ _______ _____ _____    ______ ____
ROOT
ATOM      1  S   UNL     1     -15.475   8.274 -34.531  0.00  0.00    +0.000 S 
ATOM      2  N   UNL     1     -14.363   6.029 -33.991  0.00  0.00    +0.000 N 
ATOM      3  N   UNL     1     -13.133   7.085 -35.518  0.00  0.00    +0.000 NA
ATOM      4  C   UNL     1     -13.318   5.178 -34.239  0.00  0.00    +0.000 A 
ATOM      5  C   UNL     1     -12.551   5.868 -35.183  0.00  0.00    +0.000 A 
ATOM      6  C   UNL     1     -14.196   7.130 -34.766  0.00  0.00    +0.000 A 
ATOM      7  C   UNL     1     -15.485   6.035 -33.191  0.00  0.00    +0.000 A 
ATOM      8  C   UNL     1     -16.204   7.163 -33.348  0.00  0.00    +0.000 A 
ENDROOT
BRANCH   5  11
ATOM      9 CL   UNL     1      -7.394   5.620 -35.133  0.00  0.00    +0.000 Cl
ATOM     10 CL   UNL     1      -7.582   3.741 -37.781  0.00  0.00    +0.000 Cl
ATOM     11  C   UNL     1     -11.325   5.408 -35.819  0.00  0.00    +0.000 A 
ATOM     12  C   UNL     1     -10.063   5.730 -35.309  0.00  0.00    +0.000 A 
ATOM     13  C   UNL     1     -11.396   4.614 -36.973  0.00  0.00    +0.000 A 
ATOM     14  C   UNL     1      -8.896   5.218 -35.887  0.00  0.00    +0.000 A 
ATOM     15  C   UNL     1     -10.231   4.115 -37.567  0.00  0.00    +0.000 A 
ATOM     16  C   UNL     1      -8.980   4.406 -37.017  0.00  0.00    +0.000 A 
ENDBRANCH   5  11
BRANCH   8  17
ATOM     17  C   UNL     1     -17.439   7.526 -32.637  0.00  0.00    +0.000 A 
ATOM     18  C   UNL     1     -17.375   8.100 -31.355  0.00  0.00    +0.000 A 
ATOM     19  C   UNL     1     -18.707   7.334 -33.207  0.00  0.00    +0.000 A 
ATOM     20  C   UNL     1     -18.535   8.480 -30.675  0.00  0.00    +0.000 A 
ATOM     21  C   UNL     1     -19.868   7.721 -32.530  0.00  0.00    +0.000 A 
ATOM     22  C   UNL     1     -19.781   8.296 -31.265  0.00  0.00    +0.000 A 
ENDBRANCH   8  17
BRANCH   4  23
ATOM     23  C   UNL     1     -13.185   3.865 -33.573  0.00  0.00    +0.000 C 
BRANCH  23  24
ATOM     24  O   UNL     1     -13.511   2.867 -34.522  0.00  0.00    +0.000 OA
ATOM     25  H   UNL     1     -12.861   2.921 -35.243  0.00  0.00    +0.000 HD
ENDBRANCH  23  24
ENDBRANCH   4  23
TORSDOF 4
ENDMDL
MODEL 10
REMARK VINA RESULT:      -5.5     16.620     18.398
REMARK  Name = 82367708
REMARK  4 active torsions:
REMARK  status: ('A' for Active; 'I' for Inactive)
REMARK    1  A    between atoms: O_4  and  C_13
REMARK    2  A    between atoms: C_7  and  C_13
REMARK    3  A    between atoms: C_8  and  C_12
REMARK    4  A    between atoms: C_11  and  C_14
REMARK                            x       y       z     vdW  Elec       q    Type
REMARK                         _______ _______ _______ _____ _____    ______ ____
ROOT
ATOM      1  S   UNL     1      -6.189  -3.220 -50.670  0.00  0.00    +0.000 S 
ATOM      2  N   UNL     1      -8.523  -3.868 -49.834  0.00  0.00    +0.000 N 
ATOM      3  N   UNL     1      -7.043  -4.316 -48.232  0.00  0.00    +0.000 NA
ATOM      4  C   UNL     1      -9.273  -4.381 -48.807  0.00  0.00    +0.000 A 
ATOM      5  C   UNL     1      -8.327  -4.635 -47.809  0.00  0.00    +0.000 A 
ATOM      6  C   UNL     1      -7.227  -3.850 -49.435  0.00  0.00    +0.000 A 
ATOM      7  C   UNL     1      -8.755  -3.395 -51.107  0.00  0.00    +0.000 A 
ATOM      8  C   UNL     1      -7.616  -3.002 -51.709  0.00  0.00    +0.000 A 
ENDROOT
BRANCH   5  11
ATOM      9 CL   UNL     1      -8.435  -4.033 -42.682  0.00  0.00    +0.000 Cl
ATOM     10 CL   UNL     1      -9.585  -7.068 -42.473  0.00  0.00    +0.000 Cl
ATOM     11  C   UNL     1      -8.577  -5.215 -46.497  0.00  0.00    +0.000 A 
ATOM     12  C   UNL     1      -8.359  -4.494 -45.318  0.00  0.00    +0.000 A 
ATOM     13  C   UNL     1      -9.054  -6.530 -46.395  0.00  0.00    +0.000 A 
ATOM     14  C   UNL     1      -8.675  -5.037 -44.067  0.00  0.00    +0.000 A 
ATOM     15  C   UNL     1      -9.352  -7.086 -45.147  0.00  0.00    +0.000 A 
ATOM     16  C   UNL     1      -9.175  -6.335 -43.982  0.00  0.00    +0.000 A 
ENDBRANCH   5  11
BRANCH   8  17
ATOM     17  C   UNL     1      -7.486  -2.418 -53.053  0.00  0.00    +0.000 A 
ATOM     18  C   UNL     1      -7.977  -1.127 -53.313  0.00  0.00    +0.000 A 
ATOM     19  C   UNL     1      -6.862  -3.107 -54.104  0.00  0.00    +0.000 A 
ATOM     20  C   UNL     1      -7.836  -0.542 -54.575  0.00  0.00    +0.000 A 
ATOM     21  C   UNL     1      -6.715  -2.520 -55.364  0.00  0.00    +0.000 A 
ATOM     22  C   UNL     1      -7.200  -1.236 -55.598  0.00  0.00    +0.000 A 
ENDBRANCH   8  17
BRANCH   4  23
ATOM     23  C   UNL     1     -10.737  -4.558 -48.902  0.00  0.00    +0.000 C 
BRANCH  23  24
ATOM     24  O   UNL     1     -10.980  -5.850 -49.428  0.00  0.00    +0.000 OA
ATOM     25  H   UNL     1     -11.227  -6.429 -48.686  0.00  0.00    +0.000 HD
ENDBRANCH  23  24
ENDBRANCH   4  23
TORSDOF 4
ENDMDL
