MODEL 1
REMARK VINA RESULT:      -6.6      0.000      0.000
REMARK  Name = 82367708
REMARK  4 active torsions:
REMARK  status: ('A' for Active; 'I' for Inactive)
REMARK    1  A    between atoms: O_4  and  C_13
REMARK    2  A    between atoms: C_7  and  C_13
REMARK    3  A    between atoms: C_8  and  C_12
REMARK    4  A    between atoms: C_11  and  C_14
REMARK                            x       y       z     vdW  Elec       q    Type
REMARK                         _______ _______ _______ _____ _____    ______ ____
ROOT
ATOM      1  S   UNL     1       9.921  14.643  21.499  0.00  0.00    +0.000 S 
ATOM      2  N   UNL     1      10.597  13.028  23.370  0.00  0.00    +0.000 N 
ATOM      3  N   UNL     1      11.493  12.319  21.459  0.00  0.00    +0.000 NA
ATOM      4  C   UNL     1      11.285  11.893  23.713  0.00  0.00    +0.000 A 
ATOM      5  C   UNL     1      11.853  11.479  22.505  0.00  0.00    +0.000 A 
ATOM      6  C   UNL     1      10.761  13.228  22.038  0.00  0.00    +0.000 A 
ATOM      7  C   UNL     1       9.816  13.963  24.016  0.00  0.00    +0.000 A 
ATOM      8  C   UNL     1       9.365  14.907  23.168  0.00  0.00    +0.000 A 
ENDROOT
BRANCH   5  11
ATOM      9 CL   UNL     1      12.120   6.463  21.310  0.00  0.00    +0.000 Cl
ATOM     10 CL   UNL     1      15.359   6.734  21.426  0.00  0.00    +0.000 Cl
ATOM     11  C   UNL     1      12.676  10.298  22.286  0.00  0.00    +0.000 A 
ATOM     12  C   UNL     1      12.114   9.048  22.002  0.00  0.00    +0.000 A 
ATOM     13  C   UNL     1      14.073  10.400  22.354  0.00  0.00    +0.000 A 
ATOM     14  C   UNL     1      12.919   7.939  21.719  0.00  0.00    +0.000 A 
ATOM     15  C   UNL     1      14.883   9.290  22.092  0.00  0.00    +0.000 A 
ATOM     16  C   UNL     1      14.307   8.061  21.762  0.00  0.00    +0.000 A 
ENDBRANCH   5  11
BRANCH   8  17
ATOM     17  C   UNL     1       8.534  16.072  23.510  0.00  0.00    +0.000 A 
ATOM     18  C   UNL     1       7.162  16.076  23.204  0.00  0.00    +0.000 A 
ATOM     19  C   UNL     1       9.065  17.196  24.160  0.00  0.00    +0.000 A 
ATOM     20  C   UNL     1       6.349  17.160  23.547  0.00  0.00    +0.000 A 
ATOM     21  C   UNL     1       8.251  18.278  24.510  0.00  0.00    +0.000 A 
ATOM     22  C   UNL     1       6.893  18.258  24.206  0.00  0.00    +0.000 A 
ENDBRANCH   8  17
BRANCH   4  23
ATOM     23  C   UNL     1      11.313  11.367  25.094  0.00  0.00    +0.000 C 
BRANCH  23  24
ATOM     24  O   UNL     1      12.663  11.353  25.521  0.00  0.00    +0.000 OA
ATOM     25  H   UNL     1      12.752  12.000  26.241  0.00  0.00    +0.000 HD
ENDBRANCH  23  24
ENDBRANCH   4  23
TORSDOF 4
ENDMDL
MODEL 2
REMARK VINA RESULT:      -6.3     27.547     28.965
REMARK  Name = 82367708
REMARK  4 active torsions:
REMARK  status: ('A' for Active; 'I' for Inactive)
REMARK    1  A    between atoms: O_4  and  C_13
REMARK    2  A    between atoms: C_7  and  C_13
REMARK    3  A    between atoms: C_8  and  C_12
REMARK    4  A    between atoms: C_11  and  C_14
REMARK                            x       y       z     vdW  Elec       q    Type
REMARK                         _______ _______ _______ _____ _____    ______ ____
ROOT
ATOM      1  S   UNL     1     -15.697   6.364  31.388  0.00  0.00    +0.000 S 
ATOM      2  N   UNL     1     -14.952   3.988  30.783  0.00  0.00    +0.000 N 
ATOM      3  N   UNL     1     -16.419   4.685  29.259  0.00  0.00    +0.000 NA
ATOM      4  C   UNL     1     -15.067   2.937  29.910  0.00  0.00    +0.000 A 
ATOM      5  C   UNL     1     -15.975   3.404  28.955  0.00  0.00    +0.000 A 
ATOM      6  C   UNL     1     -15.765   4.983  30.345  0.00  0.00    +0.000 A 
ATOM      7  C   UNL     1     -14.253   4.262  31.938  0.00  0.00    +0.000 A 
ATOM      8  C   UNL     1     -14.527   5.495  32.406  0.00  0.00    +0.000 A 
ENDROOT
BRANCH   5  11
ATOM      9 CL   UNL     1     -16.265   2.953  23.819  0.00  0.00    +0.000 Cl
ATOM     10 CL   UNL     1     -17.939   0.203  24.278  0.00  0.00    +0.000 Cl
ATOM     11  C   UNL     1     -16.480   2.675  27.800  0.00  0.00    +0.000 A 
ATOM     12  C   UNL     1     -16.245   3.111  26.491  0.00  0.00    +0.000 A 
ATOM     13  C   UNL     1     -17.220   1.499  27.988  0.00  0.00    +0.000 A 
ATOM     14  C   UNL     1     -16.672   2.360  25.390  0.00  0.00    +0.000 A 
ATOM     15  C   UNL     1     -17.667   0.754  26.891  0.00  0.00    +0.000 A 
ATOM     16  C   UNL     1     -17.382   1.177  25.590  0.00  0.00    +0.000 A 
ENDBRANCH   5  11
BRANCH   8  17
ATOM     17  C   UNL     1     -13.943   6.134  33.596  0.00  0.00    +0.000 A 
ATOM     18  C   UNL     1     -13.395   7.425  33.507  0.00  0.00    +0.000 A 
ATOM     19  C   UNL     1     -13.929   5.499  34.847  0.00  0.00    +0.000 A 
ATOM     20  C   UNL     1     -12.863   8.063  34.631  0.00  0.00    +0.000 A 
ATOM     21  C   UNL     1     -13.402   6.140  35.974  0.00  0.00    +0.000 A 
ATOM     22  C   UNL     1     -12.873   7.422  35.866  0.00  0.00    +0.000 A 
ENDBRANCH   8  17
BRANCH   4  23
ATOM     23  C   UNL     1     -14.327   1.670  30.089  0.00  0.00    +0.000 C 
BRANCH  23  24
ATOM     24  O   UNL     1     -12.960   1.932  29.831  0.00  0.00    +0.000 OA
ATOM     25  H   UNL     1     -12.905   2.413  28.988  0.00  0.00    +0.000 HD
ENDBRANCH  23  24
ENDBRANCH   4  23
TORSDOF 4
ENDMDL
MODEL 3
REMARK VINA RESULT:      -6.1     28.888     30.571
REMARK  Name = 82367708
REMARK  4 active torsions:
REMARK  status: ('A' for Active; 'I' for Inactive)
REMARK    1  A    between atoms: O_4  and  C_13
REMARK    2  A    between atoms: C_7  and  C_13
REMARK    3  A    between atoms: C_8  and  C_12
REMARK    4  A    between atoms: C_11  and  C_14
REMARK                            x       y       z     vdW  Elec       q    Type
REMARK                         _______ _______ _______ _____ _____    ______ ____
ROOT
ATOM      1  S   UNL     1     -10.076  -8.391  17.546  0.00  0.00    +0.000 S 
ATOM      2  N   UNL     1      -8.867 -10.639  17.771  0.00  0.00    +0.000 N 
ATOM      3  N   UNL     1      -7.474  -9.171  16.843  0.00  0.00    +0.000 NA
ATOM      4  C   UNL     1      -7.711 -11.345  17.564  0.00  0.00    +0.000 A 
ATOM      5  C   UNL     1      -6.847 -10.401  17.001  0.00  0.00    +0.000 A 
ATOM      6  C   UNL     1      -8.664  -9.371  17.333  0.00  0.00    +0.000 A 
ATOM      7  C   UNL     1     -10.121 -10.892  18.284  0.00  0.00    +0.000 A 
ATOM      8  C   UNL     1     -10.906  -9.800  18.244  0.00  0.00    +0.000 A 
ENDROOT
BRANCH   5  11
ATOM      9 CL   UNL     1      -3.454 -10.572  13.113  0.00  0.00    +0.000 Cl
ATOM     10 CL   UNL     1      -1.136 -11.133  15.325  0.00  0.00    +0.000 Cl
ATOM     11  C   UNL     1      -5.478 -10.622  16.558  0.00  0.00    +0.000 A 
ATOM     12  C   UNL     1      -5.123 -10.578  15.206  0.00  0.00    +0.000 A 
ATOM     13  C   UNL     1      -4.475 -10.885  17.503  0.00  0.00    +0.000 A 
ATOM     14  C   UNL     1      -3.790 -10.717  14.802  0.00  0.00    +0.000 A 
ATOM     15  C   UNL     1      -3.144 -11.046  17.103  0.00  0.00    +0.000 A 
ATOM     16  C   UNL     1      -2.798 -10.950  15.753  0.00  0.00    +0.000 A 
ENDBRANCH   5  11
BRANCH   8  17
ATOM     17  C   UNL     1     -12.290  -9.692  18.733  0.00  0.00    +0.000 A 
ATOM     18  C   UNL     1     -12.566  -9.808  20.106  0.00  0.00    +0.000 A 
ATOM     19  C   UNL     1     -13.366  -9.454  17.865  0.00  0.00    +0.000 A 
ATOM     20  C   UNL     1     -13.869  -9.678  20.595  0.00  0.00    +0.000 A 
ATOM     21  C   UNL     1     -14.670  -9.317  18.354  0.00  0.00    +0.000 A 
ATOM     22  C   UNL     1     -14.920  -9.427  19.719  0.00  0.00    +0.000 A 
ENDBRANCH   8  17
BRANCH   4  23
ATOM     23  C   UNL     1      -7.578 -12.775  17.915  0.00  0.00    +0.000 C 
BRANCH  23  24
ATOM     24  O   UNL     1      -6.782 -12.859  19.083  0.00  0.00    +0.000 OA
ATOM     25  H   UNL     1      -7.037 -13.669  19.556  0.00  0.00    +0.000 HD
ENDBRANCH  23  24
ENDBRANCH   4  23
TORSDOF 4
ENDMDL
MODEL 4
REMARK VINA RESULT:      -6.1     28.939     31.271
REMARK  Name = 82367708
REMARK  4 active torsions:
REMARK  status: ('A' for Active; 'I' for Inactive)
REMARK    1  A    between atoms: O_4  and  C_13
REMARK    2  A    between atoms: C_7  and  C_13
REMARK    3  A    between atoms: C_8  and  C_12
REMARK    4  A    between atoms: C_11  and  C_14
REMARK                            x       y       z     vdW  Elec       q    Type
REMARK                         _______ _______ _______ _____ _____    ______ ____
ROOT
ATOM      1  S   UNL     1      -6.237 -11.890  17.587  0.00  0.00    +0.000 S 
ATOM      2  N   UNL     1      -7.722  -9.854  17.120  0.00  0.00    +0.000 N 
ATOM      3  N   UNL     1      -8.816 -11.237  18.480  0.00  0.00    +0.000 NA
ATOM      4  C   UNL     1      -8.922  -9.234  17.348  0.00  0.00    +0.000 A 
ATOM      5  C   UNL     1      -9.582 -10.108  18.217  0.00  0.00    +0.000 A 
ATOM      6  C   UNL     1      -7.718 -11.021  17.813  0.00  0.00    +0.000 A 
ATOM      7  C   UNL     1      -6.581  -9.597  16.391  0.00  0.00    +0.000 A 
ATOM      8  C   UNL     1      -5.673 -10.583  16.522  0.00  0.00    +0.000 A 
ENDROOT
BRANCH   5  11
ATOM      9 CL   UNL     1     -14.623  -9.371  17.378  0.00  0.00    +0.000 Cl
ATOM     10 CL   UNL     1     -15.075  -9.673  20.585  0.00  0.00    +0.000 Cl
ATOM     11  C   UNL     1     -10.921  -9.949  18.767  0.00  0.00    +0.000 A 
ATOM     12  C   UNL     1     -12.028  -9.693  17.951  0.00  0.00    +0.000 A 
ATOM     13  C   UNL     1     -11.123 -10.058  20.150  0.00  0.00    +0.000 A 
ATOM     14  C   UNL     1     -13.320  -9.618  18.485  0.00  0.00    +0.000 A 
ATOM     15  C   UNL     1     -12.409  -9.963  20.693  0.00  0.00    +0.000 A 
ATOM     16  C   UNL     1     -13.511  -9.756  19.859  0.00  0.00    +0.000 A 
ENDBRANCH   5  11
BRANCH   8  17
ATOM     17  C   UNL     1      -4.333 -10.631  15.915  0.00  0.00    +0.000 A 
ATOM     18  C   UNL     1      -4.189 -10.608  14.517  0.00  0.00    +0.000 A 
ATOM     19  C   UNL     1      -3.167 -10.682  16.695  0.00  0.00    +0.000 A 
ATOM     20  C   UNL     1      -2.924 -10.622  13.921  0.00  0.00    +0.000 A 
ATOM     21  C   UNL     1      -1.902 -10.689  16.099  0.00  0.00    +0.000 A 
ATOM     22  C   UNL     1      -1.781 -10.657  14.713  0.00  0.00    +0.000 A 
ENDBRANCH   8  17
BRANCH   4  23
ATOM     23  C   UNL     1      -9.277  -7.937  16.734  0.00  0.00    +0.000 C 
BRANCH  23  24
ATOM     24  O   UNL     1      -9.481  -8.158  15.350  0.00  0.00    +0.000 OA
ATOM     25  H   UNL     1     -10.440  -8.201  15.196  0.00  0.00    +0.000 HD
ENDBRANCH  23  24
ENDBRANCH   4  23
TORSDOF 4
ENDMDL
MODEL 5
REMARK VINA RESULT:      -5.9      8.761     11.617
REMARK  Name = 82367708
REMARK  4 active torsions:
REMARK  status: ('A' for Active; 'I' for Inactive)
REMARK    1  A    between atoms: O_4  and  C_13
REMARK    2  A    between atoms: C_7  and  C_13
REMARK    3  A    between atoms: C_8  and  C_12
REMARK    4  A    between atoms: C_11  and  C_14
REMARK                            x       y       z     vdW  Elec       q    Type
REMARK                         _______ _______ _______ _____ _____    ______ ____
ROOT
ATOM      1  S   UNL     1      -0.328  17.390  18.887  0.00  0.00    +0.000 S 
ATOM      2  N   UNL     1       0.350  15.936  20.885  0.00  0.00    +0.000 N 
ATOM      3  N   UNL     1       2.149  17.024  20.152  0.00  0.00    +0.000 NA
ATOM      4  C   UNL     1       1.361  15.529  21.716  0.00  0.00    +0.000 A 
ATOM      5  C   UNL     1       2.472  16.238  21.251  0.00  0.00    +0.000 A 
ATOM      6  C   UNL     1       0.873  16.815  19.993  0.00  0.00    +0.000 A 
ATOM      7  C   UNL     1      -0.996  15.679  20.740  0.00  0.00    +0.000 A 
ATOM      8  C   UNL     1      -1.528  16.372  19.715  0.00  0.00    +0.000 A 
ENDROOT
BRANCH   5  11
ATOM      9 CL   UNL     1       7.470  15.304  20.349  0.00  0.00    +0.000 Cl
ATOM     10 CL   UNL     1       8.061  16.172  23.427  0.00  0.00    +0.000 Cl
ATOM     11  C   UNL     1       3.833  16.164  21.764  0.00  0.00    +0.000 A 
ATOM     12  C   UNL     1       4.904  15.753  20.962  0.00  0.00    +0.000 A 
ATOM     13  C   UNL     1       4.095  16.517  23.095  0.00  0.00    +0.000 A 
ATOM     14  C   UNL     1       6.216  15.761  21.446  0.00  0.00    +0.000 A 
ATOM     15  C   UNL     1       5.403  16.507  23.592  0.00  0.00    +0.000 A 
ATOM     16  C   UNL     1       6.467  16.141  22.764  0.00  0.00    +0.000 A 
ENDBRANCH   5  11
BRANCH   8  17
ATOM     17  C   UNL     1      -2.936  16.371  19.289  0.00  0.00    +0.000 A 
ATOM     18  C   UNL     1      -3.383  15.447  18.329  0.00  0.00    +0.000 A 
ATOM     19  C   UNL     1      -3.876  17.262  19.830  0.00  0.00    +0.000 A 
ATOM     20  C   UNL     1      -4.724  15.408  17.933  0.00  0.00    +0.000 A 
ATOM     21  C   UNL     1      -5.218  17.219  19.439  0.00  0.00    +0.000 A 
ATOM     22  C   UNL     1      -5.641  16.290  18.493  0.00  0.00    +0.000 A 
ENDBRANCH   8  17
BRANCH   4  23
ATOM     23  C   UNL     1       1.150  14.554  22.807  0.00  0.00    +0.000 C 
BRANCH  23  24
ATOM     24  O   UNL     1       0.737  15.275  23.954  0.00  0.00    +0.000 OA
ATOM     25  H   UNL     1       1.416  15.153  24.639  0.00  0.00    +0.000 HD
ENDBRANCH  23  24
ENDBRANCH   4  23
TORSDOF 4
ENDMDL
MODEL 6
REMARK VINA RESULT:      -5.9     24.976     27.227
REMARK  Name = 82367708
REMARK  4 active torsions:
REMARK  status: ('A' for Active; 'I' for Inactive)
REMARK    1  A    between atoms: O_4  and  C_13
REMARK    2  A    between atoms: C_7  and  C_13
REMARK    3  A    between atoms: C_8  and  C_12
REMARK    4  A    between atoms: C_11  and  C_14
REMARK                            x       y       z     vdW  Elec       q    Type
REMARK                         _______ _______ _______ _____ _____    ______ ____
ROOT
ATOM      1  S   UNL     1     -14.704   7.590  19.609  0.00  0.00    +0.000 S 
ATOM      2  N   UNL     1     -14.026   6.166  21.629  0.00  0.00    +0.000 N 
ATOM      3  N   UNL     1     -16.236   6.046  21.382  0.00  0.00    +0.000 NA
ATOM      4  C   UNL     1     -14.442   5.345  22.645  0.00  0.00    +0.000 A 
ATOM      5  C   UNL     1     -15.826   5.269  22.458  0.00  0.00    +0.000 A 
ATOM      6  C   UNL     1     -15.122   6.540  20.921  0.00  0.00    +0.000 A 
ATOM      7  C   UNL     1     -12.830   6.680  21.179  0.00  0.00    +0.000 A 
ATOM      8  C   UNL     1     -12.999   7.469  20.101  0.00  0.00    +0.000 A 
ENDROOT
BRANCH   5  11
ATOM      9 CL   UNL     1     -18.008   0.761  23.713  0.00  0.00    +0.000 Cl
ATOM     10 CL   UNL     1     -19.636   2.339  26.045  0.00  0.00    +0.000 Cl
ATOM     11  C   UNL     1     -16.780   4.539  23.280  0.00  0.00    +0.000 A 
ATOM     12  C   UNL     1     -17.001   3.168  23.113  0.00  0.00    +0.000 A 
ATOM     13  C   UNL     1     -17.501   5.215  24.275  0.00  0.00    +0.000 A 
ATOM     14  C   UNL     1     -17.865   2.465  23.961  0.00  0.00    +0.000 A 
ATOM     15  C   UNL     1     -18.382   4.521  25.113  0.00  0.00    +0.000 A 
ATOM     16  C   UNL     1     -18.555   3.143  24.965  0.00  0.00    +0.000 A 
ENDBRANCH   5  11
BRANCH   8  17
ATOM     17  C   UNL     1     -11.946   8.158  19.340  0.00  0.00    +0.000 A 
ATOM     18  C   UNL     1     -11.335   9.311  19.862  0.00  0.00    +0.000 A 
ATOM     19  C   UNL     1     -11.503   7.688  18.094  0.00  0.00    +0.000 A 
ATOM     20  C   UNL     1     -10.310   9.963  19.170  0.00  0.00    +0.000 A 
ATOM     21  C   UNL     1     -10.473   8.336  17.403  0.00  0.00    +0.000 A 
ATOM     22  C   UNL     1      -9.876   9.471  17.943  0.00  0.00    +0.000 A 
ENDBRANCH   8  17
BRANCH   4  23
ATOM     23  C   UNL     1     -13.506   4.759  23.627  0.00  0.00    +0.000 C 
BRANCH  23  24
ATOM     24  O   UNL     1     -12.410   4.222  22.909  0.00  0.00    +0.000 OA
ATOM     25  H   UNL     1     -12.449   4.575  22.004  0.00  0.00    +0.000 HD
ENDBRANCH  23  24
ENDBRANCH   4  23
TORSDOF 4
ENDMDL
MODEL 7
REMARK VINA RESULT:      -5.9     21.434     24.118
REMARK  Name = 82367708
REMARK  4 active torsions:
REMARK  status: ('A' for Active; 'I' for Inactive)
REMARK    1  A    between atoms: O_4  and  C_13
REMARK    2  A    between atoms: C_7  and  C_13
REMARK    3  A    between atoms: C_8  and  C_12
REMARK    4  A    between atoms: C_11  and  C_14
REMARK                            x       y       z     vdW  Elec       q    Type
REMARK                         _______ _______ _______ _____ _____    ______ ____
ROOT
ATOM      1  S   UNL     1       7.196  -9.193  35.032  0.00  0.00    +0.000 S 
ATOM      2  N   UNL     1       7.305  -6.743  34.289  0.00  0.00    +0.000 N 
ATOM      3  N   UNL     1       7.517  -6.826  36.504  0.00  0.00    +0.000 NA
ATOM      4  C   UNL     1       7.441  -5.434  34.671  0.00  0.00    +0.000 A 
ATOM      5  C   UNL     1       7.592  -5.512  36.058  0.00  0.00    +0.000 A 
ATOM      6  C   UNL     1       7.363  -7.511  35.406  0.00  0.00    +0.000 A 
ATOM      7  C   UNL     1       7.129  -7.432  33.108  0.00  0.00    +0.000 A 
ATOM      8  C   UNL     1       7.049  -8.760  33.313  0.00  0.00    +0.000 A 
ENDROOT
BRANCH   5  11
ATOM      9 CL   UNL     1       5.451  -2.321  39.507  0.00  0.00    +0.000 Cl
ATOM     10 CL   UNL     1       8.409  -1.061  39.994  0.00  0.00    +0.000 Cl
ATOM     11  C   UNL     1       7.749  -4.400  36.984  0.00  0.00    +0.000 A 
ATOM     12  C   UNL     1       6.666  -3.870  37.693  0.00  0.00    +0.000 A 
ATOM     13  C   UNL     1       9.018  -3.837  37.186  0.00  0.00    +0.000 A 
ATOM     14  C   UNL     1       6.845  -2.851  38.636  0.00  0.00    +0.000 A 
ATOM     15  C   UNL     1       9.200  -2.804  38.113  0.00  0.00    +0.000 A 
ATOM     16  C   UNL     1       8.116  -2.319  38.848  0.00  0.00    +0.000 A 
ENDBRANCH   5  11
BRANCH   8  17
ATOM     17  C   UNL     1       6.893  -9.801  32.285  0.00  0.00    +0.000 A 
ATOM     18  C   UNL     1       6.572 -11.119  32.656  0.00  0.00    +0.000 A 
ATOM     19  C   UNL     1       7.037  -9.521  30.918  0.00  0.00    +0.000 A 
ATOM     20  C   UNL     1       6.389 -12.116  31.694  0.00  0.00    +0.000 A 
ATOM     21  C   UNL     1       6.848 -10.517  29.954  0.00  0.00    +0.000 A 
ATOM     22  C   UNL     1       6.521 -11.813  30.343  0.00  0.00    +0.000 A 
ENDBRANCH   8  17
BRANCH   4  23
ATOM     23  C   UNL     1       7.410  -4.316  33.704  0.00  0.00    +0.000 C 
BRANCH  23  24
ATOM     24  O   UNL     1       6.098  -3.784  33.704  0.00  0.00    +0.000 OA
ATOM     25  H   UNL     1       5.853  -3.603  34.628  0.00  0.00    +0.000 HD
ENDBRANCH  23  24
ENDBRANCH   4  23
TORSDOF 4
ENDMDL
MODEL 8
REMARK VINA RESULT:      -5.9     18.788     20.839
REMARK  Name = 82367708
REMARK  4 active torsions:
REMARK  status: ('A' for Active; 'I' for Inactive)
REMARK    1  A    between atoms: O_4  and  C_13
REMARK    2  A    between atoms: C_7  and  C_13
REMARK    3  A    between atoms: C_8  and  C_12
REMARK    4  A    between atoms: C_11  and  C_14
REMARK                            x       y       z     vdW  Elec       q    Type
REMARK                         _______ _______ _______ _____ _____    ______ ____
ROOT
ATOM      1  S   UNL     1      -0.437   9.325  37.222  0.00  0.00    +0.000 S 
ATOM      2  N   UNL     1      -2.878   9.925  36.724  0.00  0.00    +0.000 N 
ATOM      3  N   UNL     1      -1.560  11.420  35.730  0.00  0.00    +0.000 NA
ATOM      4  C   UNL     1      -3.743  10.785  36.098  0.00  0.00    +0.000 A 
ATOM      5  C   UNL     1      -2.895  11.700  35.467  0.00  0.00    +0.000 A 
ATOM      6  C   UNL     1      -1.614  10.347  36.467  0.00  0.00    +0.000 A 
ATOM      7  C   UNL     1      -2.976   8.799  37.512  0.00  0.00    +0.000 A 
ATOM      8  C   UNL     1      -1.764   8.337  37.875  0.00  0.00    +0.000 A 
ENDROOT
BRANCH   5  11
ATOM      9 CL   UNL     1      -5.349  13.553  31.320  0.00  0.00    +0.000 Cl
ATOM     10 CL   UNL     1      -4.642  16.542  32.389  0.00  0.00    +0.000 Cl
ATOM     11  C   UNL     1      -3.290  12.854  34.673  0.00  0.00    +0.000 A 
ATOM     12  C   UNL     1      -3.991  12.716  33.469  0.00  0.00    +0.000 A 
ATOM     13  C   UNL     1      -2.973  14.146  35.115  0.00  0.00    +0.000 A 
ATOM     14  C   UNL     1      -4.430  13.837  32.755  0.00  0.00    +0.000 A 
ATOM     15  C   UNL     1      -3.392  15.270  34.395  0.00  0.00    +0.000 A 
ATOM     16  C   UNL     1      -4.133  15.117  33.220  0.00  0.00    +0.000 A 
ENDBRANCH   5  11
BRANCH   8  17
ATOM     17  C   UNL     1      -1.484   7.142  38.686  0.00  0.00    +0.000 A 
ATOM     18  C   UNL     1      -2.446   6.660  39.591  0.00  0.00    +0.000 A 
ATOM     19  C   UNL     1      -0.276   6.437  38.576  0.00  0.00    +0.000 A 
ATOM     20  C   UNL     1      -2.213   5.509  40.348  0.00  0.00    +0.000 A 
ATOM     21  C   UNL     1      -0.044   5.281  39.329  0.00  0.00    +0.000 A 
ATOM     22  C   UNL     1      -1.014   4.816  40.212  0.00  0.00    +0.000 A 
ENDBRANCH   8  17
BRANCH   4  23
ATOM     23  C   UNL     1      -5.211  10.633  36.177  0.00  0.00    +0.000 C 
BRANCH  23  24
ATOM     24  O   UNL     1      -5.597   9.679  35.204  0.00  0.00    +0.000 OA
ATOM     25  H   UNL     1      -4.870   9.600  34.563  0.00  0.00    +0.000 HD
ENDBRANCH  23  24
ENDBRANCH   4  23
TORSDOF 4
ENDMDL
MODEL 9
REMARK VINA RESULT:      -5.8     17.870     20.400
REMARK  Name = 82367708
REMARK  4 active torsions:
REMARK  status: ('A' for Active; 'I' for Inactive)
REMARK    1  A    between atoms: O_4  and  C_13
REMARK    2  A    between atoms: C_7  and  C_13
REMARK    3  A    between atoms: C_8  and  C_12
REMARK    4  A    between atoms: C_11  and  C_14
REMARK                            x       y       z     vdW  Elec       q    Type
REMARK                         _______ _______ _______ _____ _____    ______ ____
ROOT
ATOM      1  S   UNL     1      -3.609   8.914  37.842  0.00  0.00    +0.000 S 
ATOM      2  N   UNL     1      -1.703  10.193  36.703  0.00  0.00    +0.000 N 
ATOM      3  N   UNL     1      -3.622  11.232  36.261  0.00  0.00    +0.000 NA
ATOM      4  C   UNL     1      -1.344  11.262  35.924  0.00  0.00    +0.000 A 
ATOM      5  C   UNL     1      -2.559  11.908  35.676  0.00  0.00    +0.000 A 
ATOM      6  C   UNL     1      -3.049  10.233  36.869  0.00  0.00    +0.000 A 
ATOM      7  C   UNL     1      -1.063   9.141  37.321  0.00  0.00    +0.000 A 
ATOM      8  C   UNL     1      -1.929   8.348  37.981  0.00  0.00    +0.000 A 
ENDROOT
BRANCH   5  11
ATOM      9 CL   UNL     1      -4.214  14.002  31.256  0.00  0.00    +0.000 Cl
ATOM     10 CL   UNL     1      -3.549  16.919  32.532  0.00  0.00    +0.000 Cl
ATOM     11  C   UNL     1      -2.764  13.103  34.870  0.00  0.00    +0.000 A 
ATOM     12  C   UNL     1      -3.264  13.036  33.565  0.00  0.00    +0.000 A 
ATOM     13  C   UNL     1      -2.462  14.364  35.404  0.00  0.00    +0.000 A 
ATOM     14  C   UNL     1      -3.528  14.198  32.830  0.00  0.00    +0.000 A 
ATOM     15  C   UNL     1      -2.704  15.528  34.667  0.00  0.00    +0.000 A 
ATOM     16  C   UNL     1      -3.250  15.447  33.383  0.00  0.00    +0.000 A 
ENDBRANCH   5  11
BRANCH   8  17
ATOM     17  C   UNL     1      -1.600   7.155  38.777  0.00  0.00    +0.000 A 
ATOM     18  C   UNL     1      -2.535   6.632  39.687  0.00  0.00    +0.000 A 
ATOM     19  C   UNL     1      -0.369   6.493  38.646  0.00  0.00    +0.000 A 
ATOM     20  C   UNL     1      -2.254   5.482  40.430  0.00  0.00    +0.000 A 
ATOM     21  C   UNL     1      -0.090   5.338  39.385  0.00  0.00    +0.000 A 
ATOM     22  C   UNL     1      -1.034   4.832  40.274  0.00  0.00    +0.000 A 
ENDBRANCH   8  17
BRANCH   4  23
ATOM     23  C   UNL     1       0.056  11.523  35.528  0.00  0.00    +0.000 C 
BRANCH  23  24
ATOM     24  O   UNL     1       0.097  11.591  34.114  0.00  0.00    +0.000 OA
ATOM     25  H   UNL     1      -0.776  11.322  33.780  0.00  0.00    +0.000 HD
ENDBRANCH  23  24
ENDBRANCH   4  23
TORSDOF 4
ENDMDL
MODEL 10
REMARK VINA RESULT:      -5.6     16.915     18.327
REMARK  Name = 82367708
REMARK  4 active torsions:
REMARK  status: ('A' for Active; 'I' for Inactive)
REMARK    1  A    between atoms: O_4  and  C_13
REMARK    2  A    between atoms: C_7  and  C_13
REMARK    3  A    between atoms: C_8  and  C_12
REMARK    4  A    between atoms: C_11  and  C_14
REMARK                            x       y       z     vdW  Elec       q    Type
REMARK                         _______ _______ _______ _____ _____    ______ ____
ROOT
ATOM      1  S   UNL     1      -4.891  13.118  33.628  0.00  0.00    +0.000 S 
ATOM      2  N   UNL     1      -2.400  12.926  34.195  0.00  0.00    +0.000 N 
ATOM      3  N   UNL     1      -3.550  11.623  35.587  0.00  0.00    +0.000 NA
ATOM      4  C   UNL     1      -1.447  12.357  35.000  0.00  0.00    +0.000 A 
ATOM      5  C   UNL     1      -2.189  11.531  35.849  0.00  0.00    +0.000 A 
ATOM      6  C   UNL     1      -3.611  12.453  34.585  0.00  0.00    +0.000 A 
ATOM      7  C   UNL     1      -2.425  13.818  33.145  0.00  0.00    +0.000 A 
ATOM      8  C   UNL     1      -3.680  14.042  32.710  0.00  0.00    +0.000 A 
ENDROOT
BRANCH   5  11
ATOM      9 CL   UNL     1      -0.397   6.945  37.404  0.00  0.00    +0.000 Cl
ATOM     10 CL   UNL     1       0.114   8.274  40.328  0.00  0.00    +0.000 Cl
ATOM     11  C   UNL     1      -1.674  10.702  36.930  0.00  0.00    +0.000 A 
ATOM     12  C   UNL     1      -1.368   9.349  36.741  0.00  0.00    +0.000 A 
ATOM     13  C   UNL     1      -1.469  11.260  38.199  0.00  0.00    +0.000 A 
ATOM     14  C   UNL     1      -0.803   8.584  37.768  0.00  0.00    +0.000 A 
ATOM     15  C   UNL     1      -0.924  10.495  39.236  0.00  0.00    +0.000 A 
ATOM     16  C   UNL     1      -0.578   9.159  39.018  0.00  0.00    +0.000 A 
ENDBRANCH   5  11
BRANCH   8  17
ATOM     17  C   UNL     1      -4.083  14.907  31.591  0.00  0.00    +0.000 A 
ATOM     18  C   UNL     1      -5.178  14.556  30.784  0.00  0.00    +0.000 A 
ATOM     19  C   UNL     1      -3.413  16.107  31.303  0.00  0.00    +0.000 A 
ATOM     20  C   UNL     1      -5.597  15.380  29.735  0.00  0.00    +0.000 A 
ATOM     21  C   UNL     1      -3.835  16.935  30.258  0.00  0.00    +0.000 A 
ATOM     22  C   UNL     1      -4.928  16.572  29.476  0.00  0.00    +0.000 A 
ENDBRANCH   8  17
BRANCH   4  23
ATOM     23  C   UNL     1      -0.007  12.660  34.864  0.00  0.00    +0.000 C 
BRANCH  23  24
ATOM     24  O   UNL     1       0.447  12.059  33.665  0.00  0.00    +0.000 OA
ATOM     25  H   UNL     1       1.335  11.698  33.833  0.00  0.00    +0.000 HD
ENDBRANCH  23  24
ENDBRANCH   4  23
TORSDOF 4
ENDMDL
