MODEL 1
REMARK VINA RESULT:      -5.6      0.000      0.000
REMARK  Name = 9600409
REMARK  5 active torsions:
REMARK  status: ('A' for Active; 'I' for Inactive)
REMARK    1  A    between atoms: O_5  and  N_8
REMARK    2  A    between atoms: O_5  and  C_21
REMARK    3  A    between atoms: C_9  and  C_14
REMARK    4  A    between atoms: C_10  and  C_12
REMARK    5  A    between atoms: C_20  and  C_21
REMARK                            x       y       z     vdW  Elec       q    Type
REMARK                         _______ _______ _______ _____ _____    ______ ____
ROOT
ATOM      1  S   UNL     1      10.547  13.202  25.543  0.00  0.00    +0.000 S 
ATOM      2  N   UNL     1      12.628  12.868  24.070  0.00  0.00    +0.000 N 
ATOM      3  N   UNL     1      10.939  11.675  23.223  0.00  0.00    +0.000 NA
ATOM      4  C   UNL     1      13.144  12.288  22.939  0.00  0.00    +0.000 A 
ATOM      5  C   UNL     1      12.082  11.516  22.454  0.00  0.00    +0.000 A 
ATOM      6  C   UNL     1      11.326  12.480  24.170  0.00  0.00    +0.000 A 
ATOM      7  C   UNL     1      13.053  13.734  25.057  0.00  0.00    +0.000 A 
ATOM      8  C   UNL     1      12.071  14.017  25.930  0.00  0.00    +0.000 A 
ENDROOT
BRANCH   5  10
ATOM      9 CL   UNL     1      12.208   7.960  17.646  0.00  0.00    +0.000 Cl
ATOM     10  C   UNL     1      12.097  10.635  21.294  0.00  0.00    +0.000 A 
ATOM     11  C   UNL     1      12.832  11.007  20.158  0.00  0.00    +0.000 A 
ATOM     12  C   UNL     1      11.364   9.441  21.260  0.00  0.00    +0.000 A 
ATOM     13  C   UNL     1      12.866  10.183  19.029  0.00  0.00    +0.000 A 
ATOM     14  C   UNL     1      11.405   8.610  20.137  0.00  0.00    +0.000 A 
ATOM     15  C   UNL     1      12.160   8.983  19.027  0.00  0.00    +0.000 A 
ENDBRANCH   5  10
BRANCH   4  17
ATOM     16  N   UNL     1      15.476  11.808  22.806  0.00  0.00    +0.000 NA
ATOM     17  C   UNL     1      14.455  12.494  22.398  0.00  0.00    +0.000 C 
BRANCH  16  18
ATOM     18  O   UNL     1      16.603  12.219  22.070  0.00  0.00    +0.000 OA
BRANCH  18  19
ATOM     19  C   UNL     1      16.509  11.705  20.738  0.00  0.00    +0.000 C 
BRANCH  19  22
ATOM     20 CL   UNL     1      15.412   6.740  19.603  0.00  0.00    +0.000 Cl
ATOM     21 CL   UNL     1      18.341   5.937  20.768  0.00  0.00    +0.000 Cl
ATOM     22  C   UNL     1      16.946  10.260  20.735  0.00  0.00    +0.000 A 
ATOM     23  C   UNL     1      16.105   9.255  20.233  0.00  0.00    +0.000 A 
ATOM     24  C   UNL     1      18.200   9.898  21.245  0.00  0.00    +0.000 A 
ATOM     25  C   UNL     1      16.512   7.915  20.235  0.00  0.00    +0.000 A 
ATOM     26  C   UNL     1      18.610   8.562  21.247  0.00  0.00    +0.000 A 
ATOM     27  C   UNL     1      17.769   7.567  20.741  0.00  0.00    +0.000 A 
ENDBRANCH  19  22
ENDBRANCH  18  19
ENDBRANCH  16  18
ENDBRANCH   4  17
TORSDOF 5
ENDMDL
MODEL 2
REMARK VINA RESULT:      -5.6      5.921      9.378
REMARK  Name = 9600409
REMARK  5 active torsions:
REMARK  status: ('A' for Active; 'I' for Inactive)
REMARK    1  A    between atoms: O_5  and  N_8
REMARK    2  A    between atoms: O_5  and  C_21
REMARK    3  A    between atoms: C_9  and  C_14
REMARK    4  A    between atoms: C_10  and  C_12
REMARK    5  A    between atoms: C_20  and  C_21
REMARK                            x       y       z     vdW  Elec       q    Type
REMARK                         _______ _______ _______ _____ _____    ______ ____
ROOT
ATOM      1  S   UNL     1      12.949  15.046  27.556  0.00  0.00    +0.000 S 
ATOM      2  N   UNL     1      11.485  15.195  25.446  0.00  0.00    +0.000 N 
ATOM      3  N   UNL     1      12.432  13.173  25.532  0.00  0.00    +0.000 NA
ATOM      4  C   UNL     1      10.996  14.535  24.349  0.00  0.00    +0.000 A 
ATOM      5  C   UNL     1      11.636  13.292  24.403  0.00  0.00    +0.000 A 
ATOM      6  C   UNL     1      12.310  14.334  26.107  0.00  0.00    +0.000 A 
ATOM      7  C   UNL     1      11.330  16.428  26.049  0.00  0.00    +0.000 A 
ATOM      8  C   UNL     1      12.043  16.522  27.185  0.00  0.00    +0.000 A 
ENDROOT
BRANCH   5  10
ATOM      9 CL   UNL     1      11.244   8.891  20.371  0.00  0.00    +0.000 Cl
ATOM     10  C   UNL     1      11.528  12.207  23.437  0.00  0.00    +0.000 A 
ATOM     11  C   UNL     1      12.062  12.376  22.150  0.00  0.00    +0.000 A 
ATOM     12  C   UNL     1      10.866  11.008  23.739  0.00  0.00    +0.000 A 
ATOM     13  C   UNL     1      11.974  11.354  21.201  0.00  0.00    +0.000 A 
ATOM     14  C   UNL     1      10.787   9.980  22.794  0.00  0.00    +0.000 A 
ATOM     15  C   UNL     1      11.345  10.156  21.530  0.00  0.00    +0.000 A 
ENDBRANCH   5  10
BRANCH   4  17
ATOM     16  N   UNL     1       8.841  14.510  23.329  0.00  0.00    +0.000 NA
ATOM     17  C   UNL     1      10.024  15.030  23.420  0.00  0.00    +0.000 C 
BRANCH  16  18
ATOM     18  O   UNL     1       8.119  15.227  22.356  0.00  0.00    +0.000 OA
BRANCH  18  19
ATOM     19  C   UNL     1       8.053  16.605  22.739  0.00  0.00    +0.000 C 
BRANCH  19  22
ATOM     20 CL   UNL     1       3.084  15.184  23.398  0.00  0.00    +0.000 Cl
ATOM     21 CL   UNL     1       2.712  17.770  25.335  0.00  0.00    +0.000 Cl
ATOM     22  C   UNL     1       6.711  16.876  23.377  0.00  0.00    +0.000 A 
ATOM     23  C   UNL     1       5.620  16.024  23.148  0.00  0.00    +0.000 A 
ATOM     24  C   UNL     1       6.533  17.993  24.204  0.00  0.00    +0.000 A 
ATOM     25  C   UNL     1       4.376  16.281  23.738  0.00  0.00    +0.000 A 
ATOM     26  C   UNL     1       5.294  18.251  24.796  0.00  0.00    +0.000 A 
ATOM     27  C   UNL     1       4.213  17.395  24.567  0.00  0.00    +0.000 A 
ENDBRANCH  19  22
ENDBRANCH  18  19
ENDBRANCH  16  18
ENDBRANCH   4  17
TORSDOF 5
ENDMDL
MODEL 3
REMARK VINA RESULT:      -5.5      2.084      2.636
REMARK  Name = 9600409
REMARK  5 active torsions:
REMARK  status: ('A' for Active; 'I' for Inactive)
REMARK    1  A    between atoms: O_5  and  N_8
REMARK    2  A    between atoms: O_5  and  C_21
REMARK    3  A    between atoms: C_9  and  C_14
REMARK    4  A    between atoms: C_10  and  C_12
REMARK    5  A    between atoms: C_20  and  C_21
REMARK                            x       y       z     vdW  Elec       q    Type
REMARK                         _______ _______ _______ _____ _____    ______ ____
ROOT
ATOM      1  S   UNL     1      11.493  16.197  21.946  0.00  0.00    +0.000 S 
ATOM      2  N   UNL     1      13.236  14.309  22.062  0.00  0.00    +0.000 N 
ATOM      3  N   UNL     1      11.206  13.410  21.806  0.00  0.00    +0.000 NA
ATOM      4  C   UNL     1      13.460  12.958  21.992  0.00  0.00    +0.000 A 
ATOM      5  C   UNL     1      12.173  12.419  21.876  0.00  0.00    +0.000 A 
ATOM      6  C   UNL     1      11.894  14.508  21.930  0.00  0.00    +0.000 A 
ATOM      7  C   UNL     1      13.984  15.463  22.180  0.00  0.00    +0.000 A 
ATOM      8  C   UNL     1      13.215  16.564  22.140  0.00  0.00    +0.000 A 
ENDROOT
BRANCH   5  10
ATOM      9 CL   UNL     1      10.744   6.618  21.578  0.00  0.00    +0.000 Cl
ATOM     10  C   UNL     1      11.815  11.008  21.825  0.00  0.00    +0.000 A 
ATOM     11  C   UNL     1      12.062  10.278  20.653  0.00  0.00    +0.000 A 
ATOM     12  C   UNL     1      11.191  10.362  22.902  0.00  0.00    +0.000 A 
ATOM     13  C   UNL     1      11.729   8.922  20.573  0.00  0.00    +0.000 A 
ATOM     14  C   UNL     1      10.869   9.003  22.829  0.00  0.00    +0.000 A 
ATOM     15  C   UNL     1      11.143   8.288  21.666  0.00  0.00    +0.000 A 
ENDBRANCH   5  10
BRANCH   4  17
ATOM     16  N   UNL     1      15.575  12.443  21.021  0.00  0.00    +0.000 NA
ATOM     17  C   UNL     1      14.734  12.304  21.996  0.00  0.00    +0.000 C 
BRANCH  16  18
ATOM     18  O   UNL     1      16.734  11.707  21.331  0.00  0.00    +0.000 OA
BRANCH  18  19
ATOM     19  C   UNL     1      16.374  10.574  22.128  0.00  0.00    +0.000 C 
BRANCH  19  22
ATOM     20 CL   UNL     1      19.267   6.365  21.100  0.00  0.00    +0.000 Cl
ATOM     21 CL   UNL     1      17.089   5.554  18.825  0.00  0.00    +0.000 Cl
ATOM     22  C   UNL     1      16.572   9.317  21.316  0.00  0.00    +0.000 A 
ATOM     23  C   UNL     1      17.684   8.489  21.531  0.00  0.00    +0.000 A 
ATOM     24  C   UNL     1      15.648   8.961  20.324  0.00  0.00    +0.000 A 
ATOM     25  C   UNL     1      17.867   7.325  20.774  0.00  0.00    +0.000 A 
ATOM     26  C   UNL     1      15.826   7.800  19.568  0.00  0.00    +0.000 A 
ATOM     27  C   UNL     1      16.934   6.977  19.792  0.00  0.00    +0.000 A 
ENDBRANCH  19  22
ENDBRANCH  18  19
ENDBRANCH  16  18
ENDBRANCH   4  17
TORSDOF 5
ENDMDL
MODEL 4
REMARK VINA RESULT:      -5.5     17.319     19.565
REMARK  Name = 9600409
REMARK  5 active torsions:
REMARK  status: ('A' for Active; 'I' for Inactive)
REMARK    1  A    between atoms: O_5  and  N_8
REMARK    2  A    between atoms: O_5  and  C_21
REMARK    3  A    between atoms: C_9  and  C_14
REMARK    4  A    between atoms: C_10  and  C_12
REMARK    5  A    between atoms: C_20  and  C_21
REMARK                            x       y       z     vdW  Elec       q    Type
REMARK                         _______ _______ _______ _____ _____    ______ ____
ROOT
ATOM      1  S   UNL     1      10.950  11.425   3.224  0.00  0.00    +0.000 S 
ATOM      2  N   UNL     1      10.619   8.882   3.036  0.00  0.00    +0.000 N 
ATOM      3  N   UNL     1      10.398   9.488   5.176  0.00  0.00    +0.000 NA
ATOM      4  C   UNL     1      10.319   7.719   3.698  0.00  0.00    +0.000 A 
ATOM      5  C   UNL     1      10.229   8.119   5.036  0.00  0.00    +0.000 A 
ATOM      6  C   UNL     1      10.635   9.884   3.959  0.00  0.00    +0.000 A 
ATOM      7  C   UNL     1      10.853   9.285   1.737  0.00  0.00    +0.000 A 
ATOM      8  C   UNL     1      11.052  10.612   1.654  0.00  0.00    +0.000 A 
ENDROOT
BRANCH   5  10
ATOM      9 CL   UNL     1       9.165   4.672   9.809  0.00  0.00    +0.000 Cl
ATOM     10  C   UNL     1       9.987   7.264   6.191  0.00  0.00    +0.000 A 
ATOM     11  C   UNL     1       9.037   7.653   7.147  0.00  0.00    +0.000 A 
ATOM     12  C   UNL     1      10.708   6.080   6.401  0.00  0.00    +0.000 A 
ATOM     13  C   UNL     1       8.783   6.856   8.267  0.00  0.00    +0.000 A 
ATOM     14  C   UNL     1      10.447   5.274   7.514  0.00  0.00    +0.000 A 
ATOM     15  C   UNL     1       9.482   5.664   8.440  0.00  0.00    +0.000 A 
ENDBRANCH   5  10
BRANCH   4  17
ATOM     16  N   UNL     1      11.085   5.591   2.944  0.00  0.00    +0.000 NA
ATOM     17  C   UNL     1      10.112   6.431   3.106  0.00  0.00    +0.000 C 
BRANCH  16  18
ATOM     18  O   UNL     1      10.561   4.417   2.369  0.00  0.00    +0.000 OA
BRANCH  18  19
ATOM     19  C   UNL     1      11.540   3.377   2.446  0.00  0.00    +0.000 C 
BRANCH  19  22
ATOM     20 CL   UNL     1      12.727   4.214  -2.556  0.00  0.00    +0.000 Cl
ATOM     21 CL   UNL     1      15.858   4.340  -1.684  0.00  0.00    +0.000 Cl
ATOM     22  C   UNL     1      12.600   3.618   1.399  0.00  0.00    +0.000 A 
ATOM     23  C   UNL     1      12.254   3.794   0.051  0.00  0.00    +0.000 A 
ATOM     24  C   UNL     1      13.955   3.663   1.760  0.00  0.00    +0.000 A 
ATOM     25  C   UNL     1      13.241   4.014  -0.918  0.00  0.00    +0.000 A 
ATOM     26  C   UNL     1      14.941   3.885   0.795  0.00  0.00    +0.000 A 
ATOM     27  C   UNL     1      14.588   4.063  -0.545  0.00  0.00    +0.000 A 
ENDBRANCH  19  22
ENDBRANCH  18  19
ENDBRANCH  16  18
ENDBRANCH   4  17
TORSDOF 5
ENDMDL
MODEL 5
REMARK VINA RESULT:      -5.4     29.286     30.536
REMARK  Name = 9600409
REMARK  5 active torsions:
REMARK  status: ('A' for Active; 'I' for Inactive)
REMARK    1  A    between atoms: O_5  and  N_8
REMARK    2  A    between atoms: O_5  and  C_21
REMARK    3  A    between atoms: C_9  and  C_14
REMARK    4  A    between atoms: C_10  and  C_12
REMARK    5  A    between atoms: C_20  and  C_21
REMARK                            x       y       z     vdW  Elec       q    Type
REMARK                         _______ _______ _______ _____ _____    ______ ____
ROOT
ATOM      1  S   UNL     1     -11.854  -7.917  16.537  0.00  0.00    +0.000 S 
ATOM      2  N   UNL     1      -9.929  -8.982  15.204  0.00  0.00    +0.000 N 
ATOM      3  N   UNL     1      -9.482  -9.149  17.388  0.00  0.00    +0.000 NA
ATOM      4  C   UNL     1      -8.738  -9.659  15.264  0.00  0.00    +0.000 A 
ATOM      5  C   UNL     1      -8.462  -9.712  16.635  0.00  0.00    +0.000 A 
ATOM      6  C   UNL     1     -10.319  -8.726  16.485  0.00  0.00    +0.000 A 
ATOM      7  C   UNL     1     -10.812  -8.554  14.233  0.00  0.00    +0.000 A 
ATOM      8  C   UNL     1     -11.894  -7.961  14.768  0.00  0.00    +0.000 A 
ENDROOT
BRANCH   5  10
ATOM      9 CL   UNL     1      -3.650 -12.072  19.293  0.00  0.00    +0.000 Cl
ATOM     10  C   UNL     1      -7.276 -10.273  17.268  0.00  0.00    +0.000 A 
ATOM     11  C   UNL     1      -7.426 -11.172  18.334  0.00  0.00    +0.000 A 
ATOM     12  C   UNL     1      -5.981  -9.909  16.872  0.00  0.00    +0.000 A 
ATOM     13  C   UNL     1      -6.307 -11.728  18.963  0.00  0.00    +0.000 A 
ATOM     14  C   UNL     1      -4.860 -10.472  17.492  0.00  0.00    +0.000 A 
ATOM     15  C   UNL     1      -5.029 -11.382  18.532  0.00  0.00    +0.000 A 
ENDBRANCH   5  10
BRANCH   4  17
ATOM     16  N   UNL     1      -7.350  -9.449  13.338  0.00  0.00    +0.000 NA
ATOM     17  C   UNL     1      -8.011 -10.204  14.157  0.00  0.00    +0.000 C 
BRANCH  16  18
ATOM     18  O   UNL     1      -6.726 -10.275  12.384  0.00  0.00    +0.000 OA
BRANCH  18  19
ATOM     19  C   UNL     1      -5.355  -9.888  12.249  0.00  0.00    +0.000 C 
BRANCH  19  22
ATOM     20 CL   UNL     1      -4.401 -13.660  15.712  0.00  0.00    +0.000 Cl
ATOM     21 CL   UNL     1      -1.764 -14.442  13.977  0.00  0.00    +0.000 Cl
ATOM     22  C   UNL     1      -4.474 -11.028  12.699  0.00  0.00    +0.000 A 
ATOM     23  C   UNL     1      -4.778 -11.760  13.856  0.00  0.00    +0.000 A 
ATOM     24  C   UNL     1      -3.327 -11.368  11.967  0.00  0.00    +0.000 A 
ATOM     25  C   UNL     1      -3.956 -12.815  14.272  0.00  0.00    +0.000 A 
ATOM     26  C   UNL     1      -2.506 -12.421  12.378  0.00  0.00    +0.000 A 
ATOM     27  C   UNL     1      -2.819 -13.149  13.530  0.00  0.00    +0.000 A 
ENDBRANCH  19  22
ENDBRANCH  18  19
ENDBRANCH  16  18
ENDBRANCH   4  17
TORSDOF 5
ENDMDL
MODEL 6
REMARK VINA RESULT:      -5.4     11.808     15.515
REMARK  Name = 9600409
REMARK  5 active torsions:
REMARK  status: ('A' for Active; 'I' for Inactive)
REMARK    1  A    between atoms: O_5  and  N_8
REMARK    2  A    between atoms: O_5  and  C_21
REMARK    3  A    between atoms: C_9  and  C_14
REMARK    4  A    between atoms: C_10  and  C_12
REMARK    5  A    between atoms: C_20  and  C_21
REMARK                            x       y       z     vdW  Elec       q    Type
REMARK                         _______ _______ _______ _____ _____    ______ ____
ROOT
ATOM      1  S   UNL     1       8.044  16.804  23.334  0.00  0.00    +0.000 S 
ATOM      2  N   UNL     1       5.496  16.537  23.561  0.00  0.00    +0.000 N 
ATOM      3  N   UNL     1       6.138  18.361  24.680  0.00  0.00    +0.000 NA
ATOM      4  C   UNL     1       4.333  17.070  24.053  0.00  0.00    +0.000 A 
ATOM      5  C   UNL     1       4.767  18.182  24.783  0.00  0.00    +0.000 A 
ATOM      6  C   UNL     1       6.516  17.351  23.952  0.00  0.00    +0.000 A 
ATOM      7  C   UNL     1       5.876  15.468  22.774  0.00  0.00    +0.000 A 
ATOM      8  C   UNL     1       7.202  15.455  22.555  0.00  0.00    +0.000 A 
ENDROOT
BRANCH   5  10
ATOM      9 CL   UNL     1       1.422  21.977  27.976  0.00  0.00    +0.000 Cl
ATOM     10  C   UNL     1       3.943  19.088  25.573  0.00  0.00    +0.000 A 
ATOM     11  C   UNL     1       4.075  20.473  25.391  0.00  0.00    +0.000 A 
ATOM     12  C   UNL     1       3.047  18.619  26.544  0.00  0.00    +0.000 A 
ATOM     13  C   UNL     1       3.299  21.367  26.134  0.00  0.00    +0.000 A 
ATOM     14  C   UNL     1       2.261  19.511  27.280  0.00  0.00    +0.000 A 
ATOM     15  C   UNL     1       2.388  20.882  27.068  0.00  0.00    +0.000 A 
ENDBRANCH   5  10
BRANCH   4  17
ATOM     16  N   UNL     1       2.602  15.443  24.261  0.00  0.00    +0.000 NA
ATOM     17  C   UNL     1       3.005  16.589  23.811  0.00  0.00    +0.000 C 
BRANCH  16  18
ATOM     18  O   UNL     1       1.256  15.271  23.884  0.00  0.00    +0.000 OA
BRANCH  18  19
ATOM     19  C   UNL     1       1.203  14.711  22.569  0.00  0.00    +0.000 C 
BRANCH  19  22
ATOM     20 CL   UNL     1      -1.885  18.862  21.958  0.00  0.00    +0.000 Cl
ATOM     21 CL   UNL     1      -3.184  17.383  19.369  0.00  0.00    +0.000 Cl
ATOM     22  C   UNL     1       0.110  15.397  21.785  0.00  0.00    +0.000 A 
ATOM     23  C   UNL     1      -0.353  16.668  22.156  0.00  0.00    +0.000 A 
ATOM     24  C   UNL     1      -0.467  14.765  20.674  0.00  0.00    +0.000 A 
ATOM     25  C   UNL     1      -1.370  17.299  21.428  0.00  0.00    +0.000 A 
ATOM     26  C   UNL     1      -1.480  15.394  19.945  0.00  0.00    +0.000 A 
ATOM     27  C   UNL     1      -1.933  16.662  20.318  0.00  0.00    +0.000 A 
ENDBRANCH  19  22
ENDBRANCH  18  19
ENDBRANCH  16  18
ENDBRANCH   4  17
TORSDOF 5
ENDMDL
MODEL 7
REMARK VINA RESULT:      -5.3     28.170     31.038
REMARK  Name = 9600409
REMARK  5 active torsions:
REMARK  status: ('A' for Active; 'I' for Inactive)
REMARK    1  A    between atoms: O_5  and  N_8
REMARK    2  A    between atoms: O_5  and  C_21
REMARK    3  A    between atoms: C_9  and  C_14
REMARK    4  A    between atoms: C_10  and  C_12
REMARK    5  A    between atoms: C_20  and  C_21
REMARK                            x       y       z     vdW  Elec       q    Type
REMARK                         _______ _______ _______ _____ _____    ______ ____
ROOT
ATOM      1  S   UNL     1      -8.585 -13.264  10.926  0.00  0.00    +0.000 S 
ATOM      2  N   UNL     1      -7.394 -11.833  12.699  0.00  0.00    +0.000 N 
ATOM      3  N   UNL     1      -6.098 -11.967  10.883  0.00  0.00    +0.000 NA
ATOM      4  C   UNL     1      -6.296 -11.067  12.998  0.00  0.00    +0.000 A 
ATOM      5  C   UNL     1      -5.485 -11.203  11.865  0.00  0.00    +0.000 A 
ATOM      6  C   UNL     1      -7.222 -12.319  11.438  0.00  0.00    +0.000 A 
ATOM      7  C   UNL     1      -8.587 -12.183  13.299  0.00  0.00    +0.000 A 
ATOM      8  C   UNL     1      -9.344 -12.949  12.494  0.00  0.00    +0.000 A 
ENDROOT
BRANCH   5  10
ATOM      9 CL   UNL     1      -0.064  -8.835  10.980  0.00  0.00    +0.000 Cl
ATOM     10  C   UNL     1      -4.156 -10.641  11.666  0.00  0.00    +0.000 A 
ATOM     11  C   UNL     1      -3.961  -9.670  10.672  0.00  0.00    +0.000 A 
ATOM     12  C   UNL     1      -3.050 -11.072  12.412  0.00  0.00    +0.000 A 
ATOM     13  C   UNL     1      -2.698  -9.112  10.457  0.00  0.00    +0.000 A 
ATOM     14  C   UNL     1      -1.787 -10.507  12.206  0.00  0.00    +0.000 A 
ATOM     15  C   UNL     1      -1.618  -9.526  11.232  0.00  0.00    +0.000 A 
ENDBRANCH   5  10
BRANCH   4  17
ATOM     16  N   UNL     1      -5.377 -10.730  15.171  0.00  0.00    +0.000 NA
ATOM     17  C   UNL     1      -6.095 -10.292  14.186  0.00  0.00    +0.000 C 
BRANCH  16  18
ATOM     18  O   UNL     1      -5.347  -9.736  16.169  0.00  0.00    +0.000 OA
BRANCH  18  19
ATOM     19  C   UNL     1      -5.004 -10.336  17.422  0.00  0.00    +0.000 C 
BRANCH  19  22
ATOM     20 CL   UNL     1     -10.097  -9.647  18.269  0.00  0.00    +0.000 Cl
ATOM     21 CL   UNL     1     -10.015 -12.239  20.231  0.00  0.00    +0.000 Cl
ATOM     22  C   UNL     1      -6.266 -10.793  18.112  0.00  0.00    +0.000 A 
ATOM     23  C   UNL     1      -7.479 -10.117  17.916  0.00  0.00    +0.000 A 
ATOM     24  C   UNL     1      -6.243 -11.902  18.970  0.00  0.00    +0.000 A 
ATOM     25  C   UNL     1      -8.647 -10.541  18.561  0.00  0.00    +0.000 A 
ATOM     26  C   UNL     1      -7.407 -12.329  19.613  0.00  0.00    +0.000 A 
ATOM     27  C   UNL     1      -8.613 -11.653  19.409  0.00  0.00    +0.000 A 
ENDBRANCH  19  22
ENDBRANCH  18  19
ENDBRANCH  16  18
ENDBRANCH   4  17
TORSDOF 5
ENDMDL
MODEL 8
REMARK VINA RESULT:      -5.2      7.880      9.808
REMARK  Name = 9600409
REMARK  5 active torsions:
REMARK  status: ('A' for Active; 'I' for Inactive)
REMARK    1  A    between atoms: O_5  and  N_8
REMARK    2  A    between atoms: O_5  and  C_21
REMARK    3  A    between atoms: C_9  and  C_14
REMARK    4  A    between atoms: C_10  and  C_12
REMARK    5  A    between atoms: C_20  and  C_21
REMARK                            x       y       z     vdW  Elec       q    Type
REMARK                         _______ _______ _______ _____ _____    ______ ____
ROOT
ATOM      1  S   UNL     1       5.924  20.435  25.507  0.00  0.00    +0.000 S 
ATOM      2  N   UNL     1       6.369  18.182  24.352  0.00  0.00    +0.000 N 
ATOM      3  N   UNL     1       4.203  18.690  24.145  0.00  0.00    +0.000 NA
ATOM      4  C   UNL     1       5.840  17.155  23.612  0.00  0.00    +0.000 A 
ATOM      5  C   UNL     1       4.480  17.476  23.535  0.00  0.00    +0.000 A 
ATOM      6  C   UNL     1       5.358  19.056  24.618  0.00  0.00    +0.000 A 
ATOM      7  C   UNL     1       7.606  18.561  24.833  0.00  0.00    +0.000 A 
ATOM      8  C   UNL     1       7.552  19.739  25.478  0.00  0.00    +0.000 A 
ENDROOT
BRANCH   5  10
ATOM      9 CL   UNL     1       0.140  14.197  21.044  0.00  0.00    +0.000 Cl
ATOM     10  C   UNL     1       3.428  16.687  22.907  0.00  0.00    +0.000 A 
ATOM     11  C   UNL     1       2.722  15.748  23.674  0.00  0.00    +0.000 A 
ATOM     12  C   UNL     1       3.125  16.807  21.543  0.00  0.00    +0.000 A 
ATOM     13  C   UNL     1       1.708  14.976  23.100  0.00  0.00    +0.000 A 
ATOM     14  C   UNL     1       2.103  16.044  20.970  0.00  0.00    +0.000 A 
ATOM     15  C   UNL     1       1.396  15.135  21.752  0.00  0.00    +0.000 A 
ENDBRANCH   5  10
BRANCH   4  17
ATOM     16  N   UNL     1       6.839  16.013  21.773  0.00  0.00    +0.000 NA
ATOM     17  C   UNL     1       6.562  16.059  23.038  0.00  0.00    +0.000 C 
BRANCH  16  18
ATOM     18  O   UNL     1       7.573  14.837  21.526  0.00  0.00    +0.000 OA
BRANCH  18  19
ATOM     19  C   UNL     1       8.941  15.178  21.282  0.00  0.00    +0.000 C 
BRANCH  19  22
ATOM     20 CL   UNL     1      10.441  13.748  26.061  0.00  0.00    +0.000 Cl
ATOM     21 CL   UNL     1      12.531  11.679  24.672  0.00  0.00    +0.000 Cl
ATOM     22  C   UNL     1       9.827  14.314  22.147  0.00  0.00    +0.000 A 
ATOM     23  C   UNL     1       9.759  14.389  23.547  0.00  0.00    +0.000 A 
ATOM     24  C   UNL     1      10.741  13.427  21.562  0.00  0.00    +0.000 A 
ATOM     25  C   UNL     1      10.585  13.589  24.346  0.00  0.00    +0.000 A 
ATOM     26  C   UNL     1      11.564  12.626  22.357  0.00  0.00    +0.000 A 
ATOM     27  C   UNL     1      11.488  12.702  23.750  0.00  0.00    +0.000 A 
ENDBRANCH  19  22
ENDBRANCH  18  19
ENDBRANCH  16  18
ENDBRANCH   4  17
TORSDOF 5
ENDMDL
MODEL 9
REMARK VINA RESULT:      -5.1     22.391     25.483
REMARK  Name = 9600409
REMARK  5 active torsions:
REMARK  status: ('A' for Active; 'I' for Inactive)
REMARK    1  A    between atoms: O_5  and  N_8
REMARK    2  A    between atoms: O_5  and  C_21
REMARK    3  A    between atoms: C_9  and  C_14
REMARK    4  A    between atoms: C_10  and  C_12
REMARK    5  A    between atoms: C_20  and  C_21
REMARK                            x       y       z     vdW  Elec       q    Type
REMARK                         _______ _______ _______ _____ _____    ______ ____
ROOT
ATOM      1  S   UNL     1      -0.674  13.820  36.605  0.00  0.00    +0.000 S 
ATOM      2  N   UNL     1      -2.462  12.013  36.216  0.00  0.00    +0.000 N 
ATOM      3  N   UNL     1      -0.978  11.258  37.707  0.00  0.00    +0.000 NA
ATOM      4  C   UNL     1      -2.926  10.772  36.571  0.00  0.00    +0.000 A 
ATOM      5  C   UNL     1      -1.959  10.307  37.469  0.00  0.00    +0.000 A 
ATOM      6  C   UNL     1      -1.325  12.243  36.931  0.00  0.00    +0.000 A 
ATOM      7  C   UNL     1      -2.855  13.053  35.398  0.00  0.00    +0.000 A 
ATOM      8  C   UNL     1      -2.012  14.098  35.480  0.00  0.00    +0.000 A 
ENDROOT
BRANCH   5  10
ATOM      9 CL   UNL     1      -1.722   4.925  40.069  0.00  0.00    +0.000 Cl
ATOM     10  C   UNL     1      -1.919   9.002  38.116  0.00  0.00    +0.000 A 
ATOM     11  C   UNL     1      -1.018   8.032  37.654  0.00  0.00    +0.000 A 
ATOM     12  C   UNL     1      -2.788   8.668  39.165  0.00  0.00    +0.000 A 
ATOM     13  C   UNL     1      -0.956   6.771  38.254  0.00  0.00    +0.000 A 
ATOM     14  C   UNL     1      -2.721   7.412  39.775  0.00  0.00    +0.000 A 
ATOM     15  C   UNL     1      -1.801   6.470  39.319  0.00  0.00    +0.000 A 
ENDBRANCH   5  10
BRANCH   4  17
ATOM     16  N   UNL     1      -5.282  10.426  36.692  0.00  0.00    +0.000 NA
ATOM     17  C   UNL     1      -4.145  10.160  36.132  0.00  0.00    +0.000 C 
BRANCH  16  18
ATOM     18  O   UNL     1      -6.283   9.696  36.024  0.00  0.00    +0.000 OA
BRANCH  18  19
ATOM     19  C   UNL     1      -6.993   8.892  36.971  0.00  0.00    +0.000 C 
BRANCH  19  22
ATOM     20 CL   UNL     1     -10.812  10.596  33.866  0.00  0.00    +0.000 Cl
ATOM     21 CL   UNL     1     -12.871   8.719  35.543  0.00  0.00    +0.000 Cl
ATOM     22  C   UNL     1      -8.455   8.864  36.597  0.00  0.00    +0.000 A 
ATOM     23  C   UNL     1      -8.940   9.636  35.531  0.00  0.00    +0.000 A 
ATOM     24  C   UNL     1      -9.356   8.069  37.320  0.00  0.00    +0.000 A 
ATOM     25  C   UNL     1     -10.298   9.610  35.189  0.00  0.00    +0.000 A 
ATOM     26  C   UNL     1     -10.711   8.040  36.980  0.00  0.00    +0.000 A 
ATOM     27  C   UNL     1     -11.186   8.808  35.913  0.00  0.00    +0.000 A 
ENDBRANCH  19  22
ENDBRANCH  18  19
ENDBRANCH  16  18
ENDBRANCH   4  17
TORSDOF 5
ENDMDL
MODEL 10
REMARK VINA RESULT:      -5.0     16.040     17.690
REMARK  Name = 9600409
REMARK  5 active torsions:
REMARK  status: ('A' for Active; 'I' for Inactive)
REMARK    1  A    between atoms: O_5  and  N_8
REMARK    2  A    between atoms: O_5  and  C_21
REMARK    3  A    between atoms: C_9  and  C_14
REMARK    4  A    between atoms: C_10  and  C_12
REMARK    5  A    between atoms: C_20  and  C_21
REMARK                            x       y       z     vdW  Elec       q    Type
REMARK                         _______ _______ _______ _____ _____    ______ ____
ROOT
ATOM      1  S   UNL     1       8.670   8.451   6.693  0.00  0.00    +0.000 S 
ATOM      2  N   UNL     1      11.158   7.913   6.325  0.00  0.00    +0.000 N 
ATOM      3  N   UNL     1       9.963   7.000   4.671  0.00  0.00    +0.000 NA
ATOM      4  C   UNL     1      12.088   7.325   5.506  0.00  0.00    +0.000 A 
ATOM      5  C   UNL     1      11.313   6.727   4.507  0.00  0.00    +0.000 A 
ATOM      6  C   UNL     1       9.932   7.698   5.769  0.00  0.00    +0.000 A 
ATOM      7  C   UNL     1      11.147   8.665   7.482  0.00  0.00    +0.000 A 
ATOM      8  C   UNL     1       9.901   9.035   7.825  0.00  0.00    +0.000 A 
ENDROOT
BRANCH   5  10
ATOM      9 CL   UNL     1      13.202   3.302  -0.020  0.00  0.00    +0.000 Cl
ATOM     10  C   UNL     1      11.790   5.909   3.399  0.00  0.00    +0.000 A 
ATOM     11  C   UNL     1      11.215   4.648   3.178  0.00  0.00    +0.000 A 
ATOM     12  C   UNL     1      12.838   6.326   2.568  0.00  0.00    +0.000 A 
ATOM     13  C   UNL     1      11.651   3.840   2.124  0.00  0.00    +0.000 A 
ATOM     14  C   UNL     1      13.268   5.525   1.505  0.00  0.00    +0.000 A 
ATOM     15  C   UNL     1      12.670   4.286   1.286  0.00  0.00    +0.000 A 
ENDBRANCH   5  10
BRANCH   4  17
ATOM     16  N   UNL     1      14.164   8.494   5.581  0.00  0.00    +0.000 NA
ATOM     17  C   UNL     1      13.512   7.378   5.659  0.00  0.00    +0.000 C 
BRANCH  16  18
ATOM     18  O   UNL     1      15.528   8.223   5.800  0.00  0.00    +0.000 OA
BRANCH  18  19
ATOM     19  C   UNL     1      16.319   9.204   5.122  0.00  0.00    +0.000 C 
BRANCH  19  22
ATOM     20 CL   UNL     1      20.413   7.524   2.373  0.00  0.00    +0.000 Cl
ATOM     21 CL   UNL     1      22.096   7.400   5.154  0.00  0.00    +0.000 Cl
ATOM     22  C   UNL     1      17.759   8.751   5.106  0.00  0.00    +0.000 A 
ATOM     23  C   UNL     1      18.386   8.386   3.906  0.00  0.00    +0.000 A 
ATOM     24  C   UNL     1      18.493   8.681   6.299  0.00  0.00    +0.000 A 
ATOM     25  C   UNL     1      19.721   7.962   3.896  0.00  0.00    +0.000 A 
ATOM     26  C   UNL     1      19.826   8.262   6.292  0.00  0.00    +0.000 A 
ATOM     27  C   UNL     1      20.444   7.903   5.091  0.00  0.00    +0.000 A 
ENDBRANCH  19  22
ENDBRANCH  18  19
ENDBRANCH  16  18
ENDBRANCH   4  17
TORSDOF 5
ENDMDL
