REMARK  Name = 9600409
REMARK  5 active torsions:
REMARK  status: ('A' for Active; 'I' for Inactive)
REMARK    1  A    between atoms: O_5  and  N_8
REMARK    2  A    between atoms: O_5  and  C_21
REMARK    3  A    between atoms: C_9  and  C_14
REMARK    4  A    between atoms: C_10  and  C_12
REMARK    5  A    between atoms: C_20  and  C_21
REMARK                            x       y       z     vdW  Elec       q    Type
REMARK                         _______ _______ _______ _____ _____    ______ ____
ROOT
ATOM      1  S   UNL     1       0.019  -2.630  -4.610  0.00  0.00    +0.000 S 
ATOM      2  N   UNL     1       2.275  -1.982  -3.559  0.00  0.00    +0.000 N 
ATOM      3  N   UNL     1       0.624  -1.294  -2.219  0.00  0.00    +0.000 NA
ATOM      4  C   UNL     1       2.912  -1.417  -2.484  0.00  0.00    +0.000 A 
ATOM      5  C   UNL     1       1.859  -0.958  -1.685  0.00  0.00    +0.000 A 
ATOM      6  C   UNL     1       0.934  -1.891  -3.333  0.00  0.00    +0.000 A 
ATOM      7  C   UNL     1       2.624  -2.626  -4.729  0.00  0.00    +0.000 A 
ATOM      8  C   UNL     1       1.543  -3.036  -5.415  0.00  0.00    +0.000 A 
ENDROOT
BRANCH   5  10
ATOM      9 CL   UNL     1       2.221   2.035   3.482  0.00  0.00    +0.000 Cl
ATOM     10  C   UNL     1       1.966  -0.217  -0.435  0.00  0.00    +0.000 A 
ATOM     11  C   UNL     1       1.003  -0.414   0.566  0.00  0.00    +0.000 A 
ATOM     12  C   UNL     1       2.983   0.723  -0.215  0.00  0.00    +0.000 A 
ATOM     13  C   UNL     1       1.078   0.282   1.776  0.00  0.00    +0.000 A 
ATOM     14  C   UNL     1       3.067   1.412   0.999  0.00  0.00    +0.000 A 
ATOM     15  C   UNL     1       2.116   1.185   1.991  0.00  0.00    +0.000 A 
ENDBRANCH   5  10
BRANCH   4  17
ATOM     16  N   UNL     1       5.172  -1.332  -3.238  0.00  0.00    +0.000 NA
ATOM     17  C   UNL     1       4.326  -1.373  -2.258  0.00  0.00    +0.000 C 
BRANCH  16  18
ATOM     18  O   UNL     1       6.470  -1.267  -2.696  0.00  0.00    +0.000 OA
BRANCH  18  19
ATOM     19  C   UNL     1       7.344  -0.640  -3.640  0.00  0.00    +0.000 C 
BRANCH  19  22
ATOM     20 CL   UNL     1      11.571   1.927  -2.003  0.00  0.00    +0.000 Cl
ATOM     21 CL   UNL     1      13.010  -0.952  -1.537  0.00  0.00    +0.000 Cl
ATOM     22  C   UNL     1       8.758  -0.694  -3.114  0.00  0.00    +0.000 A 
ATOM     23  C   UNL     1       9.462   0.483  -2.819  0.00  0.00    +0.000 A 
ATOM     24  C   UNL     1       9.395  -1.928  -2.920  0.00  0.00    +0.000 A 
ATOM     25  C   UNL     1      10.775   0.429  -2.335  0.00  0.00    +0.000 A 
ATOM     26  C   UNL     1      10.704  -1.985  -2.435  0.00  0.00    +0.000 A 
ATOM     27  C   UNL     1      11.397  -0.808  -2.139  0.00  0.00    +0.000 A 
ENDBRANCH  19  22
ENDBRANCH  18  19
ENDBRANCH  16  18
ENDBRANCH   4  17
TORSDOF 5
