MODEL 1
REMARK VINA RESULT:      -6.7      0.000      0.000
REMARK  Name = 9607353
REMARK  6 active torsions:
REMARK  status: ('A' for Active; 'I' for Inactive)
REMARK    1  A    between atoms: O_3  and  N_8
REMARK    2  A    between atoms: O_3  and  C_22
REMARK    3  A    between atoms: N_9  and  C_26
REMARK    4  A    between atoms: C_10  and  C_15
REMARK    5  A    between atoms: C_11  and  C_13
REMARK    6  A    between atoms: C_19  and  C_22
REMARK                            x       y       z     vdW  Elec       q    Type
REMARK                         _______ _______ _______ _____ _____    ______ ____
ROOT
ATOM      1  S   UNL     1      11.668  16.690  26.761  0.00  0.00    +0.000 S 
ATOM      2  N   UNL     1      11.228  14.652  25.257  0.00  0.00    +0.000 N 
ATOM      3  N   UNL     1      10.070  16.395  24.473  0.00  0.00    +0.000 NA
ATOM      4  C   UNL     1      10.611  14.179  24.126  0.00  0.00    +0.000 A 
ATOM      5  C   UNL     1       9.864  15.276  23.681  0.00  0.00    +0.000 A 
ATOM      6  C   UNL     1      10.883  15.964  25.393  0.00  0.00    +0.000 A 
ATOM      7  C   UNL     1      12.106  14.181  26.210  0.00  0.00    +0.000 A 
ATOM      8  C   UNL     1      12.448  15.136  27.091  0.00  0.00    +0.000 A 
ENDROOT
BRANCH   5  10
ATOM      9 CL   UNL     1       6.238  15.443  18.923  0.00  0.00    +0.000 Cl
ATOM     10  C   UNL     1       8.967  15.317  22.532  0.00  0.00    +0.000 A 
ATOM     11  C   UNL     1       9.489  15.548  21.253  0.00  0.00    +0.000 A 
ATOM     12  C   UNL     1       7.579  15.165  22.676  0.00  0.00    +0.000 A 
ATOM     13  C   UNL     1       8.648  15.590  20.134  0.00  0.00    +0.000 A 
ATOM     14  C   UNL     1       6.739  15.193  21.559  0.00  0.00    +0.000 A 
ATOM     15  C   UNL     1       7.276  15.402  20.293  0.00  0.00    +0.000 A 
ENDBRANCH   5  10
BRANCH   4  17
ATOM     16  N   UNL     1      10.456  11.797  24.177  0.00  0.00    +0.000 NA
ATOM     17  C   UNL     1      10.783  12.879  23.547  0.00  0.00    +0.000 C 
BRANCH  16  18
ATOM     18  O   UNL     1      10.748  10.694  23.345  0.00  0.00    +0.000 OA
BRANCH  18  19
ATOM     19  C   UNL     1      11.975  10.936  22.651  0.00  0.00    +0.000 C 
BRANCH  19  20
ATOM     20  C   UNL     1      11.989  10.156  21.354  0.00  0.00    +0.000 A 
ATOM     21  C   UNL     1      11.029   9.163  21.109  0.00  0.00    +0.000 A 
ATOM     22  C   UNL     1      12.951  10.432  20.370  0.00  0.00    +0.000 A 
ATOM     23  C   UNL     1      11.985   8.748  18.926  0.00  0.00    +0.000 A 
ATOM     24  C   UNL     1      11.020   8.458  19.899  0.00  0.00    +0.000 A 
ATOM     25  C   UNL     1      12.953   9.733  19.157  0.00  0.00    +0.000 A 
BRANCH  23  28
ATOM     26  O   UNL     1      10.886   7.799  17.115  0.00  0.00    +0.000 OA
ATOM     27  O   UNL     1      13.075   7.666  17.186  0.00  0.00    +0.000 OA
ATOM     28  N   UNL     1      11.982   8.018  17.652  0.00  0.00    +0.000 N 
ENDBRANCH  23  28
ENDBRANCH  19  20
ENDBRANCH  18  19
ENDBRANCH  16  18
ENDBRANCH   4  17
TORSDOF 6
ENDMDL
MODEL 2
REMARK VINA RESULT:      -6.5     28.247     29.728
REMARK  Name = 9607353
REMARK  6 active torsions:
REMARK  status: ('A' for Active; 'I' for Inactive)
REMARK    1  A    between atoms: O_3  and  N_8
REMARK    2  A    between atoms: O_3  and  C_22
REMARK    3  A    between atoms: N_9  and  C_26
REMARK    4  A    between atoms: C_10  and  C_15
REMARK    5  A    between atoms: C_11  and  C_13
REMARK    6  A    between atoms: C_19  and  C_22
REMARK                            x       y       z     vdW  Elec       q    Type
REMARK                         _______ _______ _______ _____ _____    ______ ____
ROOT
ATOM      1  S   UNL     1     -16.877   4.934  24.208  0.00  0.00    +0.000 S 
ATOM      2  N   UNL     1     -16.427   3.281  26.124  0.00  0.00    +0.000 N 
ATOM      3  N   UNL     1     -17.113   5.224  26.989  0.00  0.00    +0.000 NA
ATOM      4  C   UNL     1     -16.476   3.061  27.479  0.00  0.00    +0.000 A 
ATOM      5  C   UNL     1     -16.867   4.302  27.995  0.00  0.00    +0.000 A 
ATOM      6  C   UNL     1     -16.831   4.564  25.904  0.00  0.00    +0.000 A 
ATOM      7  C   UNL     1     -16.144   2.557  24.986  0.00  0.00    +0.000 A 
ATOM      8  C   UNL     1     -16.332   3.284  23.871  0.00  0.00    +0.000 A 
ENDROOT
BRANCH   5  10
ATOM      9 CL   UNL     1     -17.499   5.812  33.751  0.00  0.00    +0.000 Cl
ATOM     10  C   UNL     1     -17.028   4.654  29.401  0.00  0.00    +0.000 A 
ATOM     11  C   UNL     1     -16.418   5.814  29.899  0.00  0.00    +0.000 A 
ATOM     12  C   UNL     1     -17.753   3.841  30.286  0.00  0.00    +0.000 A 
ATOM     13  C   UNL     1     -16.560   6.174  31.244  0.00  0.00    +0.000 A 
ATOM     14  C   UNL     1     -17.907   4.206  31.626  0.00  0.00    +0.000 A 
ATOM     15  C   UNL     1     -17.313   5.372  32.099  0.00  0.00    +0.000 A 
ENDBRANCH   5  10
BRANCH   4  17
ATOM     16  N   UNL     1     -15.193   1.618  28.883  0.00  0.00    +0.000 NA
ATOM     17  C   UNL     1     -16.237   1.814  28.144  0.00  0.00    +0.000 C 
BRANCH  16  18
ATOM     18  O   UNL     1     -15.249   0.301  29.389  0.00  0.00    +0.000 OA
BRANCH  18  19
ATOM     19  C   UNL     1     -14.205   0.118  30.350  0.00  0.00    +0.000 C 
BRANCH  19  20
ATOM     20  C   UNL     1     -14.171   1.297  31.297  0.00  0.00    +0.000 A 
ATOM     21  C   UNL     1     -13.406   2.434  30.994  0.00  0.00    +0.000 A 
ATOM     22  C   UNL     1     -14.922   1.278  32.483  0.00  0.00    +0.000 A 
ATOM     23  C   UNL     1     -14.151   3.505  33.031  0.00  0.00    +0.000 A 
ATOM     24  C   UNL     1     -13.392   3.539  31.854  0.00  0.00    +0.000 A 
ATOM     25  C   UNL     1     -14.916   2.377  33.350  0.00  0.00    +0.000 A 
BRANCH  23  28
ATOM     26  O   UNL     1     -14.267   4.443  35.151  0.00  0.00    +0.000 OA
ATOM     27  O   UNL     1     -14.025   5.787  33.435  0.00  0.00    +0.000 OA
ATOM     28  N   UNL     1     -14.148   4.661  33.936  0.00  0.00    +0.000 N 
ENDBRANCH  23  28
ENDBRANCH  19  20
ENDBRANCH  18  19
ENDBRANCH  16  18
ENDBRANCH   4  17
TORSDOF 6
ENDMDL
MODEL 3
REMARK VINA RESULT:      -6.3      2.197      2.636
REMARK  Name = 9607353
REMARK  6 active torsions:
REMARK  status: ('A' for Active; 'I' for Inactive)
REMARK    1  A    between atoms: O_3  and  N_8
REMARK    2  A    between atoms: O_3  and  C_22
REMARK    3  A    between atoms: N_9  and  C_26
REMARK    4  A    between atoms: C_10  and  C_15
REMARK    5  A    between atoms: C_11  and  C_13
REMARK    6  A    between atoms: C_19  and  C_22
REMARK                            x       y       z     vdW  Elec       q    Type
REMARK                         _______ _______ _______ _____ _____    ______ ____
ROOT
ATOM      1  S   UNL     1      13.011  18.224  23.077  0.00  0.00    +0.000 S 
ATOM      2  N   UNL     1      11.721  16.030  23.440  0.00  0.00    +0.000 N 
ATOM      3  N   UNL     1      10.257  17.685  23.103  0.00  0.00    +0.000 NA
ATOM      4  C   UNL     1      10.492  15.418  23.468  0.00  0.00    +0.000 A 
ATOM      5  C   UNL     1       9.597  16.481  23.295  0.00  0.00    +0.000 A 
ATOM      6  C   UNL     1      11.512  17.356  23.204  0.00  0.00    +0.000 A 
ATOM      7  C   UNL     1      13.045  15.658  23.530  0.00  0.00    +0.000 A 
ATOM      8  C   UNL     1      13.872  16.703  23.359  0.00  0.00    +0.000 A 
ENDROOT
BRANCH   5  10
ATOM      9 CL   UNL     1       3.624  16.117  23.266  0.00  0.00    +0.000 Cl
ATOM     10  C   UNL     1       8.140  16.408  23.295  0.00  0.00    +0.000 A 
ATOM     11  C   UNL     1       7.497  15.393  22.574  0.00  0.00    +0.000 A 
ATOM     12  C   UNL     1       7.355  17.353  23.975  0.00  0.00    +0.000 A 
ATOM     13  C   UNL     1       6.100  15.302  22.561  0.00  0.00    +0.000 A 
ATOM     14  C   UNL     1       5.962  17.255  23.974  0.00  0.00    +0.000 A 
ATOM     15  C   UNL     1       5.339  16.228  23.270  0.00  0.00    +0.000 A 
ENDBRANCH   5  10
BRANCH   4  17
ATOM     16  N   UNL     1      10.553  13.344  24.648  0.00  0.00    +0.000 NA
ATOM     17  C   UNL     1      10.248  14.011  23.582  0.00  0.00    +0.000 C 
BRANCH  16  18
ATOM     18  O   UNL     1      10.192  11.994  24.445  0.00  0.00    +0.000 OA
BRANCH  18  19
ATOM     19  C   UNL     1      11.376  11.197  24.343  0.00  0.00    +0.000 C 
BRANCH  19  20
ATOM     20  C   UNL     1      11.358  10.422  23.045  0.00  0.00    +0.000 A 
ATOM     21  C   UNL     1      10.719   9.175  22.967  0.00  0.00    +0.000 A 
ATOM     22  C   UNL     1      11.963  10.950  21.893  0.00  0.00    +0.000 A 
ATOM     23  C   UNL     1      11.280   9.009  20.620  0.00  0.00    +0.000 A 
ATOM     24  C   UNL     1      10.675   8.466  21.761  0.00  0.00    +0.000 A 
ATOM     25  C   UNL     1      11.926  10.249  20.682  0.00  0.00    +0.000 A 
BRANCH  23  28
ATOM     26  O   UNL     1      12.051   7.356  19.183  0.00  0.00    +0.000 OA
ATOM     27  O   UNL     1      10.384   8.616  18.516  0.00  0.00    +0.000 OA
ATOM     28  N   UNL     1      11.235   8.275  19.348  0.00  0.00    +0.000 N 
ENDBRANCH  23  28
ENDBRANCH  19  20
ENDBRANCH  18  19
ENDBRANCH  16  18
ENDBRANCH   4  17
TORSDOF 6
ENDMDL
MODEL 4
REMARK VINA RESULT:      -6.0     28.435     29.818
REMARK  Name = 9607353
REMARK  6 active torsions:
REMARK  status: ('A' for Active; 'I' for Inactive)
REMARK    1  A    between atoms: O_3  and  N_8
REMARK    2  A    between atoms: O_3  and  C_22
REMARK    3  A    between atoms: N_9  and  C_26
REMARK    4  A    between atoms: C_10  and  C_15
REMARK    5  A    between atoms: C_11  and  C_13
REMARK    6  A    between atoms: C_19  and  C_22
REMARK                            x       y       z     vdW  Elec       q    Type
REMARK                         _______ _______ _______ _____ _____    ______ ____
ROOT
ATOM      1  S   UNL     1     -19.152   9.979  30.555  0.00  0.00    +0.000 S 
ATOM      2  N   UNL     1     -18.069   8.006  31.796  0.00  0.00    +0.000 N 
ATOM      3  N   UNL     1     -18.355   7.444  29.652  0.00  0.00    +0.000 NA
ATOM      4  C   UNL     1     -17.535   6.745  31.693  0.00  0.00    +0.000 A 
ATOM      5  C   UNL     1     -17.764   6.405  30.354  0.00  0.00    +0.000 A 
ATOM      6  C   UNL     1     -18.516   8.364  30.559  0.00  0.00    +0.000 A 
ATOM      7  C   UNL     1     -18.211   8.974  32.768  0.00  0.00    +0.000 A 
ATOM      8  C   UNL     1     -18.770  10.094  32.280  0.00  0.00    +0.000 A 
ENDROOT
BRANCH   5  10
ATOM      9 CL   UNL     1     -16.397   1.249  27.641  0.00  0.00    +0.000 Cl
ATOM     10  C   UNL     1     -17.441   5.140  29.704  0.00  0.00    +0.000 A 
ATOM     11  C   UNL     1     -16.765   5.145  28.476  0.00  0.00    +0.000 A 
ATOM     12  C   UNL     1     -17.821   3.908  30.259  0.00  0.00    +0.000 A 
ATOM     13  C   UNL     1     -16.443   3.943  27.834  0.00  0.00    +0.000 A 
ATOM     14  C   UNL     1     -17.488   2.708  29.627  0.00  0.00    +0.000 A 
ATOM     15  C   UNL     1     -16.797   2.729  28.419  0.00  0.00    +0.000 A 
ENDBRANCH   5  10
BRANCH   4  17
ATOM     16  N   UNL     1     -15.565   6.007  32.822  0.00  0.00    +0.000 NA
ATOM     17  C   UNL     1     -16.856   6.024  32.728  0.00  0.00    +0.000 C 
BRANCH  16  18
ATOM     18  O   UNL     1     -15.212   5.214  33.935  0.00  0.00    +0.000 OA
BRANCH  18  19
ATOM     19  C   UNL     1     -13.950   4.587  33.689  0.00  0.00    +0.000 C 
BRANCH  19  20
ATOM     20  C   UNL     1     -14.150   3.362  32.824  0.00  0.00    +0.000 A 
ATOM     21  C   UNL     1     -13.791   3.381  31.467  0.00  0.00    +0.000 A 
ATOM     22  C   UNL     1     -14.676   2.182  33.373  0.00  0.00    +0.000 A 
ATOM     23  C   UNL     1     -14.471   1.071  31.233  0.00  0.00    +0.000 A 
ATOM     24  C   UNL     1     -13.948   2.241  30.669  0.00  0.00    +0.000 A 
ATOM     25  C   UNL     1     -14.837   1.037  32.584  0.00  0.00    +0.000 A 
BRANCH  23  28
ATOM     26  O   UNL     1     -13.650  -0.530  29.766  0.00  0.00    +0.000 OA
ATOM     27  O   UNL     1     -15.745  -0.680  30.398  0.00  0.00    +0.000 OA
ATOM     28  N   UNL     1     -14.634  -0.132  30.406  0.00  0.00    +0.000 N 
ENDBRANCH  23  28
ENDBRANCH  19  20
ENDBRANCH  18  19
ENDBRANCH  16  18
ENDBRANCH   4  17
TORSDOF 6
ENDMDL
MODEL 5
REMARK VINA RESULT:      -5.7     29.011     31.142
REMARK  Name = 9607353
REMARK  6 active torsions:
REMARK  status: ('A' for Active; 'I' for Inactive)
REMARK    1  A    between atoms: O_3  and  N_8
REMARK    2  A    between atoms: O_3  and  C_22
REMARK    3  A    between atoms: N_9  and  C_26
REMARK    4  A    between atoms: C_10  and  C_15
REMARK    5  A    between atoms: C_11  and  C_13
REMARK    6  A    between atoms: C_19  and  C_22
REMARK                            x       y       z     vdW  Elec       q    Type
REMARK                         _______ _______ _______ _____ _____    ______ ____
ROOT
ATOM      1  S   UNL     1      -9.628 -13.753  20.688  0.00  0.00    +0.000 S 
ATOM      2  N   UNL     1      -9.109 -11.590  19.401  0.00  0.00    +0.000 N 
ATOM      3  N   UNL     1      -7.308 -12.913  19.351  0.00  0.00    +0.000 NA
ATOM      4  C   UNL     1      -8.195 -10.905  18.638  0.00  0.00    +0.000 A 
ATOM      5  C   UNL     1      -7.068 -11.736  18.658  0.00  0.00    +0.000 A 
ATOM      6  C   UNL     1      -8.532 -12.767  19.772  0.00  0.00    +0.000 A 
ATOM      7  C   UNL     1     -10.412 -11.425  19.818  0.00  0.00    +0.000 A 
ATOM      8  C   UNL     1     -10.852 -12.485  20.517  0.00  0.00    +0.000 A 
ENDROOT
BRANCH   5  10
ATOM      9 CL   UNL     1      -1.786 -10.620  16.079  0.00  0.00    +0.000 Cl
ATOM     10  C   UNL     1      -5.773 -11.471  18.044  0.00  0.00    +0.000 A 
ATOM     11  C   UNL     1      -5.709 -11.104  16.692  0.00  0.00    +0.000 A 
ATOM     12  C   UNL     1      -4.575 -11.606  18.762  0.00  0.00    +0.000 A 
ATOM     13  C   UNL     1      -4.477 -10.842  16.081  0.00  0.00    +0.000 A 
ATOM     14  C   UNL     1      -3.346 -11.332  18.157  0.00  0.00    +0.000 A 
ATOM     15  C   UNL     1      -3.301 -10.948  16.820  0.00  0.00    +0.000 A 
ENDBRANCH   5  10
BRANCH   4  17
ATOM     16  N   UNL     1      -9.014  -9.616  16.802  0.00  0.00    +0.000 NA
ATOM     17  C   UNL     1      -8.421  -9.668  17.952  0.00  0.00    +0.000 C 
BRANCH  16  18
ATOM     18  O   UNL     1      -9.079  -8.266  16.397  0.00  0.00    +0.000 OA
BRANCH  18  19
ATOM     19  C   UNL     1     -10.032  -7.573  17.208  0.00  0.00    +0.000 C 
BRANCH  19  20
ATOM     20  C   UNL     1     -11.226  -7.178  16.368  0.00  0.00    +0.000 A 
ATOM     21  C   UNL     1     -12.428  -7.897  16.454  0.00  0.00    +0.000 A 
ATOM     22  C   UNL     1     -11.155  -6.072  15.506  0.00  0.00    +0.000 A 
ATOM     23  C   UNL     1     -13.459  -6.411  14.848  0.00  0.00    +0.000 A 
ATOM     24  C   UNL     1     -13.546  -7.519  15.699  0.00  0.00    +0.000 A 
ATOM     25  C   UNL     1     -12.266  -5.685  14.746  0.00  0.00    +0.000 A 
BRANCH  23  28
ATOM     26  O   UNL     1     -15.747  -6.144  14.566  0.00  0.00    +0.000 OA
ATOM     27  O   UNL     1     -14.423  -5.538  12.925  0.00  0.00    +0.000 OA
ATOM     28  N   UNL     1     -14.626  -6.003  14.056  0.00  0.00    +0.000 N 
ENDBRANCH  23  28
ENDBRANCH  19  20
ENDBRANCH  18  19
ENDBRANCH  16  18
ENDBRANCH   4  17
TORSDOF 6
ENDMDL
MODEL 6
REMARK VINA RESULT:      -5.7     20.131     22.818
REMARK  Name = 9607353
REMARK  6 active torsions:
REMARK  status: ('A' for Active; 'I' for Inactive)
REMARK    1  A    between atoms: O_3  and  N_8
REMARK    2  A    between atoms: O_3  and  C_22
REMARK    3  A    between atoms: N_9  and  C_26
REMARK    4  A    between atoms: C_10  and  C_15
REMARK    5  A    between atoms: C_11  and  C_13
REMARK    6  A    between atoms: C_19  and  C_22
REMARK                            x       y       z     vdW  Elec       q    Type
REMARK                         _______ _______ _______ _____ _____    ______ ____
ROOT
ATOM      1  S   UNL     1     -13.694  14.495  14.882  0.00  0.00    +0.000 S 
ATOM      2  N   UNL     1     -12.181  12.887  16.198  0.00  0.00    +0.000 N 
ATOM      3  N   UNL     1     -11.005  14.708  15.654  0.00  0.00    +0.000 NA
ATOM      4  C   UNL     1     -10.946  12.685  16.764  0.00  0.00    +0.000 A 
ATOM      5  C   UNL     1     -10.222  13.818  16.374  0.00  0.00    +0.000 A 
ATOM      6  C   UNL     1     -12.153  14.100  15.578  0.00  0.00    +0.000 A 
ATOM      7  C   UNL     1     -13.395  12.236  16.147  0.00  0.00    +0.000 A 
ATOM      8  C   UNL     1     -14.319  12.952  15.484  0.00  0.00    +0.000 A 
ENDROOT
BRANCH   5  10
ATOM      9 CL   UNL     1      -4.490  15.028  17.596  0.00  0.00    +0.000 Cl
ATOM     10  C   UNL     1      -8.820  14.103  16.659  0.00  0.00    +0.000 A 
ATOM     11  C   UNL     1      -8.489  15.149  17.530  0.00  0.00    +0.000 A 
ATOM     12  C   UNL     1      -7.783  13.375  16.055  0.00  0.00    +0.000 A 
ATOM     13  C   UNL     1      -7.150  15.440  17.820  0.00  0.00    +0.000 A 
ATOM     14  C   UNL     1      -6.448  13.654  16.354  0.00  0.00    +0.000 A 
ATOM     15  C   UNL     1      -6.136  14.683  17.237  0.00  0.00    +0.000 A 
ENDBRANCH   5  10
BRANCH   4  17
ATOM     16  N   UNL     1     -10.355  10.401  17.130  0.00  0.00    +0.000 NA
ATOM     17  C   UNL     1     -10.567  11.587  17.603  0.00  0.00    +0.000 C 
BRANCH  16  18
ATOM     18  O   UNL     1     -10.004   9.552  18.201  0.00  0.00    +0.000 OA
BRANCH  18  19
ATOM     19  C   UNL     1     -10.511  10.097  19.423  0.00  0.00    +0.000 C 
BRANCH  19  20
ATOM     20  C   UNL     1     -11.432   9.096  20.084  0.00  0.00    +0.000 A 
ATOM     21  C   UNL     1     -11.173   7.720  19.993  0.00  0.00    +0.000 A 
ATOM     22  C   UNL     1     -12.546   9.532  20.818  0.00  0.00    +0.000 A 
ATOM     23  C   UNL     1     -13.112   7.243  21.358  0.00  0.00    +0.000 A 
ATOM     24  C   UNL     1     -12.007   6.790  20.626  0.00  0.00    +0.000 A 
ATOM     25  C   UNL     1     -13.387   8.612  21.456  0.00  0.00    +0.000 A 
BRANCH  23  28
ATOM     26  O   UNL     1     -13.848   5.077  21.754  0.00  0.00    +0.000 OA
ATOM     27  O   UNL     1     -14.819   6.716  22.840  0.00  0.00    +0.000 OA
ATOM     28  N   UNL     1     -13.990   6.277  22.031  0.00  0.00    +0.000 N 
ENDBRANCH  23  28
ENDBRANCH  19  20
ENDBRANCH  18  19
ENDBRANCH  16  18
ENDBRANCH   4  17
TORSDOF 6
ENDMDL
MODEL 7
REMARK VINA RESULT:      -5.4     28.715     30.889
REMARK  Name = 9607353
REMARK  6 active torsions:
REMARK  status: ('A' for Active; 'I' for Inactive)
REMARK    1  A    between atoms: O_3  and  N_8
REMARK    2  A    between atoms: O_3  and  C_22
REMARK    3  A    between atoms: N_9  and  C_26
REMARK    4  A    between atoms: C_10  and  C_15
REMARK    5  A    between atoms: C_11  and  C_13
REMARK    6  A    between atoms: C_19  and  C_22
REMARK                            x       y       z     vdW  Elec       q    Type
REMARK                         _______ _______ _______ _____ _____    ______ ____
ROOT
ATOM      1  S   UNL     1     -10.055  -8.241  17.484  0.00  0.00    +0.000 S 
ATOM      2  N   UNL     1      -9.072 -10.567  17.003  0.00  0.00    +0.000 N 
ATOM      3  N   UNL     1      -7.438  -9.047  16.867  0.00  0.00    +0.000 NA
ATOM      4  C   UNL     1      -7.939 -11.297  16.741  0.00  0.00    +0.000 A 
ATOM      5  C   UNL     1      -6.943 -10.319  16.621  0.00  0.00    +0.000 A 
ATOM      6  C   UNL     1      -8.705  -9.257  17.083  0.00  0.00    +0.000 A 
ATOM      7  C   UNL     1     -10.406 -10.813  17.249  0.00  0.00    +0.000 A 
ATOM      8  C   UNL     1     -11.080  -9.684  17.526  0.00  0.00    +0.000 A 
ENDROOT
BRANCH   5  10
ATOM      9 CL   UNL     1      -1.170 -11.225  15.333  0.00  0.00    +0.000 Cl
ATOM     10  C   UNL     1      -5.540 -10.534  16.291  0.00  0.00    +0.000 A 
ATOM     11  C   UNL     1      -4.622 -10.813  17.313  0.00  0.00    +0.000 A 
ATOM     12  C   UNL     1      -5.069 -10.435  14.972  0.00  0.00    +0.000 A 
ATOM     13  C   UNL     1      -3.270 -11.025  17.020  0.00  0.00    +0.000 A 
ATOM     14  C   UNL     1      -3.722 -10.660  14.677  0.00  0.00    +0.000 A 
ATOM     15  C   UNL     1      -2.828 -10.957  15.701  0.00  0.00    +0.000 A 
ENDBRANCH   5  10
BRANCH   4  17
ATOM     16  N   UNL     1      -7.112 -13.402  17.506  0.00  0.00    +0.000 NA
ATOM     17  C   UNL     1      -7.845 -12.726  16.681  0.00  0.00    +0.000 C 
BRANCH  16  18
ATOM     18  O   UNL     1      -7.232 -14.771  17.186  0.00  0.00    +0.000 OA
BRANCH  18  19
ATOM     19  C   UNL     1      -7.066 -14.945  15.776  0.00  0.00    +0.000 C 
BRANCH  19  20
ATOM     20  C   UNL     1      -5.606 -15.186  15.461  0.00  0.00    +0.000 A 
ATOM     21  C   UNL     1      -4.988 -16.393  15.820  0.00  0.00    +0.000 A 
ATOM     22  C   UNL     1      -4.855 -14.212  14.783  0.00  0.00    +0.000 A 
ATOM     23  C   UNL     1      -2.912 -15.653  14.826  0.00  0.00    +0.000 A 
ATOM     24  C   UNL     1      -3.645 -16.633  15.506  0.00  0.00    +0.000 A 
ATOM     25  C   UNL     1      -3.511 -14.441  14.464  0.00  0.00    +0.000 A 
BRANCH  23  28
ATOM     26  O   UNL     1      -0.935 -16.852  15.034  0.00  0.00    +0.000 OA
ATOM     27  O   UNL     1      -0.967 -15.134  13.670  0.00  0.00    +0.000 OA
ATOM     28  N   UNL     1      -1.504 -15.896  14.486  0.00  0.00    +0.000 N 
ENDBRANCH  23  28
ENDBRANCH  19  20
ENDBRANCH  18  19
ENDBRANCH  16  18
ENDBRANCH   4  17
TORSDOF 6
ENDMDL
MODEL 8
REMARK VINA RESULT:      -5.4      7.277     10.384
REMARK  Name = 9607353
REMARK  6 active torsions:
REMARK  status: ('A' for Active; 'I' for Inactive)
REMARK    1  A    between atoms: O_3  and  N_8
REMARK    2  A    between atoms: O_3  and  C_22
REMARK    3  A    between atoms: N_9  and  C_26
REMARK    4  A    between atoms: C_10  and  C_15
REMARK    5  A    between atoms: C_11  and  C_13
REMARK    6  A    between atoms: C_19  and  C_22
REMARK                            x       y       z     vdW  Elec       q    Type
REMARK                         _______ _______ _______ _____ _____    ______ ____
ROOT
ATOM      1  S   UNL     1      14.140  13.850  11.887  0.00  0.00    +0.000 S 
ATOM      2  N   UNL     1      14.580  12.429  13.983  0.00  0.00    +0.000 N 
ATOM      3  N   UNL     1      16.512  13.312  13.286  0.00  0.00    +0.000 NA
ATOM      4  C   UNL     1      15.506  12.011  14.907  0.00  0.00    +0.000 A 
ATOM      5  C   UNL     1      16.709  12.543  14.424  0.00  0.00    +0.000 A 
ATOM      6  C   UNL     1      15.233  13.203  13.071  0.00  0.00    +0.000 A 
ATOM      7  C   UNL     1      13.221  12.319  13.785  0.00  0.00    +0.000 A 
ATOM      8  C   UNL     1      12.813  13.015  12.711  0.00  0.00    +0.000 A 
ENDROOT
BRANCH   5  10
ATOM      9 CL   UNL     1      22.143  11.840  16.828  0.00  0.00    +0.000 Cl
ATOM     10  C   UNL     1      18.038  12.364  14.995  0.00  0.00    +0.000 A 
ATOM     11  C   UNL     1      18.384  13.042  16.172  0.00  0.00    +0.000 A 
ATOM     12  C   UNL     1      19.002  11.551  14.378  0.00  0.00    +0.000 A 
ATOM     13  C   UNL     1      19.654  12.884  16.740  0.00  0.00    +0.000 A 
ATOM     14  C   UNL     1      20.264  11.381  14.951  0.00  0.00    +0.000 A 
ATOM     15  C   UNL     1      20.585  12.046  16.131  0.00  0.00    +0.000 A 
ENDBRANCH   5  10
BRANCH   4  17
ATOM     16  N   UNL     1      14.564  11.763  17.087  0.00  0.00    +0.000 NA
ATOM     17  C   UNL     1      15.237  11.265  16.100  0.00  0.00    +0.000 C 
BRANCH  16  18
ATOM     18  O   UNL     1      14.475  10.787  18.102  0.00  0.00    +0.000 OA
BRANCH  18  19
ATOM     19  C   UNL     1      13.989   9.564  17.542  0.00  0.00    +0.000 C 
BRANCH  19  20
ATOM     20  C   UNL     1      13.176   8.817  18.575  0.00  0.00    +0.000 A 
ATOM     21  C   UNL     1      13.270   7.421  18.685  0.00  0.00    +0.000 A 
ATOM     22  C   UNL     1      12.332   9.514  19.454  0.00  0.00    +0.000 A 
ATOM     23  C   UNL     1      11.705   7.439  20.530  0.00  0.00    +0.000 A 
ATOM     24  C   UNL     1      12.540   6.728  19.659  0.00  0.00    +0.000 A 
ATOM     25  C   UNL     1      11.597   8.831  20.431  0.00  0.00    +0.000 A 
BRANCH  23  28
ATOM     26  O   UNL     1      10.157   7.381  22.259  0.00  0.00    +0.000 OA
ATOM     27  O   UNL     1      11.118   5.501  21.664  0.00  0.00    +0.000 OA
ATOM     28  N   UNL     1      10.940   6.722  21.558  0.00  0.00    +0.000 N 
ENDBRANCH  23  28
ENDBRANCH  19  20
ENDBRANCH  18  19
ENDBRANCH  16  18
ENDBRANCH   4  17
TORSDOF 6
ENDMDL
MODEL 9
REMARK VINA RESULT:      -5.4     26.845     29.261
REMARK  Name = 9607353
REMARK  6 active torsions:
REMARK  status: ('A' for Active; 'I' for Inactive)
REMARK    1  A    between atoms: O_3  and  N_8
REMARK    2  A    between atoms: O_3  and  C_22
REMARK    3  A    between atoms: N_9  and  C_26
REMARK    4  A    between atoms: C_10  and  C_15
REMARK    5  A    between atoms: C_11  and  C_13
REMARK    6  A    between atoms: C_19  and  C_22
REMARK                            x       y       z     vdW  Elec       q    Type
REMARK                         _______ _______ _______ _____ _____    ______ ____
ROOT
ATOM      1  S   UNL     1     -15.096  -0.265  30.883  0.00  0.00    +0.000 S 
ATOM      2  N   UNL     1     -15.505   2.157  30.126  0.00  0.00    +0.000 N 
ATOM      3  N   UNL     1     -16.045   0.774  28.455  0.00  0.00    +0.000 NA
ATOM      4  C   UNL     1     -15.969   2.980  29.130  0.00  0.00    +0.000 A 
ATOM      5  C   UNL     1     -16.261   2.093  28.086  0.00  0.00    +0.000 A 
ATOM      6  C   UNL     1     -15.593   0.875  29.672  0.00  0.00    +0.000 A 
ATOM      7  C   UNL     1     -15.048   2.284  31.421  0.00  0.00    +0.000 A 
ATOM      8  C   UNL     1     -14.783   1.091  31.978  0.00  0.00    +0.000 A 
ENDROOT
BRANCH   5  10
ATOM      9 CL   UNL     1     -18.173   3.521  22.599  0.00  0.00    +0.000 Cl
ATOM     10  C   UNL     1     -16.743   2.437  26.754  0.00  0.00    +0.000 A 
ATOM     11  C   UNL     1     -15.901   3.122  25.867  0.00  0.00    +0.000 A 
ATOM     12  C   UNL     1     -18.049   2.130  26.341  0.00  0.00    +0.000 A 
ATOM     13  C   UNL     1     -16.341   3.460  24.582  0.00  0.00    +0.000 A 
ATOM     14  C   UNL     1     -18.485   2.455  25.054  0.00  0.00    +0.000 A 
ATOM     15  C   UNL     1     -17.629   3.116  24.178  0.00  0.00    +0.000 A 
ENDBRANCH   5  10
BRANCH   4  17
ATOM     16  N   UNL     1     -17.185   4.923  29.798  0.00  0.00    +0.000 NA
ATOM     17  C   UNL     1     -16.154   4.398  29.219  0.00  0.00    +0.000 C 
BRANCH  16  18
ATOM     18  O   UNL     1     -17.073   6.328  29.716  0.00  0.00    +0.000 OA
BRANCH  18  19
ATOM     19  C   UNL     1     -17.173   6.889  31.028  0.00  0.00    +0.000 C 
BRANCH  19  20
ATOM     20  C   UNL     1     -15.814   7.373  31.482  0.00  0.00    +0.000 A 
ATOM     21  C   UNL     1     -14.987   6.550  32.261  0.00  0.00    +0.000 A 
ATOM     22  C   UNL     1     -15.352   8.645  31.110  0.00  0.00    +0.000 A 
ATOM     23  C   UNL     1     -13.270   8.253  32.277  0.00  0.00    +0.000 A 
ATOM     24  C   UNL     1     -13.717   6.982  32.661  0.00  0.00    +0.000 A 
ATOM     25  C   UNL     1     -14.084   9.088  31.503  0.00  0.00    +0.000 A 
BRANCH  23  28
ATOM     26  O   UNL     1     -11.765   8.996  33.881  0.00  0.00    +0.000 OA
ATOM     27  O   UNL     1     -11.060   8.791  31.814  0.00  0.00    +0.000 OA
ATOM     28  N   UNL     1     -11.937   8.714  32.686  0.00  0.00    +0.000 N 
ENDBRANCH  23  28
ENDBRANCH  19  20
ENDBRANCH  18  19
ENDBRANCH  16  18
ENDBRANCH   4  17
TORSDOF 6
ENDMDL
MODEL 10
REMARK VINA RESULT:      -5.3     24.032     26.490
REMARK  Name = 9607353
REMARK  6 active torsions:
REMARK  status: ('A' for Active; 'I' for Inactive)
REMARK    1  A    between atoms: O_3  and  N_8
REMARK    2  A    between atoms: O_3  and  C_22
REMARK    3  A    between atoms: N_9  and  C_26
REMARK    4  A    between atoms: C_10  and  C_15
REMARK    5  A    between atoms: C_11  and  C_13
REMARK    6  A    between atoms: C_19  and  C_22
REMARK                            x       y       z     vdW  Elec       q    Type
REMARK                         _______ _______ _______ _____ _____    ______ ____
ROOT
ATOM      1  S   UNL     1     -20.104   5.669  18.024  0.00  0.00    +0.000 S 
ATOM      2  N   UNL     1     -17.921   6.129  19.301  0.00  0.00    +0.000 N 
ATOM      3  N   UNL     1     -17.861   7.212  17.347  0.00  0.00    +0.000 NA
ATOM      4  C   UNL     1     -16.729   6.810  19.317  0.00  0.00    +0.000 A 
ATOM      5  C   UNL     1     -16.700   7.444  18.069  0.00  0.00    +0.000 A 
ATOM      6  C   UNL     1     -18.544   6.424  18.125  0.00  0.00    +0.000 A 
ATOM      7  C   UNL     1     -18.637   5.312  20.149  0.00  0.00    +0.000 A 
ATOM      8  C   UNL     1     -19.828   4.971  19.628  0.00  0.00    +0.000 A 
ENDROOT
BRANCH   5  10
ATOM      9 CL   UNL     1     -12.297  10.872  15.909  0.00  0.00    +0.000 Cl
ATOM     10  C   UNL     1     -15.625   8.268  17.530  0.00  0.00    +0.000 A 
ATOM     11  C   UNL     1     -15.410   9.552  18.048  0.00  0.00    +0.000 A 
ATOM     12  C   UNL     1     -14.815   7.823  16.473  0.00  0.00    +0.000 A 
ATOM     13  C   UNL     1     -14.382  10.361  17.547  0.00  0.00    +0.000 A 
ATOM     14  C   UNL     1     -13.780   8.624  15.982  0.00  0.00    +0.000 A 
ATOM     15  C   UNL     1     -13.566   9.888  16.523  0.00  0.00    +0.000 A 
ENDBRANCH   5  10
BRANCH   4  17
ATOM     16  N   UNL     1     -15.149   5.835  20.818  0.00  0.00    +0.000 NA
ATOM     17  C   UNL     1     -15.804   6.874  20.410  0.00  0.00    +0.000 C 
BRANCH  16  18
ATOM     18  O   UNL     1     -14.330   6.224  21.900  0.00  0.00    +0.000 OA
BRANCH  18  19
ATOM     19  C   UNL     1     -12.956   6.064  21.537  0.00  0.00    +0.000 C 
BRANCH  19  20
ATOM     20  C   UNL     1     -12.452   7.327  20.875  0.00  0.00    +0.000 A 
ATOM     21  C   UNL     1     -12.765   8.586  21.410  0.00  0.00    +0.000 A 
ATOM     22  C   UNL     1     -11.645   7.256  19.729  0.00  0.00    +0.000 A 
ATOM     23  C   UNL     1     -11.471   9.668  19.677  0.00  0.00    +0.000 A 
ATOM     24  C   UNL     1     -12.278   9.758  20.818  0.00  0.00    +0.000 A 
ATOM     25  C   UNL     1     -11.153   8.421  19.128  0.00  0.00    +0.000 A 
BRANCH  23  28
ATOM     26  O   UNL     1     -11.546  11.954  19.277  0.00  0.00    +0.000 OA
ATOM     27  O   UNL     1      -9.943  10.789  18.337  0.00  0.00    +0.000 OA
ATOM     28  N   UNL     1     -10.950  10.891  19.052  0.00  0.00    +0.000 N 
ENDBRANCH  23  28
ENDBRANCH  19  20
ENDBRANCH  18  19
ENDBRANCH  16  18
ENDBRANCH   4  17
TORSDOF 6
ENDMDL
