MODEL 1
REMARK VINA RESULT:      -6.0      0.000      0.000
REMARK  Name = 9607353
REMARK  6 active torsions:
REMARK  status: ('A' for Active; 'I' for Inactive)
REMARK    1  A    between atoms: O_3  and  N_8
REMARK    2  A    between atoms: O_3  and  C_22
REMARK    3  A    between atoms: N_9  and  C_26
REMARK    4  A    between atoms: C_10  and  C_15
REMARK    5  A    between atoms: C_11  and  C_13
REMARK    6  A    between atoms: C_19  and  C_22
REMARK                            x       y       z     vdW  Elec       q    Type
REMARK                         _______ _______ _______ _____ _____    ______ ____
ROOT
ATOM      1  S   UNL     1      -1.073   7.573 -57.883  0.00  0.00    +0.000 S 
ATOM      2  N   UNL     1      -2.827   6.082 -56.738  0.00  0.00    +0.000 N 
ATOM      3  N   UNL     1      -2.966   5.798 -58.951  0.00  0.00    +0.000 NA
ATOM      4  C   UNL     1      -3.800   5.128 -56.905  0.00  0.00    +0.000 A 
ATOM      5  C   UNL     1      -3.894   5.001 -58.297  0.00  0.00    +0.000 A 
ATOM      6  C   UNL     1      -2.366   6.418 -57.976  0.00  0.00    +0.000 A 
ATOM      7  C   UNL     1      -2.189   6.712 -55.691  0.00  0.00    +0.000 A 
ATOM      8  C   UNL     1      -1.224   7.543 -56.119  0.00  0.00    +0.000 A 
ENDROOT
BRANCH   5  10
ATOM      9 CL   UNL     1      -7.717   1.572 -61.368  0.00  0.00    +0.000 Cl
ATOM     10  C   UNL     1      -4.818   4.151 -59.038  0.00  0.00    +0.000 A 
ATOM     11  C   UNL     1      -5.922   4.726 -59.683  0.00  0.00    +0.000 A 
ATOM     12  C   UNL     1      -4.653   2.758 -59.097  0.00  0.00    +0.000 A 
ATOM     13  C   UNL     1      -6.822   3.930 -60.403  0.00  0.00    +0.000 A 
ATOM     14  C   UNL     1      -5.542   1.965 -59.826  0.00  0.00    +0.000 A 
ATOM     15  C   UNL     1      -6.621   2.554 -60.479  0.00  0.00    +0.000 A 
ENDBRANCH   5  10
BRANCH   4  17
ATOM     16  N   UNL     1      -5.121   5.026 -54.919  0.00  0.00    +0.000 NA
ATOM     17  C   UNL     1      -4.478   4.416 -55.863  0.00  0.00    +0.000 C 
BRANCH  16  18
ATOM     18  O   UNL     1      -5.670   4.053 -54.056  0.00  0.00    +0.000 OA
BRANCH  18  19
ATOM     19  C   UNL     1      -4.727   2.993 -53.875  0.00  0.00    +0.000 C 
BRANCH  19  20
ATOM     20  C   UNL     1      -5.417   1.793 -53.266  0.00  0.00    +0.000 A 
ATOM     21  C   UNL     1      -6.328   1.036 -54.018  0.00  0.00    +0.000 A 
ATOM     22  C   UNL     1      -5.139   1.408 -51.945  0.00  0.00    +0.000 A 
ATOM     23  C   UNL     1      -6.658  -0.465 -52.150  0.00  0.00    +0.000 A 
ATOM     24  C   UNL     1      -6.949  -0.092 -53.468  0.00  0.00    +0.000 A 
ATOM     25  C   UNL     1      -5.755   0.282 -51.385  0.00  0.00    +0.000 A 
BRANCH  23  28
ATOM     26  O   UNL     1      -8.252  -2.152 -52.179  0.00  0.00    +0.000 OA
ATOM     27  O   UNL     1      -6.850  -2.079 -50.494  0.00  0.00    +0.000 OA
ATOM     28  N   UNL     1      -7.299  -1.649 -51.565  0.00  0.00    +0.000 N 
ENDBRANCH  23  28
ENDBRANCH  19  20
ENDBRANCH  18  19
ENDBRANCH  16  18
ENDBRANCH   4  17
TORSDOF 6
ENDMDL
MODEL 2
REMARK VINA RESULT:      -5.7      4.538      6.552
REMARK  Name = 9607353
REMARK  6 active torsions:
REMARK  status: ('A' for Active; 'I' for Inactive)
REMARK    1  A    between atoms: O_3  and  N_8
REMARK    2  A    between atoms: O_3  and  C_22
REMARK    3  A    between atoms: N_9  and  C_26
REMARK    4  A    between atoms: C_10  and  C_15
REMARK    5  A    between atoms: C_11  and  C_13
REMARK    6  A    between atoms: C_19  and  C_22
REMARK                            x       y       z     vdW  Elec       q    Type
REMARK                         _______ _______ _______ _____ _____    ______ ____
ROOT
ATOM      1  S   UNL     1       0.835   8.933 -58.221  0.00  0.00    +0.000 S 
ATOM      2  N   UNL     1      -1.381   7.885 -58.997  0.00  0.00    +0.000 N 
ATOM      3  N   UNL     1      -1.072   7.410 -56.835  0.00  0.00    +0.000 NA
ATOM      4  C   UNL     1      -2.504   7.186 -58.631  0.00  0.00    +0.000 A 
ATOM      5  C   UNL     1      -2.265   6.867 -57.289  0.00  0.00    +0.000 A 
ATOM      6  C   UNL     1      -0.591   7.998 -57.892  0.00  0.00    +0.000 A 
ATOM      7  C   UNL     1      -0.899   8.519 -60.122  0.00  0.00    +0.000 A 
ATOM      8  C   UNL     1       0.274   9.132 -59.888  0.00  0.00    +0.000 A 
ENDROOT
BRANCH   5  10
ATOM      9 CL   UNL     1      -5.787   3.684 -53.645  0.00  0.00    +0.000 Cl
ATOM     10  C   UNL     1      -3.119   6.078 -56.410  0.00  0.00    +0.000 A 
ATOM     11  C   UNL     1      -3.594   6.639 -55.217  0.00  0.00    +0.000 A 
ATOM     12  C   UNL     1      -3.455   4.748 -56.709  0.00  0.00    +0.000 A 
ATOM     13  C   UNL     1      -4.418   5.901 -54.359  0.00  0.00    +0.000 A 
ATOM     14  C   UNL     1      -4.288   4.014 -55.861  0.00  0.00    +0.000 A 
ATOM     15  C   UNL     1      -4.769   4.594 -54.690  0.00  0.00    +0.000 A 
ENDBRANCH   5  10
BRANCH   4  17
ATOM     16  N   UNL     1      -3.594   6.152 -60.487  0.00  0.00    +0.000 NA
ATOM     17  C   UNL     1      -3.649   6.929 -59.454  0.00  0.00    +0.000 C 
BRANCH  16  18
ATOM     18  O   UNL     1      -4.874   6.110 -61.079  0.00  0.00    +0.000 OA
BRANCH  18  19
ATOM     19  C   UNL     1      -5.819   5.608 -60.130  0.00  0.00    +0.000 C 
BRANCH  19  20
ATOM     20  C   UNL     1      -6.084   4.143 -60.400  0.00  0.00    +0.000 A 
ATOM     21  C   UNL     1      -5.473   3.152 -59.616  0.00  0.00    +0.000 A 
ATOM     22  C   UNL     1      -6.963   3.756 -61.423  0.00  0.00    +0.000 A 
ATOM     23  C   UNL     1      -6.619   1.427 -60.866  0.00  0.00    +0.000 A 
ATOM     24  C   UNL     1      -5.736   1.795 -59.843  0.00  0.00    +0.000 A 
ATOM     25  C   UNL     1      -7.233   2.403 -61.659  0.00  0.00    +0.000 A 
BRANCH  23  28
ATOM     26  O   UNL     1      -7.454  -0.296 -62.179  0.00  0.00    +0.000 OA
ATOM     27  O   UNL     1      -6.582  -0.805 -60.232  0.00  0.00    +0.000 OA
ATOM     28  N   UNL     1      -6.906   0.007 -61.109  0.00  0.00    +0.000 N 
ENDBRANCH  23  28
ENDBRANCH  19  20
ENDBRANCH  18  19
ENDBRANCH  16  18
ENDBRANCH   4  17
TORSDOF 6
ENDMDL
MODEL 3
REMARK VINA RESULT:      -5.4      3.003      4.748
REMARK  Name = 9607353
REMARK  6 active torsions:
REMARK  status: ('A' for Active; 'I' for Inactive)
REMARK    1  A    between atoms: O_3  and  N_8
REMARK    2  A    between atoms: O_3  and  C_22
REMARK    3  A    between atoms: N_9  and  C_26
REMARK    4  A    between atoms: C_10  and  C_15
REMARK    5  A    between atoms: C_11  and  C_13
REMARK    6  A    between atoms: C_19  and  C_22
REMARK                            x       y       z     vdW  Elec       q    Type
REMARK                         _______ _______ _______ _____ _____    ______ ____
ROOT
ATOM      1  S   UNL     1      -5.188   3.255 -61.501  0.00  0.00    +0.000 S 
ATOM      2  N   UNL     1      -4.754   2.872 -58.996  0.00  0.00    +0.000 N 
ATOM      3  N   UNL     1      -3.706   4.739 -59.637  0.00  0.00    +0.000 NA
ATOM      4  C   UNL     1      -4.182   3.361 -57.848  0.00  0.00    +0.000 A 
ATOM      5  C   UNL     1      -3.501   4.504 -58.286  0.00  0.00    +0.000 A 
ATOM      6  C   UNL     1      -4.452   3.738 -60.005  0.00  0.00    +0.000 A 
ATOM      7  C   UNL     1      -5.561   1.816 -59.361  0.00  0.00    +0.000 A 
ATOM      8  C   UNL     1      -5.891   1.863 -60.662  0.00  0.00    +0.000 A 
ENDROOT
BRANCH   5  10
ATOM      9 CL   UNL     1      -0.031   8.115 -55.011  0.00  0.00    +0.000 Cl
ATOM     10  C   UNL     1      -2.670   5.390 -57.480  0.00  0.00    +0.000 A 
ATOM     11  C   UNL     1      -1.283   5.193 -57.440  0.00  0.00    +0.000 A 
ATOM     12  C   UNL     1      -3.226   6.423 -56.710  0.00  0.00    +0.000 A 
ATOM     13  C   UNL     1      -0.464   6.033 -56.676  0.00  0.00    +0.000 A 
ATOM     14  C   UNL     1      -2.409   7.271 -55.957  0.00  0.00    +0.000 A 
ATOM     15  C   UNL     1      -1.031   7.075 -55.945  0.00  0.00    +0.000 A 
ENDBRANCH   5  10
BRANCH   4  17
ATOM     16  N   UNL     1      -3.339   2.329 -55.866  0.00  0.00    +0.000 NA
ATOM     17  C   UNL     1      -4.336   2.823 -56.529  0.00  0.00    +0.000 C 
BRANCH  16  18
ATOM     18  O   UNL     1      -3.816   1.885 -54.614  0.00  0.00    +0.000 OA
BRANCH  18  19
ATOM     19  C   UNL     1      -5.230   2.088 -54.546  0.00  0.00    +0.000 C 
BRANCH  19  20
ATOM     20  C   UNL     1      -5.845   1.078 -53.603  0.00  0.00    +0.000 A 
ATOM     21  C   UNL     1      -6.934   0.292 -54.011  0.00  0.00    +0.000 A 
ATOM     22  C   UNL     1      -5.321   0.898 -52.313  0.00  0.00    +0.000 A 
ATOM     23  C   UNL     1      -6.952  -0.833 -51.870  0.00  0.00    +0.000 A 
ATOM     24  C   UNL     1      -7.490  -0.664 -53.152  0.00  0.00    +0.000 A 
ATOM     25  C   UNL     1      -5.869  -0.054 -51.445  0.00  0.00    +0.000 A 
BRANCH  23  28
ATOM     26  O   UNL     1      -8.230  -1.433 -50.026  0.00  0.00    +0.000 OA
ATOM     27  O   UNL     1      -7.270  -3.028 -51.187  0.00  0.00    +0.000 OA
ATOM     28  N   UNL     1      -7.524  -1.837 -50.962  0.00  0.00    +0.000 N 
ENDBRANCH  23  28
ENDBRANCH  19  20
ENDBRANCH  18  19
ENDBRANCH  16  18
ENDBRANCH   4  17
TORSDOF 6
ENDMDL
MODEL 4
REMARK VINA RESULT:      -5.3     18.608     19.911
REMARK  Name = 9607353
REMARK  6 active torsions:
REMARK  status: ('A' for Active; 'I' for Inactive)
REMARK    1  A    between atoms: O_3  and  N_8
REMARK    2  A    between atoms: O_3  and  C_22
REMARK    3  A    between atoms: N_9  and  C_26
REMARK    4  A    between atoms: C_10  and  C_15
REMARK    5  A    between atoms: C_11  and  C_13
REMARK    6  A    between atoms: C_19  and  C_22
REMARK                            x       y       z     vdW  Elec       q    Type
REMARK                         _______ _______ _______ _____ _____    ______ ____
ROOT
ATOM      1  S   UNL     1     -21.336  15.121 -50.800  0.00  0.00    +0.000 S 
ATOM      2  N   UNL     1     -19.678  15.122 -48.835  0.00  0.00    +0.000 N 
ATOM      3  N   UNL     1     -18.573  15.602 -50.718  0.00  0.00    +0.000 NA
ATOM      4  C   UNL     1     -18.385  15.345 -48.432  0.00  0.00    +0.000 A 
ATOM      5  C   UNL     1     -17.710  15.602 -49.632  0.00  0.00    +0.000 A 
ATOM      6  C   UNL     1     -19.723  15.308 -50.185  0.00  0.00    +0.000 A 
ATOM      7  C   UNL     1     -20.891  14.830 -48.248  0.00  0.00    +0.000 A 
ATOM      8  C   UNL     1     -21.887  14.792 -49.150  0.00  0.00    +0.000 A 
ENDROOT
BRANCH   5  10
ATOM      9 CL   UNL     1     -11.867  16.648 -50.385  0.00  0.00    +0.000 Cl
ATOM     10  C   UNL     1     -16.284  15.856 -49.798  0.00  0.00    +0.000 A 
ATOM     11  C   UNL     1     -15.716  15.803 -51.078  0.00  0.00    +0.000 A 
ATOM     12  C   UNL     1     -15.450  16.120 -48.701  0.00  0.00    +0.000 A 
ATOM     13  C   UNL     1     -14.349  16.045 -51.262  0.00  0.00    +0.000 A 
ATOM     14  C   UNL     1     -14.089  16.376 -48.885  0.00  0.00    +0.000 A 
ATOM     15  C   UNL     1     -13.544  16.341 -50.165  0.00  0.00    +0.000 A 
ENDBRANCH   5  10
BRANCH   4  17
ATOM     16  N   UNL     1     -18.001  16.414 -46.332  0.00  0.00    +0.000 NA
ATOM     17  C   UNL     1     -17.909  15.362 -47.080  0.00  0.00    +0.000 C 
BRANCH  16  18
ATOM     18  O   UNL     1     -17.446  16.111 -45.070  0.00  0.00    +0.000 OA
BRANCH  18  19
ATOM     19  C   UNL     1     -16.417  15.131 -45.229  0.00  0.00    +0.000 C 
BRANCH  19  20
ATOM     20  C   UNL     1     -15.071  15.749 -44.921  0.00  0.00    +0.000 A 
ATOM     21  C   UNL     1     -13.898  15.223 -45.485  0.00  0.00    +0.000 A 
ATOM     22  C   UNL     1     -14.979  16.873 -44.086  0.00  0.00    +0.000 A 
ATOM     23  C   UNL     1     -12.580  16.932 -44.393  0.00  0.00    +0.000 A 
ATOM     24  C   UNL     1     -12.653  15.808 -45.226  0.00  0.00    +0.000 A 
ATOM     25  C   UNL     1     -13.740  17.467 -43.820  0.00  0.00    +0.000 A 
BRANCH  23  28
ATOM     26  O   UNL     1     -10.484  16.941 -43.396  0.00  0.00    +0.000 OA
ATOM     27  O   UNL     1     -11.052  18.663 -44.630  0.00  0.00    +0.000 OA
ATOM     28  N   UNL     1     -11.280  17.557 -44.119  0.00  0.00    +0.000 N 
ENDBRANCH  23  28
ENDBRANCH  19  20
ENDBRANCH  18  19
ENDBRANCH  16  18
ENDBRANCH   4  17
TORSDOF 6
ENDMDL
MODEL 5
REMARK VINA RESULT:      -5.1     26.451     28.997
REMARK  Name = 9607353
REMARK  6 active torsions:
REMARK  status: ('A' for Active; 'I' for Inactive)
REMARK    1  A    between atoms: O_3  and  N_8
REMARK    2  A    between atoms: O_3  and  C_22
REMARK    3  A    between atoms: N_9  and  C_26
REMARK    4  A    between atoms: C_10  and  C_15
REMARK    5  A    between atoms: C_11  and  C_13
REMARK    6  A    between atoms: C_19  and  C_22
REMARK                            x       y       z     vdW  Elec       q    Type
REMARK                         _______ _______ _______ _____ _____    ______ ____
ROOT
ATOM      1  S   UNL     1      -5.443   5.883 -25.071  0.00  0.00    +0.000 S 
ATOM      2  N   UNL     1      -6.538   7.463 -26.778  0.00  0.00    +0.000 N 
ATOM      3  N   UNL     1      -4.454   8.163 -26.374  0.00  0.00    +0.000 NA
ATOM      4  C   UNL     1      -6.370   8.548 -27.602  0.00  0.00    +0.000 A 
ATOM      5  C   UNL     1      -5.075   8.988 -27.299  0.00  0.00    +0.000 A 
ATOM      6  C   UNL     1      -5.370   7.281 -26.099  0.00  0.00    +0.000 A 
ATOM      7  C   UNL     1      -7.515   6.526 -26.516  0.00  0.00    +0.000 A 
ATOM      8  C   UNL     1      -7.101   5.606 -25.629  0.00  0.00    +0.000 A 
ENDROOT
BRANCH   5  10
ATOM      9 CL   UNL     1      -2.276  13.796 -29.503  0.00  0.00    +0.000 Cl
ATOM     10  C   UNL     1      -4.394  10.153 -27.852  0.00  0.00    +0.000 A 
ATOM     11  C   UNL     1      -4.215  11.293 -27.057  0.00  0.00    +0.000 A 
ATOM     12  C   UNL     1      -3.939  10.179 -29.180  0.00  0.00    +0.000 A 
ATOM     13  C   UNL     1      -3.562  12.423 -27.565  0.00  0.00    +0.000 A 
ATOM     14  C   UNL     1      -3.275  11.300 -29.684  0.00  0.00    +0.000 A 
ATOM     15  C   UNL     1      -3.086  12.416 -28.875  0.00  0.00    +0.000 A 
ENDBRANCH   5  10
BRANCH   4  17
ATOM     16  N   UNL     1      -7.230   8.708 -29.824  0.00  0.00    +0.000 NA
ATOM     17  C   UNL     1      -7.308   9.030 -28.572  0.00  0.00    +0.000 C 
BRANCH  16  18
ATOM     18  O   UNL     1      -8.289   9.341 -30.510  0.00  0.00    +0.000 OA
BRANCH  18  19
ATOM     19  C   UNL     1      -8.590  10.586 -29.874  0.00  0.00    +0.000 C 
BRANCH  19  20
ATOM     20  C   UNL     1      -7.994  11.724 -30.672  0.00  0.00    +0.000 A 
ATOM     21  C   UNL     1      -6.789  12.322 -30.272  0.00  0.00    +0.000 A 
ATOM     22  C   UNL     1      -8.628  12.183 -31.837  0.00  0.00    +0.000 A 
ATOM     23  C   UNL     1      -6.862  13.801 -32.185  0.00  0.00    +0.000 A 
ATOM     24  C   UNL     1      -6.219  13.357 -31.022  0.00  0.00    +0.000 A 
ATOM     25  C   UNL     1      -8.067  13.218 -32.595  0.00  0.00    +0.000 A 
BRANCH  23  28
ATOM     26  O   UNL     1      -6.875  15.963 -33.028  0.00  0.00    +0.000 OA
ATOM     27  O   UNL     1      -5.198  14.652 -33.560  0.00  0.00    +0.000 OA
ATOM     28  N   UNL     1      -6.270  14.882 -32.982  0.00  0.00    +0.000 N 
ENDBRANCH  23  28
ENDBRANCH  19  20
ENDBRANCH  18  19
ENDBRANCH  16  18
ENDBRANCH   4  17
TORSDOF 6
ENDMDL
MODEL 6
REMARK VINA RESULT:      -5.1     24.311     27.796
REMARK  Name = 9607353
REMARK  6 active torsions:
REMARK  status: ('A' for Active; 'I' for Inactive)
REMARK    1  A    between atoms: O_3  and  N_8
REMARK    2  A    between atoms: O_3  and  C_22
REMARK    3  A    between atoms: N_9  and  C_26
REMARK    4  A    between atoms: C_10  and  C_15
REMARK    5  A    between atoms: C_11  and  C_13
REMARK    6  A    between atoms: C_19  and  C_22
REMARK                            x       y       z     vdW  Elec       q    Type
REMARK                         _______ _______ _______ _____ _____    ______ ____
ROOT
ATOM      1  S   UNL     1      -6.316   5.545 -25.105  0.00  0.00    +0.000 S 
ATOM      2  N   UNL     1      -7.267   7.258 -26.770  0.00  0.00    +0.000 N 
ATOM      3  N   UNL     1      -5.092   7.673 -26.465  0.00  0.00    +0.000 NA
ATOM      4  C   UNL     1      -6.993   8.311 -27.608  0.00  0.00    +0.000 A 
ATOM      5  C   UNL     1      -5.638   8.574 -27.366  0.00  0.00    +0.000 A 
ATOM      6  C   UNL     1      -6.104   6.921 -26.143  0.00  0.00    +0.000 A 
ATOM      7  C   UNL     1      -8.347   6.460 -26.460  0.00  0.00    +0.000 A 
ATOM      8  C   UNL     1      -8.020   5.493 -25.586  0.00  0.00    +0.000 A 
ENDROOT
BRANCH   5  10
ATOM      9 CL   UNL     1      -2.312  12.955 -29.721  0.00  0.00    +0.000 Cl
ATOM     10  C   UNL     1      -4.834   9.637 -27.955  0.00  0.00    +0.000 A 
ATOM     11  C   UNL     1      -4.229  10.590 -27.125  0.00  0.00    +0.000 A 
ATOM     12  C   UNL     1      -4.674   9.756 -29.345  0.00  0.00    +0.000 A 
ATOM     13  C   UNL     1      -3.450  11.619 -27.668  0.00  0.00    +0.000 A 
ATOM     14  C   UNL     1      -3.885  10.773 -29.888  0.00  0.00    +0.000 A 
ATOM     15  C   UNL     1      -3.274  11.699 -29.048  0.00  0.00    +0.000 A 
ENDBRANCH   5  10
BRANCH   4  17
ATOM     16  N   UNL     1      -8.121   8.411 -29.709  0.00  0.00    +0.000 NA
ATOM     17  C   UNL     1      -7.901   8.914 -28.537  0.00  0.00    +0.000 C 
BRANCH  16  18
ATOM     18  O   UNL     1      -9.055   9.233 -30.376  0.00  0.00    +0.000 OA
BRANCH  18  19
ATOM     19  C   UNL     1      -8.650   9.405 -31.737  0.00  0.00    +0.000 C 
BRANCH  19  20
ATOM     20  C   UNL     1      -9.707   8.841 -32.660  0.00  0.00    +0.000 A 
ATOM     21  C   UNL     1     -10.895   8.303 -32.140  0.00  0.00    +0.000 A 
ATOM     22  C   UNL     1      -9.525   8.869 -34.051  0.00  0.00    +0.000 A 
ATOM     23  C   UNL     1     -11.693   7.845 -34.376  0.00  0.00    +0.000 A 
ATOM     24  C   UNL     1     -11.889   7.806 -32.990  0.00  0.00    +0.000 A 
ATOM     25  C   UNL     1     -10.512   8.374 -34.911  0.00  0.00    +0.000 A 
BRANCH  23  28
ATOM     26  O   UNL     1     -13.694   8.072 -35.532  0.00  0.00    +0.000 OA
ATOM     27  O   UNL     1     -12.586   6.189 -35.735  0.00  0.00    +0.000 OA
ATOM     28  N   UNL     1     -12.732   7.331 -35.278  0.00  0.00    +0.000 N 
ENDBRANCH  23  28
ENDBRANCH  19  20
ENDBRANCH  18  19
ENDBRANCH  16  18
ENDBRANCH   4  17
TORSDOF 6
ENDMDL
MODEL 7
REMARK VINA RESULT:      -5.1     18.600     19.637
REMARK  Name = 9607353
REMARK  6 active torsions:
REMARK  status: ('A' for Active; 'I' for Inactive)
REMARK    1  A    between atoms: O_3  and  N_8
REMARK    2  A    between atoms: O_3  and  C_22
REMARK    3  A    between atoms: N_9  and  C_26
REMARK    4  A    between atoms: C_10  and  C_15
REMARK    5  A    between atoms: C_11  and  C_13
REMARK    6  A    between atoms: C_19  and  C_22
REMARK                            x       y       z     vdW  Elec       q    Type
REMARK                         _______ _______ _______ _____ _____    ______ ____
ROOT
ATOM      1  S   UNL     1     -23.501  12.704 -53.879  0.00  0.00    +0.000 S 
ATOM      2  N   UNL     1     -23.592  10.454 -52.638  0.00  0.00    +0.000 N 
ATOM      3  N   UNL     1     -22.863  10.104 -54.722  0.00  0.00    +0.000 NA
ATOM      4  C   UNL     1     -23.332   9.107 -52.694  0.00  0.00    +0.000 A 
ATOM      5  C   UNL     1     -22.918   8.911 -54.018  0.00  0.00    +0.000 A 
ATOM      6  C   UNL     1     -23.278  10.982 -53.855  0.00  0.00    +0.000 A 
ATOM      7  C   UNL     1     -24.013  11.371 -51.699  0.00  0.00    +0.000 A 
ATOM      8  C   UNL     1     -24.023  12.622 -52.189  0.00  0.00    +0.000 A 
ENDROOT
BRANCH   5  10
ATOM      9 CL   UNL     1     -21.392   3.730 -56.594  0.00  0.00    +0.000 Cl
ATOM     10  C   UNL     1     -22.563   7.644 -54.646  0.00  0.00    +0.000 A 
ATOM     11  C   UNL     1     -21.264   7.454 -55.136  0.00  0.00    +0.000 A 
ATOM     12  C   UNL     1     -23.502   6.613 -54.806  0.00  0.00    +0.000 A 
ATOM     13  C   UNL     1     -20.900   6.245 -55.742  0.00  0.00    +0.000 A 
ATOM     14  C   UNL     1     -23.136   5.401 -55.397  0.00  0.00    +0.000 A 
ATOM     15  C   UNL     1     -21.836   5.220 -55.860  0.00  0.00    +0.000 A 
ENDBRANCH   5  10
BRANCH   4  17
ATOM     16  N   UNL     1     -22.527   8.137 -50.666  0.00  0.00    +0.000 NA
ATOM     17  C   UNL     1     -23.418   8.181 -51.604  0.00  0.00    +0.000 C 
BRANCH  16  18
ATOM     18  O   UNL     1     -22.895   7.127 -49.752  0.00  0.00    +0.000 OA
BRANCH  18  19
ATOM     19  C   UNL     1     -24.317   7.118 -49.602  0.00  0.00    +0.000 C 
BRANCH  19  20
ATOM     20  C   UNL     1     -24.785   5.725 -49.243  0.00  0.00    +0.000 A 
ATOM     21  C   UNL     1     -24.890   4.732 -50.229  0.00  0.00    +0.000 A 
ATOM     22  C   UNL     1     -25.097   5.401 -47.914  0.00  0.00    +0.000 A 
ATOM     23  C   UNL     1     -25.600   3.126 -48.565  0.00  0.00    +0.000 A 
ATOM     24  C   UNL     1     -25.295   3.433 -49.897  0.00  0.00    +0.000 A 
ATOM     25  C   UNL     1     -25.504   4.106 -47.570  0.00  0.00    +0.000 A 
BRANCH  23  28
ATOM     26  O   UNL     1     -27.023   1.303 -48.769  0.00  0.00    +0.000 OA
ATOM     27  O   UNL     1     -25.346   1.157 -47.363  0.00  0.00    +0.000 OA
ATOM     28  N   UNL     1     -26.020   1.765 -48.206  0.00  0.00    +0.000 N 
ENDBRANCH  23  28
ENDBRANCH  19  20
ENDBRANCH  18  19
ENDBRANCH  16  18
ENDBRANCH   4  17
TORSDOF 6
ENDMDL
MODEL 8
REMARK VINA RESULT:      -5.0     12.048     14.151
REMARK  Name = 9607353
REMARK  6 active torsions:
REMARK  status: ('A' for Active; 'I' for Inactive)
REMARK    1  A    between atoms: O_3  and  N_8
REMARK    2  A    between atoms: O_3  and  C_22
REMARK    3  A    between atoms: N_9  and  C_26
REMARK    4  A    between atoms: C_10  and  C_15
REMARK    5  A    between atoms: C_11  and  C_13
REMARK    6  A    between atoms: C_19  and  C_22
REMARK                            x       y       z     vdW  Elec       q    Type
REMARK                         _______ _______ _______ _____ _____    ______ ____
ROOT
ATOM      1  S   UNL     1     -13.846  12.199 -65.426  0.00  0.00    +0.000 S 
ATOM      2  N   UNL     1     -13.238  11.742 -62.970  0.00  0.00    +0.000 N 
ATOM      3  N   UNL     1     -15.334  12.513 -63.067  0.00  0.00    +0.000 NA
ATOM      4  C   UNL     1     -13.676  11.722 -61.669  0.00  0.00    +0.000 A 
ATOM      5  C   UNL     1     -14.972  12.246 -61.755  0.00  0.00    +0.000 A 
ATOM      6  C   UNL     1     -14.265  12.199 -63.741  0.00  0.00    +0.000 A 
ATOM      7  C   UNL     1     -12.103  11.384 -63.667  0.00  0.00    +0.000 A 
ATOM      8  C   UNL     1     -12.252  11.562 -64.991  0.00  0.00    +0.000 A 
ENDROOT
BRANCH   5  10
ATOM      9 CL   UNL     1     -18.789  13.254 -57.258  0.00  0.00    +0.000 Cl
ATOM     10  C   UNL     1     -15.889  12.500 -60.651  0.00  0.00    +0.000 A 
ATOM     11  C   UNL     1     -17.262  12.281 -60.826  0.00  0.00    +0.000 A 
ATOM     12  C   UNL     1     -15.438  12.994 -59.417  0.00  0.00    +0.000 A 
ATOM     13  C   UNL     1     -18.162  12.516 -59.779  0.00  0.00    +0.000 A 
ATOM     14  C   UNL     1     -16.333  13.215 -58.367  0.00  0.00    +0.000 A 
ATOM     15  C   UNL     1     -17.691  12.972 -58.551  0.00  0.00    +0.000 A 
ENDBRANCH   5  10
BRANCH   4  17
ATOM     16  N   UNL     1     -11.772  11.632 -60.231  0.00  0.00    +0.000 NA
ATOM     17  C   UNL     1     -12.956  11.212 -60.540  0.00  0.00    +0.000 C 
BRANCH  16  18
ATOM     18  O   UNL     1     -11.341  10.938 -59.080  0.00  0.00    +0.000 OA
BRANCH  18  19
ATOM     19  C   UNL     1     -12.421  10.849 -58.147  0.00  0.00    +0.000 C 
BRANCH  19  20
ATOM     20  C   UNL     1     -12.104  11.673 -56.919  0.00  0.00    +0.000 A 
ATOM     21  C   UNL     1     -11.902  11.051 -55.677  0.00  0.00    +0.000 A 
ATOM     22  C   UNL     1     -11.984  13.068 -57.010  0.00  0.00    +0.000 A 
ATOM     23  C   UNL     1     -11.460  13.197 -54.651  0.00  0.00    +0.000 A 
ATOM     24  C   UNL     1     -11.580  11.806 -54.542  0.00  0.00    +0.000 A 
ATOM     25  C   UNL     1     -11.663  13.832 -55.881  0.00  0.00    +0.000 A 
BRANCH  23  28
ATOM     26  O   UNL     1     -11.700  15.080 -53.315  0.00  0.00    +0.000 OA
ATOM     27  O   UNL     1     -10.268  13.542 -52.690  0.00  0.00    +0.000 OA
ATOM     28  N   UNL     1     -11.117  13.997 -53.468  0.00  0.00    +0.000 N 
ENDBRANCH  23  28
ENDBRANCH  19  20
ENDBRANCH  18  19
ENDBRANCH  16  18
ENDBRANCH   4  17
TORSDOF 6
ENDMDL
MODEL 9
REMARK VINA RESULT:      -5.0     16.736     18.444
REMARK  Name = 9607353
REMARK  6 active torsions:
REMARK  status: ('A' for Active; 'I' for Inactive)
REMARK    1  A    between atoms: O_3  and  N_8
REMARK    2  A    between atoms: O_3  and  C_22
REMARK    3  A    between atoms: N_9  and  C_26
REMARK    4  A    between atoms: C_10  and  C_15
REMARK    5  A    between atoms: C_11  and  C_13
REMARK    6  A    between atoms: C_19  and  C_22
REMARK                            x       y       z     vdW  Elec       q    Type
REMARK                         _______ _______ _______ _____ _____    ______ ____
ROOT
ATOM      1  S   UNL     1      -7.927  22.395 -45.739  0.00  0.00    +0.000 S 
ATOM      2  N   UNL     1      -7.585  19.898 -45.230  0.00  0.00    +0.000 N 
ATOM      3  N   UNL     1      -9.740  20.253 -45.705  0.00  0.00    +0.000 NA
ATOM      4  C   UNL     1      -8.163  18.654 -45.172  0.00  0.00    +0.000 A 
ATOM      5  C   UNL     1      -9.514  18.912 -45.433  0.00  0.00    +0.000 A 
ATOM      6  C   UNL     1      -8.561  20.788 -45.566  0.00  0.00    +0.000 A 
ATOM      7  C   UNL     1      -6.325  20.442 -45.098  0.00  0.00    +0.000 A 
ATOM      8  C   UNL     1      -6.322  21.764 -45.336  0.00  0.00    +0.000 A 
ENDROOT
BRANCH   5  10
ATOM      9 CL   UNL     1     -13.997  14.949 -45.409  0.00  0.00    +0.000 Cl
ATOM     10  C   UNL     1     -10.604  17.944 -45.444  0.00  0.00    +0.000 A 
ATOM     11  C   UNL     1     -11.135  17.483 -44.231  0.00  0.00    +0.000 A 
ATOM     12  C   UNL     1     -11.119  17.428 -46.644  0.00  0.00    +0.000 A 
ATOM     13  C   UNL     1     -12.183  16.555 -44.217  0.00  0.00    +0.000 A 
ATOM     14  C   UNL     1     -12.175  16.513 -46.631  0.00  0.00    +0.000 A 
ATOM     15  C   UNL     1     -12.705  16.082 -45.419  0.00  0.00    +0.000 A 
ENDBRANCH   5  10
BRANCH   4  17
ATOM     16  N   UNL     1      -6.769  16.849 -45.880  0.00  0.00    +0.000 NA
ATOM     17  C   UNL     1      -7.481  17.412 -44.957  0.00  0.00    +0.000 C 
BRANCH  16  18
ATOM     18  O   UNL     1      -6.238  15.650 -45.360  0.00  0.00    +0.000 OA
BRANCH  18  19
ATOM     19  C   UNL     1      -6.165  15.742 -43.934  0.00  0.00    +0.000 C 
BRANCH  19  20
ATOM     20  C   UNL     1      -5.278  14.641 -43.396  0.00  0.00    +0.000 A 
ATOM     21  C   UNL     1      -4.804  14.688 -42.076  0.00  0.00    +0.000 A 
ATOM     22  C   UNL     1      -4.935  13.545 -44.204  0.00  0.00    +0.000 A 
ATOM     23  C   UNL     1      -3.677  12.570 -42.382  0.00  0.00    +0.000 A 
ATOM     24  C   UNL     1      -4.006  13.657 -41.564  0.00  0.00    +0.000 A 
ATOM     25  C   UNL     1      -4.138  12.510 -43.703  0.00  0.00    +0.000 A 
BRANCH  23  28
ATOM     26  O   UNL     1      -2.358  10.680 -42.665  0.00  0.00    +0.000 OA
ATOM     27  O   UNL     1      -2.675  11.428 -40.627  0.00  0.00    +0.000 OA
ATOM     28  N   UNL     1      -2.845  11.481 -41.853  0.00  0.00    +0.000 N 
ENDBRANCH  23  28
ENDBRANCH  19  20
ENDBRANCH  18  19
ENDBRANCH  16  18
ENDBRANCH   4  17
TORSDOF 6
ENDMDL
MODEL 10
REMARK VINA RESULT:      -4.9     17.634     19.563
REMARK  Name = 9607353
REMARK  6 active torsions:
REMARK  status: ('A' for Active; 'I' for Inactive)
REMARK    1  A    between atoms: O_3  and  N_8
REMARK    2  A    between atoms: O_3  and  C_22
REMARK    3  A    between atoms: N_9  and  C_26
REMARK    4  A    between atoms: C_10  and  C_15
REMARK    5  A    between atoms: C_11  and  C_13
REMARK    6  A    between atoms: C_19  and  C_22
REMARK                            x       y       z     vdW  Elec       q    Type
REMARK                         _______ _______ _______ _____ _____    ______ ____
ROOT
ATOM      1  S   UNL     1     -25.200   2.964 -64.083  0.00  0.00    +0.000 S 
ATOM      2  N   UNL     1     -24.484   2.716 -61.626  0.00  0.00    +0.000 N 
ATOM      3  N   UNL     1     -24.703   4.889 -62.102  0.00  0.00    +0.000 NA
ATOM      4  C   UNL     1     -24.221   3.359 -60.442  0.00  0.00    +0.000 A 
ATOM      5  C   UNL     1     -24.325   4.714 -60.779  0.00  0.00    +0.000 A 
ATOM      6  C   UNL     1     -24.778   3.670 -62.554  0.00  0.00    +0.000 A 
ATOM      7  C   UNL     1     -24.578   1.417 -62.079  0.00  0.00    +0.000 A 
ATOM      8  C   UNL     1     -24.951   1.363 -63.369  0.00  0.00    +0.000 A 
ENDROOT
BRANCH   5  10
ATOM      9 CL   UNL     1     -23.296   9.405 -57.209  0.00  0.00    +0.000 Cl
ATOM     10  C   UNL     1     -24.090   5.855 -59.903  0.00  0.00    +0.000 A 
ATOM     11  C   UNL     1     -22.794   6.370 -59.767  0.00  0.00    +0.000 A 
ATOM     12  C   UNL     1     -25.127   6.438 -59.157  0.00  0.00    +0.000 A 
ATOM     13  C   UNL     1     -22.544   7.467 -58.933  0.00  0.00    +0.000 A 
ATOM     14  C   UNL     1     -24.883   7.540 -58.335  0.00  0.00    +0.000 A 
ATOM     15  C   UNL     1     -23.593   8.053 -58.228  0.00  0.00    +0.000 A 
ENDBRANCH   5  10
BRANCH   4  17
ATOM     16  N   UNL     1     -24.724   2.946 -58.145  0.00  0.00    +0.000 NA
ATOM     17  C   UNL     1     -23.971   2.736 -59.176  0.00  0.00    +0.000 C 
BRANCH  16  18
ATOM     18  O   UNL     1     -24.215   2.196 -57.063  0.00  0.00    +0.000 OA
BRANCH  18  19
ATOM     19  C   UNL     1     -24.282   2.980 -55.869  0.00  0.00    +0.000 C 
BRANCH  19  20
ATOM     20  C   UNL     1     -23.168   4.003 -55.866  0.00  0.00    +0.000 A 
ATOM     21  C   UNL     1     -21.902   3.679 -56.378  0.00  0.00    +0.000 A 
ATOM     22  C   UNL     1     -23.391   5.297 -55.372  0.00  0.00    +0.000 A 
ATOM     23  C   UNL     1     -21.116   5.918 -55.911  0.00  0.00    +0.000 A 
ATOM     24  C   UNL     1     -20.874   4.630 -56.404  0.00  0.00    +0.000 A 
ATOM     25  C   UNL     1     -22.371   6.256 -55.393  0.00  0.00    +0.000 A 
BRANCH  23  28
ATOM     26  O   UNL     1     -18.945   6.584 -56.394  0.00  0.00    +0.000 OA
ATOM     27  O   UNL     1     -20.308   8.056 -55.507  0.00  0.00    +0.000 OA
ATOM     28  N   UNL     1     -20.047   6.925 -55.938  0.00  0.00    +0.000 N 
ENDBRANCH  23  28
ENDBRANCH  19  20
ENDBRANCH  18  19
ENDBRANCH  16  18
ENDBRANCH   4  17
TORSDOF 6
ENDMDL
