REMARK  Name = 9607353
REMARK  6 active torsions:
REMARK  status: ('A' for Active; 'I' for Inactive)
REMARK    1  A    between atoms: O_3  and  N_8
REMARK    2  A    between atoms: O_3  and  C_22
REMARK    3  A    between atoms: N_9  and  C_26
REMARK    4  A    between atoms: C_10  and  C_15
REMARK    5  A    between atoms: C_11  and  C_13
REMARK    6  A    between atoms: C_19  and  C_22
REMARK                            x       y       z     vdW  Elec       q    Type
REMARK                         _______ _______ _______ _____ _____    ______ ____
ROOT
ATOM      1  S   UNL     1       0.067  -2.673  -4.620  0.00  0.00    +0.000 S 
ATOM      2  N   UNL     1       2.307  -1.958  -3.581  0.00  0.00    +0.000 N 
ATOM      3  N   UNL     1       0.644  -1.315  -2.233  0.00  0.00    +0.000 NA
ATOM      4  C   UNL     1       2.935  -1.381  -2.505  0.00  0.00    +0.000 A 
ATOM      5  C   UNL     1       1.872  -0.953  -1.700  0.00  0.00    +0.000 A 
ATOM      6  C   UNL     1       0.965  -1.903  -3.349  0.00  0.00    +0.000 A 
ATOM      7  C   UNL     1       2.669  -2.596  -4.748  0.00  0.00    +0.000 A 
ATOM      8  C   UNL     1       1.599  -3.043  -5.427  0.00  0.00    +0.000 A 
ENDROOT
BRANCH   5  10
ATOM      9 CL   UNL     1       2.204   2.005   3.491  0.00  0.00    +0.000 Cl
ATOM     10  C   UNL     1       1.965  -0.222  -0.442  0.00  0.00    +0.000 A 
ATOM     11  C   UNL     1       1.003  -0.433   0.555  0.00  0.00    +0.000 A 
ATOM     12  C   UNL     1       2.979   0.721  -0.211  0.00  0.00    +0.000 A 
ATOM     13  C   UNL     1       1.073   0.256   1.772  0.00  0.00    +0.000 A 
ATOM     14  C   UNL     1       3.058   1.399   1.008  0.00  0.00    +0.000 A 
ATOM     15  C   UNL     1       2.107   1.162   1.996  0.00  0.00    +0.000 A 
ENDBRANCH   5  10
BRANCH   4  17
ATOM     16  N   UNL     1       5.199  -1.271  -3.256  0.00  0.00    +0.000 NA
ATOM     17  C   UNL     1       4.349  -1.320  -2.281  0.00  0.00    +0.000 C 
BRANCH  16  18
ATOM     18  O   UNL     1       6.499  -1.221  -2.709  0.00  0.00    +0.000 OA
BRANCH  18  19
ATOM     19  C   UNL     1       7.374  -0.558  -3.626  0.00  0.00    +0.000 C 
BRANCH  19  20
ATOM     20  C   UNL     1       8.801  -0.661  -3.135  0.00  0.00    +0.000 A 
ATOM     21  C   UNL     1       9.443  -1.907  -3.065  0.00  0.00    +0.000 A 
ATOM     22  C   UNL     1       9.510   0.492  -2.764  0.00  0.00    +0.000 A 
ATOM     23  C   UNL     1      11.467  -0.844  -2.275  0.00  0.00    +0.000 A 
ATOM     24  C   UNL     1      10.773  -2.005  -2.638  0.00  0.00    +0.000 A 
ATOM     25  C   UNL     1      10.840   0.406  -2.335  0.00  0.00    +0.000 A 
BRANCH  23  28
ATOM     26  O   UNL     1      13.386  -2.059  -1.794  0.00  0.00    +0.000 OA
ATOM     27  O   UNL     1      13.441   0.117  -1.522  0.00  0.00    +0.000 OA
ATOM     28  N   UNL     1      12.864  -0.935  -1.831  0.00  0.00    +0.000 N 
ENDBRANCH  23  28
ENDBRANCH  19  20
ENDBRANCH  18  19
ENDBRANCH  16  18
ENDBRANCH   4  17
TORSDOF 6
