MODEL 1
REMARK VINA RESULT:      -6.2      0.000      0.000
REMARK  Name = 9619281
REMARK  5 active torsions:
REMARK  status: ('A' for Active; 'I' for Inactive)
REMARK    1  A    between atoms: O_4  and  N_8
REMARK    2  A    between atoms: O_4  and  C_24
REMARK    3  A    between atoms: C_9  and  C_14
REMARK    4  A    between atoms: C_10  and  C_12
REMARK    5  A    between atoms: C_21  and  C_24
REMARK                            x       y       z     vdW  Elec       q    Type
REMARK                         _______ _______ _______ _____ _____    ______ ____
ROOT
ATOM      1  S   UNL     1      -5.008   2.017 -31.190  0.00  0.00    +0.000 S 
ATOM      2  N   UNL     1      -5.968   1.749 -33.559  0.00  0.00    +0.000 N 
ATOM      3  N   UNL     1      -5.893   3.920 -33.056  0.00  0.00    +0.000 NA
ATOM      4  C   UNL     1      -6.471   2.380 -34.674  0.00  0.00    +0.000 A 
ATOM      5  C   UNL     1      -6.391   3.739 -34.339  0.00  0.00    +0.000 A 
ATOM      6  C   UNL     1      -5.639   2.711 -32.650  0.00  0.00    +0.000 A 
ATOM      7  C   UNL     1      -5.757   0.453 -33.135  0.00  0.00    +0.000 A 
ATOM      8  C   UNL     1      -5.243   0.410 -31.894  0.00  0.00    +0.000 A 
ENDROOT
BRANCH   5   9
ATOM      9  C   UNL     1      -6.764   4.881 -35.165  0.00  0.00    +0.000 A 
ATOM     10  C   UNL     1      -5.919   5.388 -36.159  0.00  0.00    +0.000 A 
ATOM     11  C   UNL     1      -7.993   5.522 -34.946  0.00  0.00    +0.000 A 
ATOM     12  C   UNL     1      -6.326   6.446 -36.975  0.00  0.00    +0.000 A 
ATOM     13  C   UNL     1      -8.392   6.597 -35.747  0.00  0.00    +0.000 A 
ATOM     14  C   UNL     1      -7.567   7.045 -36.776  0.00  0.00    +0.000 A 
ENDBRANCH   5   9
BRANCH   4  16
ATOM     15  N   UNL     1      -6.087   1.159 -36.649  0.00  0.00    +0.000 NA
ATOM     16  C   UNL     1      -6.942   1.709 -35.854  0.00  0.00    +0.000 C 
BRANCH  15  17
ATOM     17  O   UNL     1      -6.704   0.592 -37.786  0.00  0.00    +0.000 OA
BRANCH  17  19
ATOM     18  O   UNL     1      -6.215  -1.434 -36.763  0.00  0.00    +0.000 OA
ATOM     19  C   UNL     1      -6.506  -0.766 -37.748  0.00  0.00    +0.000 C 
BRANCH  19  22
ATOM     20 CL   UNL     1      -5.500  -4.623 -41.132  0.00  0.00    +0.000 Cl
ATOM     21 CL   UNL     1      -7.412  -3.066 -43.250  0.00  0.00    +0.000 Cl
ATOM     22  C   UNL     1      -6.689  -1.405 -39.084  0.00  0.00    +0.000 A 
ATOM     23  C   UNL     1      -6.081  -2.610 -39.455  0.00  0.00    +0.000 A 
ATOM     24  C   UNL     1      -7.511  -0.742 -40.011  0.00  0.00    +0.000 A 
ATOM     25  C   UNL     1      -6.291  -3.138 -40.739  0.00  0.00    +0.000 A 
ATOM     26  C   UNL     1      -7.722  -1.269 -41.289  0.00  0.00    +0.000 A 
ATOM     27  C   UNL     1      -7.112  -2.469 -41.657  0.00  0.00    +0.000 A 
ENDBRANCH  19  22
ENDBRANCH  17  19
ENDBRANCH  15  17
ENDBRANCH   4  16
TORSDOF 5
ENDMDL
MODEL 2
REMARK VINA RESULT:      -5.7     21.026     23.134
REMARK  Name = 9619281
REMARK  5 active torsions:
REMARK  status: ('A' for Active; 'I' for Inactive)
REMARK    1  A    between atoms: O_4  and  N_8
REMARK    2  A    between atoms: O_4  and  C_24
REMARK    3  A    between atoms: C_9  and  C_14
REMARK    4  A    between atoms: C_10  and  C_12
REMARK    5  A    between atoms: C_21  and  C_24
REMARK                            x       y       z     vdW  Elec       q    Type
REMARK                         _______ _______ _______ _____ _____    ______ ____
ROOT
ATOM      1  S   UNL     1      -5.394  13.916 -50.857  0.00  0.00    +0.000 S 
ATOM      2  N   UNL     1      -6.162  14.420 -53.258  0.00  0.00    +0.000 N 
ATOM      3  N   UNL     1      -7.578  12.962 -52.342  0.00  0.00    +0.000 NA
ATOM      4  C   UNL     1      -7.086  14.170 -54.245  0.00  0.00    +0.000 A 
ATOM      5  C   UNL     1      -7.974  13.271 -53.636  0.00  0.00    +0.000 A 
ATOM      6  C   UNL     1      -6.514  13.687 -52.164  0.00  0.00    +0.000 A 
ATOM      7  C   UNL     1      -5.006  15.160 -53.113  0.00  0.00    +0.000 A 
ATOM      8  C   UNL     1      -4.467  15.013 -51.891  0.00  0.00    +0.000 A 
ENDROOT
BRANCH   5   9
ATOM      9  C   UNL     1      -9.177  12.683 -54.213  0.00  0.00    +0.000 A 
ATOM     10  C   UNL     1      -9.122  11.746 -55.251  0.00  0.00    +0.000 A 
ATOM     11  C   UNL     1     -10.437  13.082 -53.743  0.00  0.00    +0.000 A 
ATOM     12  C   UNL     1     -10.287  11.154 -55.745  0.00  0.00    +0.000 A 
ATOM     13  C   UNL     1     -11.606  12.509 -54.252  0.00  0.00    +0.000 A 
ATOM     14  C   UNL     1     -11.529  11.528 -55.239  0.00  0.00    +0.000 A 
ENDBRANCH   5   9
BRANCH   4  16
ATOM     15  N   UNL     1      -8.142  15.249 -56.052  0.00  0.00    +0.000 NA
ATOM     16  C   UNL     1      -7.058  14.748 -55.561  0.00  0.00    +0.000 C 
BRANCH  15  17
ATOM     17  O   UNL     1      -7.961  15.723 -57.369  0.00  0.00    +0.000 OA
BRANCH  17  19
ATOM     18  O   UNL     1      -7.136  14.163 -58.880  0.00  0.00    +0.000 OA
ATOM     19  C   UNL     1      -8.050  14.653 -58.225  0.00  0.00    +0.000 C 
BRANCH  19  22
ATOM     20 CL   UNL     1     -11.404  10.983 -59.844  0.00  0.00    +0.000 Cl
ATOM     21 CL   UNL     1     -13.748  12.679 -58.364  0.00  0.00    +0.000 Cl
ATOM     22  C   UNL     1      -9.431  14.092 -58.294  0.00  0.00    +0.000 A 
ATOM     23  C   UNL     1      -9.751  12.904 -58.961  0.00  0.00    +0.000 A 
ATOM     24  C   UNL     1     -10.456  14.817 -57.662  0.00  0.00    +0.000 A 
ATOM     25  C   UNL     1     -11.080  12.452 -58.994  0.00  0.00    +0.000 A 
ATOM     26  C   UNL     1     -11.779  14.366 -57.693  0.00  0.00    +0.000 A 
ATOM     27  C   UNL     1     -12.095  13.181 -58.360  0.00  0.00    +0.000 A 
ENDBRANCH  19  22
ENDBRANCH  17  19
ENDBRANCH  15  17
ENDBRANCH   4  16
TORSDOF 5
ENDMDL
MODEL 3
REMARK VINA RESULT:      -5.6     24.928     26.688
REMARK  Name = 9619281
REMARK  5 active torsions:
REMARK  status: ('A' for Active; 'I' for Inactive)
REMARK    1  A    between atoms: O_4  and  N_8
REMARK    2  A    between atoms: O_4  and  C_24
REMARK    3  A    between atoms: C_9  and  C_14
REMARK    4  A    between atoms: C_10  and  C_12
REMARK    5  A    between atoms: C_21  and  C_24
REMARK                            x       y       z     vdW  Elec       q    Type
REMARK                         _______ _______ _______ _____ _____    ______ ____
ROOT
ATOM      1  S   UNL     1     -22.470  12.505 -60.526  0.00  0.00    +0.000 S 
ATOM      2  N   UNL     1     -21.080  11.368 -58.687  0.00  0.00    +0.000 N 
ATOM      3  N   UNL     1     -19.750  12.719 -59.860  0.00  0.00    +0.000 NA
ATOM      4  C   UNL     1     -19.842  11.225 -58.104  0.00  0.00    +0.000 A 
ATOM      5  C   UNL     1     -19.034  12.100 -58.844  0.00  0.00    +0.000 A 
ATOM      6  C   UNL     1     -20.959  12.265 -59.706  0.00  0.00    +0.000 A 
ATOM      7  C   UNL     1     -22.343  10.831 -58.533  0.00  0.00    +0.000 A 
ATOM      8  C   UNL     1     -23.211  11.330 -59.428  0.00  0.00    +0.000 A 
ENDROOT
BRANCH   5   9
ATOM      9  C   UNL     1     -17.617  12.382 -58.648  0.00  0.00    +0.000 A 
ATOM     10  C   UNL     1     -16.629  11.418 -58.877  0.00  0.00    +0.000 A 
ATOM     11  C   UNL     1     -17.220  13.645 -58.184  0.00  0.00    +0.000 A 
ATOM     12  C   UNL     1     -15.275  11.732 -58.737  0.00  0.00    +0.000 A 
ATOM     13  C   UNL     1     -15.866  13.954 -58.020  0.00  0.00    +0.000 A 
ATOM     14  C   UNL     1     -14.892  13.003 -58.317  0.00  0.00    +0.000 A 
ENDBRANCH   5   9
BRANCH   4  16
ATOM     15  N   UNL     1     -19.072   9.179 -57.231  0.00  0.00    +0.000 NA
ATOM     16  C   UNL     1     -19.551  10.355 -56.997  0.00  0.00    +0.000 C 
BRANCH  15  17
ATOM     17  O   UNL     1     -18.895   8.432 -56.046  0.00  0.00    +0.000 OA
BRANCH  17  19
ATOM     18  O   UNL     1     -18.652   6.300 -56.935  0.00  0.00    +0.000 OA
ATOM     19  C   UNL     1     -19.279   7.137 -56.295  0.00  0.00    +0.000 C 
BRANCH  19  22
ATOM     20 CL   UNL     1     -23.497   4.067 -55.937  0.00  0.00    +0.000 Cl
ATOM     21 CL   UNL     1     -24.603   6.102 -53.657  0.00  0.00    +0.000 Cl
ATOM     22  C   UNL     1     -20.598   6.805 -55.682  0.00  0.00    +0.000 A 
ATOM     23  C   UNL     1     -21.362   5.690 -56.046  0.00  0.00    +0.000 A 
ATOM     24  C   UNL     1     -21.091   7.678 -54.697  0.00  0.00    +0.000 A 
ATOM     25  C   UNL     1     -22.603   5.457 -55.431  0.00  0.00    +0.000 A 
ATOM     26  C   UNL     1     -22.326   7.445 -54.083  0.00  0.00    +0.000 A 
ATOM     27  C   UNL     1     -23.086   6.333 -54.450  0.00  0.00    +0.000 A 
ENDBRANCH  19  22
ENDBRANCH  17  19
ENDBRANCH  15  17
ENDBRANCH   4  16
TORSDOF 5
ENDMDL
MODEL 4
REMARK VINA RESULT:      -5.5     16.071     18.605
REMARK  Name = 9619281
REMARK  5 active torsions:
REMARK  status: ('A' for Active; 'I' for Inactive)
REMARK    1  A    between atoms: O_4  and  N_8
REMARK    2  A    between atoms: O_4  and  C_24
REMARK    3  A    between atoms: C_9  and  C_14
REMARK    4  A    between atoms: C_10  and  C_12
REMARK    5  A    between atoms: C_21  and  C_24
REMARK                            x       y       z     vdW  Elec       q    Type
REMARK                         _______ _______ _______ _____ _____    ______ ____
ROOT
ATOM      1  S   UNL     1      -7.530  -1.726 -51.408  0.00  0.00    +0.000 S 
ATOM      2  N   UNL     1      -6.020  -0.142 -52.756  0.00  0.00    +0.000 N 
ATOM      3  N   UNL     1      -4.957  -0.729 -50.886  0.00  0.00    +0.000 NA
ATOM      4  C   UNL     1      -4.815   0.519 -52.822  0.00  0.00    +0.000 A 
ATOM      5  C   UNL     1      -4.161   0.114 -51.649  0.00  0.00    +0.000 A 
ATOM      6  C   UNL     1      -6.035  -0.864 -51.599  0.00  0.00    +0.000 A 
ATOM      7  C   UNL     1      -7.174  -0.226 -53.509  0.00  0.00    +0.000 A 
ATOM      8  C   UNL     1      -8.084  -1.033 -52.940  0.00  0.00    +0.000 A 
ENDROOT
BRANCH   5   9
ATOM      9  C   UNL     1      -2.823   0.485 -51.205  0.00  0.00    +0.000 A 
ATOM     10  C   UNL     1      -2.570   1.679 -50.521  0.00  0.00    +0.000 A 
ATOM     11  C   UNL     1      -1.738  -0.357 -51.495  0.00  0.00    +0.000 A 
ATOM     12  C   UNL     1      -1.289   1.983 -50.055  0.00  0.00    +0.000 A 
ATOM     13  C   UNL     1      -0.450  -0.044 -51.051  0.00  0.00    +0.000 A 
ATOM     14  C   UNL     1      -0.230   1.117 -50.312  0.00  0.00    +0.000 A 
ENDBRANCH   5   9
BRANCH   4  16
ATOM     15  N   UNL     1      -5.202   2.360 -54.237  0.00  0.00    +0.000 NA
ATOM     16  C   UNL     1      -4.417   1.396 -53.889  0.00  0.00    +0.000 C 
BRANCH  15  17
ATOM     17  O   UNL     1      -4.693   3.092 -55.332  0.00  0.00    +0.000 OA
BRANCH  17  19
ATOM     18  O   UNL     1      -5.707   4.891 -54.269  0.00  0.00    +0.000 OA
ATOM     19  C   UNL     1      -4.950   4.423 -55.113  0.00  0.00    +0.000 C 
BRANCH  19  22
ATOM     20 CL   UNL     1      -3.083   5.531 -59.869  0.00  0.00    +0.000 Cl
ATOM     21 CL   UNL     1      -1.745   8.190 -58.564  0.00  0.00    +0.000 Cl
ATOM     22  C   UNL     1      -4.184   5.311 -56.034  0.00  0.00    +0.000 A 
ATOM     23  C   UNL     1      -4.013   5.047 -57.398  0.00  0.00    +0.000 A 
ATOM     24  C   UNL     1      -3.596   6.463 -55.484  0.00  0.00    +0.000 A 
ATOM     25  C   UNL     1      -3.261   5.925 -58.196  0.00  0.00    +0.000 A 
ATOM     26  C   UNL     1      -2.849   7.338 -56.278  0.00  0.00    +0.000 A 
ATOM     27  C   UNL     1      -2.679   7.071 -57.638  0.00  0.00    +0.000 A 
ENDBRANCH  19  22
ENDBRANCH  17  19
ENDBRANCH  15  17
ENDBRANCH   4  16
TORSDOF 5
ENDMDL
MODEL 5
REMARK VINA RESULT:      -5.4     24.514     26.675
REMARK  Name = 9619281
REMARK  5 active torsions:
REMARK  status: ('A' for Active; 'I' for Inactive)
REMARK    1  A    between atoms: O_4  and  N_8
REMARK    2  A    between atoms: O_4  and  C_24
REMARK    3  A    between atoms: C_9  and  C_14
REMARK    4  A    between atoms: C_10  and  C_12
REMARK    5  A    between atoms: C_21  and  C_24
REMARK                            x       y       z     vdW  Elec       q    Type
REMARK                         _______ _______ _______ _____ _____    ______ ____
ROOT
ATOM      1  S   UNL     1      -9.959  13.513 -54.414  0.00  0.00    +0.000 S 
ATOM      2  N   UNL     1     -10.089  12.632 -56.825  0.00  0.00    +0.000 N 
ATOM      3  N   UNL     1     -12.131  12.579 -55.929  0.00  0.00    +0.000 NA
ATOM      4  C   UNL     1     -10.891  12.126 -57.822  0.00  0.00    +0.000 A 
ATOM      5  C   UNL     1     -12.167  12.126 -57.241  0.00  0.00    +0.000 A 
ATOM      6  C   UNL     1     -10.881  12.886 -55.744  0.00  0.00    +0.000 A 
ATOM      7  C   UNL     1      -8.748  12.900 -56.638  0.00  0.00    +0.000 A 
ATOM      8  C   UNL     1      -8.501  13.382 -55.409  0.00  0.00    +0.000 A 
ENDROOT
BRANCH   5   9
ATOM      9  C   UNL     1     -13.423  11.715 -57.857  0.00  0.00    +0.000 A 
ATOM     10  C   UNL     1     -13.705  10.376 -58.151  0.00  0.00    +0.000 A 
ATOM     11  C   UNL     1     -14.377  12.686 -58.199  0.00  0.00    +0.000 A 
ATOM     12  C   UNL     1     -14.939  10.003 -58.687  0.00  0.00    +0.000 A 
ATOM     13  C   UNL     1     -15.604  12.317 -58.758  0.00  0.00    +0.000 A 
ATOM     14  C   UNL     1     -15.894  10.973 -58.982  0.00  0.00    +0.000 A 
ENDBRANCH   5   9
BRANCH   4  16
ATOM     15  N   UNL     1     -11.065  12.127 -60.170  0.00  0.00    +0.000 NA
ATOM     16  C   UNL     1     -10.428  11.723 -59.122  0.00  0.00    +0.000 C 
BRANCH  15  17
ATOM     17  O   UNL     1     -10.519  11.598 -61.360  0.00  0.00    +0.000 OA
BRANCH  17  19
ATOM     18  O   UNL     1     -12.715  11.535 -62.114  0.00  0.00    +0.000 OA
ATOM     19  C   UNL     1     -11.506  11.586 -62.315  0.00  0.00    +0.000 C 
BRANCH  19  22
ATOM     20 CL   UNL     1      -7.456  11.885 -65.607  0.00  0.00    +0.000 Cl
ATOM     21 CL   UNL     1      -9.617  11.893 -68.034  0.00  0.00    +0.000 Cl
ATOM     22  C   UNL     1     -10.959  11.652 -63.701  0.00  0.00    +0.000 A 
ATOM     23  C   UNL     1      -9.592  11.718 -63.990  0.00  0.00    +0.000 A 
ATOM     24  C   UNL     1     -11.882  11.659 -64.761  0.00  0.00    +0.000 A 
ATOM     25  C   UNL     1      -9.158  11.795 -65.324  0.00  0.00    +0.000 A 
ATOM     26  C   UNL     1     -11.450  11.733 -66.089  0.00  0.00    +0.000 A 
ATOM     27  C   UNL     1     -10.086  11.802 -66.374  0.00  0.00    +0.000 A 
ENDBRANCH  19  22
ENDBRANCH  17  19
ENDBRANCH  15  17
ENDBRANCH   4  16
TORSDOF 5
ENDMDL
MODEL 6
REMARK VINA RESULT:      -5.4     24.714     27.065
REMARK  Name = 9619281
REMARK  5 active torsions:
REMARK  status: ('A' for Active; 'I' for Inactive)
REMARK    1  A    between atoms: O_4  and  N_8
REMARK    2  A    between atoms: O_4  and  C_24
REMARK    3  A    between atoms: C_9  and  C_14
REMARK    4  A    between atoms: C_10  and  C_12
REMARK    5  A    between atoms: C_21  and  C_24
REMARK                            x       y       z     vdW  Elec       q    Type
REMARK                         _______ _______ _______ _____ _____    ______ ____
ROOT
ATOM      1  S   UNL     1     -18.278  13.254 -60.798  0.00  0.00    +0.000 S 
ATOM      2  N   UNL     1     -18.629  11.533 -58.921  0.00  0.00    +0.000 N 
ATOM      3  N   UNL     1     -20.461  11.594 -60.191  0.00  0.00    +0.000 NA
ATOM      4  C   UNL     1     -19.479  10.617 -58.346  0.00  0.00    +0.000 A 
ATOM      5  C   UNL     1     -20.608  10.660 -59.176  0.00  0.00    +0.000 A 
ATOM      6  C   UNL     1     -19.262  12.064 -60.006  0.00  0.00    +0.000 A 
ATOM      7  C   UNL     1     -17.374  12.052 -58.670  0.00  0.00    +0.000 A 
ATOM      8  C   UNL     1     -17.026  12.979 -59.577  0.00  0.00    +0.000 A 
ENDROOT
BRANCH   5   9
ATOM      9  C   UNL     1     -21.826   9.867 -59.059  0.00  0.00    +0.000 A 
ATOM     10  C   UNL     1     -22.510   9.384 -60.180  0.00  0.00    +0.000 A 
ATOM     11  C   UNL     1     -22.360   9.600 -57.789  0.00  0.00    +0.000 A 
ATOM     12  C   UNL     1     -23.642   8.577 -60.038  0.00  0.00    +0.000 A 
ATOM     13  C   UNL     1     -23.506   8.813 -57.645  0.00  0.00    +0.000 A 
ATOM     14  C   UNL     1     -24.135   8.284 -58.770  0.00  0.00    +0.000 A 
ENDBRANCH   5   9
BRANCH   4  16
ATOM     15  N   UNL     1     -18.794   8.623 -57.299  0.00  0.00    +0.000 NA
ATOM     16  C   UNL     1     -19.181   9.848 -57.169  0.00  0.00    +0.000 C 
BRANCH  15  17
ATOM     17  O   UNL     1     -18.598   7.991 -56.051  0.00  0.00    +0.000 OA
BRANCH  17  19
ATOM     18  O   UNL     1     -18.729   5.718 -56.505  0.00  0.00    +0.000 OA
ATOM     19  C   UNL     1     -19.214   6.765 -56.090  0.00  0.00    +0.000 C 
BRANCH  19  22
ATOM     20 CL   UNL     1     -22.868   8.991 -53.085  0.00  0.00    +0.000 Cl
ATOM     21 CL   UNL     1     -24.884   6.627 -54.040  0.00  0.00    +0.000 Cl
ATOM     22  C   UNL     1     -20.603   6.807 -55.549  0.00  0.00    +0.000 A 
ATOM     23  C   UNL     1     -21.058   7.791 -54.663  0.00  0.00    +0.000 A 
ATOM     24  C   UNL     1     -21.486   5.789 -55.950  0.00  0.00    +0.000 A 
ATOM     25  C   UNL     1     -22.378   7.750 -54.184  0.00  0.00    +0.000 A 
ATOM     26  C   UNL     1     -22.801   5.751 -55.476  0.00  0.00    +0.000 A 
ATOM     27  C   UNL     1     -23.251   6.732 -54.590  0.00  0.00    +0.000 A 
ENDBRANCH  19  22
ENDBRANCH  17  19
ENDBRANCH  15  17
ENDBRANCH   4  16
TORSDOF 5
ENDMDL
MODEL 7
REMARK VINA RESULT:      -5.4     24.572     26.815
REMARK  Name = 9619281
REMARK  5 active torsions:
REMARK  status: ('A' for Active; 'I' for Inactive)
REMARK    1  A    between atoms: O_4  and  N_8
REMARK    2  A    between atoms: O_4  and  C_24
REMARK    3  A    between atoms: C_9  and  C_14
REMARK    4  A    between atoms: C_10  and  C_12
REMARK    5  A    between atoms: C_21  and  C_24
REMARK                            x       y       z     vdW  Elec       q    Type
REMARK                         _______ _______ _______ _____ _____    ______ ____
ROOT
ATOM      1  S   UNL     1     -10.252  14.116 -54.226  0.00  0.00    +0.000 S 
ATOM      2  N   UNL     1     -10.467  13.962 -56.783  0.00  0.00    +0.000 N 
ATOM      3  N   UNL     1     -12.079  12.735 -55.851  0.00  0.00    +0.000 NA
ATOM      4  C   UNL     1     -11.159  13.434 -57.848  0.00  0.00    +0.000 A 
ATOM      5  C   UNL     1     -12.176  12.689 -57.235  0.00  0.00    +0.000 A 
ATOM      6  C   UNL     1     -11.064  13.520 -55.639  0.00  0.00    +0.000 A 
ATOM      7  C   UNL     1      -9.354  14.755 -56.587  0.00  0.00    +0.000 A 
ATOM      8  C   UNL     1      -9.098  14.945 -55.282  0.00  0.00    +0.000 A 
ENDROOT
BRANCH   5   9
ATOM      9  C   UNL     1     -13.236  11.929 -57.886  0.00  0.00    +0.000 A 
ATOM     10  C   UNL     1     -14.461  12.509 -58.234  0.00  0.00    +0.000 A 
ATOM     11  C   UNL     1     -13.049  10.563 -58.150  0.00  0.00    +0.000 A 
ATOM     12  C   UNL     1     -15.438  11.773 -58.910  0.00  0.00    +0.000 A 
ATOM     13  C   UNL     1     -14.034   9.819 -58.805  0.00  0.00    +0.000 A 
ATOM     14  C   UNL     1     -15.220  10.430 -59.204  0.00  0.00    +0.000 A 
ENDBRANCH   5   9
BRANCH   4  16
ATOM     15  N   UNL     1     -10.479  12.653 -59.962  0.00  0.00    +0.000 NA
ATOM     16  C   UNL     1     -10.832  13.656 -59.230  0.00  0.00    +0.000 C 
BRANCH  15  17
ATOM     17  O   UNL     1     -10.139  13.046 -61.275  0.00  0.00    +0.000 OA
BRANCH  17  19
ATOM     18  O   UNL     1     -10.414  11.150 -62.588  0.00  0.00    +0.000 OA
ATOM     19  C   UNL     1     -10.806  12.228 -62.154  0.00  0.00    +0.000 C 
BRANCH  19  22
ATOM     20 CL   UNL     1     -13.674  15.679 -64.838  0.00  0.00    +0.000 Cl
ATOM     21 CL   UNL     1     -16.305  14.275 -63.546  0.00  0.00    +0.000 Cl
ATOM     22  C   UNL     1     -12.130  12.784 -62.557  0.00  0.00    +0.000 A 
ATOM     23  C   UNL     1     -12.280  13.862 -63.437  0.00  0.00    +0.000 A 
ATOM     24  C   UNL     1     -13.277  12.189 -62.004  0.00  0.00    +0.000 A 
ATOM     25  C   UNL     1     -13.564  14.338 -63.753  0.00  0.00    +0.000 A 
ATOM     26  C   UNL     1     -14.555  12.662 -62.321  0.00  0.00    +0.000 A 
ATOM     27  C   UNL     1     -14.701  13.738 -63.197  0.00  0.00    +0.000 A 
ENDBRANCH  19  22
ENDBRANCH  17  19
ENDBRANCH  15  17
ENDBRANCH   4  16
TORSDOF 5
ENDMDL
MODEL 8
REMARK VINA RESULT:      -5.4      4.284      7.557
REMARK  Name = 9619281
REMARK  5 active torsions:
REMARK  status: ('A' for Active; 'I' for Inactive)
REMARK    1  A    between atoms: O_4  and  N_8
REMARK    2  A    between atoms: O_4  and  C_24
REMARK    3  A    between atoms: C_9  and  C_14
REMARK    4  A    between atoms: C_10  and  C_12
REMARK    5  A    between atoms: C_21  and  C_24
REMARK                            x       y       z     vdW  Elec       q    Type
REMARK                         _______ _______ _______ _____ _____    ______ ____
ROOT
ATOM      1  S   UNL     1      -3.895  -4.355 -37.659  0.00  0.00    +0.000 S 
ATOM      2  N   UNL     1      -5.207  -2.208 -37.135  0.00  0.00    +0.000 N 
ATOM      3  N   UNL     1      -3.805  -2.621 -35.451  0.00  0.00    +0.000 NA
ATOM      4  C   UNL     1      -5.427  -1.184 -36.243  0.00  0.00    +0.000 A 
ATOM      5  C   UNL     1      -4.519  -1.456 -35.210  0.00  0.00    +0.000 A 
ATOM      6  C   UNL     1      -4.237  -3.012 -36.614  0.00  0.00    +0.000 A 
ATOM      7  C   UNL     1      -5.721  -2.628 -38.346  0.00  0.00    +0.000 A 
ATOM      8  C   UNL     1      -5.131  -3.756 -38.776  0.00  0.00    +0.000 A 
ENDROOT
BRANCH   5   9
ATOM      9  C   UNL     1      -4.291  -0.676 -33.999  0.00  0.00    +0.000 A 
ATOM     10  C   UNL     1      -4.674  -1.136 -32.735  0.00  0.00    +0.000 A 
ATOM     11  C   UNL     1      -3.699   0.593 -34.094  0.00  0.00    +0.000 A 
ATOM     12  C   UNL     1      -4.391  -0.394 -31.585  0.00  0.00    +0.000 A 
ATOM     13  C   UNL     1      -3.436   1.348 -32.947  0.00  0.00    +0.000 A 
ATOM     14  C   UNL     1      -3.763   0.844 -31.690  0.00  0.00    +0.000 A 
ENDBRANCH   5   9
BRANCH   4  16
ATOM     15  N   UNL     1      -5.995   1.006 -36.894  0.00  0.00    +0.000 NA
ATOM     16  C   UNL     1      -6.388  -0.130 -36.424  0.00  0.00    +0.000 C 
BRANCH  15  17
ATOM     17  O   UNL     1      -7.045   1.948 -36.958  0.00  0.00    +0.000 OA
BRANCH  17  19
ATOM     18  O   UNL     1      -5.376   3.444 -36.348  0.00  0.00    +0.000 OA
ATOM     19  C   UNL     1      -6.552   3.166 -36.557  0.00  0.00    +0.000 C 
BRANCH  19  22
ATOM     20 CL   UNL     1     -11.424   4.843 -37.445  0.00  0.00    +0.000 Cl
ATOM     21 CL   UNL     1     -10.655   7.512 -35.757  0.00  0.00    +0.000 Cl
ATOM     22  C   UNL     1      -7.625   4.189 -36.393  0.00  0.00    +0.000 A 
ATOM     23  C   UNL     1      -8.911   4.054 -36.930  0.00  0.00    +0.000 A 
ATOM     24  C   UNL     1      -7.306   5.350 -35.669  0.00  0.00    +0.000 A 
ATOM     25  C   UNL     1      -9.860   5.072 -36.745  0.00  0.00    +0.000 A 
ATOM     26  C   UNL     1      -8.253   6.363 -35.482  0.00  0.00    +0.000 A 
ATOM     27  C   UNL     1      -9.533   6.226 -36.021  0.00  0.00    +0.000 A 
ENDBRANCH  19  22
ENDBRANCH  17  19
ENDBRANCH  15  17
ENDBRANCH   4  16
TORSDOF 5
ENDMDL
MODEL 9
REMARK VINA RESULT:      -5.4     21.831     23.086
REMARK  Name = 9619281
REMARK  5 active torsions:
REMARK  status: ('A' for Active; 'I' for Inactive)
REMARK    1  A    between atoms: O_4  and  N_8
REMARK    2  A    between atoms: O_4  and  C_24
REMARK    3  A    between atoms: C_9  and  C_14
REMARK    4  A    between atoms: C_10  and  C_12
REMARK    5  A    between atoms: C_21  and  C_24
REMARK                            x       y       z     vdW  Elec       q    Type
REMARK                         _______ _______ _______ _____ _____    ______ ____
ROOT
ATOM      1  S   UNL     1     -26.635   1.611 -42.969  0.00  0.00    +0.000 S 
ATOM      2  N   UNL     1     -27.088   0.132 -45.022  0.00  0.00    +0.000 N 
ATOM      3  N   UNL     1     -25.846   1.873 -45.652  0.00  0.00    +0.000 NA
ATOM      4  C   UNL     1     -26.896  -0.052 -46.372  0.00  0.00    +0.000 A 
ATOM      5  C   UNL     1     -26.096   1.041 -46.735  0.00  0.00    +0.000 A 
ATOM      6  C   UNL     1     -26.438   1.275 -44.661  0.00  0.00    +0.000 A 
ATOM      7  C   UNL     1     -27.770  -0.497 -43.999  0.00  0.00    +0.000 A 
ATOM      8  C   UNL     1     -27.632   0.155 -42.832  0.00  0.00    +0.000 A 
ENDROOT
BRANCH   5   9
ATOM      9  C   UNL     1     -25.555   1.347 -48.054  0.00  0.00    +0.000 A 
ATOM     10  C   UNL     1     -24.453   0.666 -48.582  0.00  0.00    +0.000 A 
ATOM     11  C   UNL     1     -26.129   2.375 -48.816  0.00  0.00    +0.000 A 
ATOM     12  C   UNL     1     -23.992   0.938 -49.873  0.00  0.00    +0.000 A 
ATOM     13  C   UNL     1     -25.654   2.667 -50.099  0.00  0.00    +0.000 A 
ATOM     14  C   UNL     1     -24.599   1.933 -50.635  0.00  0.00    +0.000 A 
ENDBRANCH   5   9
BRANCH   4  16
ATOM     15  N   UNL     1     -26.644  -2.085 -47.530  0.00  0.00    +0.000 NA
ATOM     16  C   UNL     1     -27.434  -1.143 -47.137  0.00  0.00    +0.000 C 
BRANCH  15  17
ATOM     17  O   UNL     1     -27.314  -3.049 -48.314  0.00  0.00    +0.000 OA
BRANCH  17  19
ATOM     18  O   UNL     1     -25.841  -4.650 -49.128  0.00  0.00    +0.000 OA
ATOM     19  C   UNL     1     -26.415  -3.570 -49.213  0.00  0.00    +0.000 C 
BRANCH  19  22
ATOM     20 CL   UNL     1     -23.309  -1.680 -52.970  0.00  0.00    +0.000 Cl
ATOM     21 CL   UNL     1     -25.783   0.235 -53.849  0.00  0.00    +0.000 Cl
ATOM     22  C   UNL     1     -26.184  -2.666 -50.376  0.00  0.00    +0.000 A 
ATOM     23  C   UNL     1     -24.975  -2.604 -51.079  0.00  0.00    +0.000 A 
ATOM     24  C   UNL     1     -27.244  -1.829 -50.766  0.00  0.00    +0.000 A 
ATOM     25  C   UNL     1     -24.832  -1.711 -52.155  0.00  0.00    +0.000 A 
ATOM     26  C   UNL     1     -27.102  -0.943 -51.839  0.00  0.00    +0.000 A 
ATOM     27  C   UNL     1     -25.895  -0.881 -52.536  0.00  0.00    +0.000 A 
ENDBRANCH  19  22
ENDBRANCH  17  19
ENDBRANCH  15  17
ENDBRANCH   4  16
TORSDOF 5
ENDMDL
MODEL 10
REMARK VINA RESULT:      -5.4     15.084     17.264
REMARK  Name = 9619281
REMARK  5 active torsions:
REMARK  status: ('A' for Active; 'I' for Inactive)
REMARK    1  A    between atoms: O_4  and  N_8
REMARK    2  A    between atoms: O_4  and  C_24
REMARK    3  A    between atoms: C_9  and  C_14
REMARK    4  A    between atoms: C_10  and  C_12
REMARK    5  A    between atoms: C_21  and  C_24
REMARK                            x       y       z     vdW  Elec       q    Type
REMARK                         _______ _______ _______ _____ _____    ______ ____
ROOT
ATOM      1  S   UNL     1      -5.342  -5.548 -49.676  0.00  0.00    +0.000 S 
ATOM      2  N   UNL     1      -4.809  -3.106 -50.275  0.00  0.00    +0.000 N 
ATOM      3  N   UNL     1      -6.423  -3.841 -51.627  0.00  0.00    +0.000 NA
ATOM      4  C   UNL     1      -5.092  -2.035 -51.090  0.00  0.00    +0.000 A 
ATOM      5  C   UNL     1      -6.122  -2.517 -51.911  0.00  0.00    +0.000 A 
ATOM      6  C   UNL     1      -5.632  -4.132 -50.636  0.00  0.00    +0.000 A 
ATOM      7  C   UNL     1      -3.921  -3.404 -49.260  0.00  0.00    +0.000 A 
ATOM      8  C   UNL     1      -4.071  -4.664 -48.819  0.00  0.00    +0.000 A 
ENDROOT
BRANCH   5   9
ATOM      9  C   UNL     1      -6.837  -1.794 -52.956  0.00  0.00    +0.000 A 
ATOM     10  C   UNL     1      -6.287  -1.585 -54.225  0.00  0.00    +0.000 A 
ATOM     11  C   UNL     1      -8.104  -1.257 -52.684  0.00  0.00    +0.000 A 
ATOM     12  C   UNL     1      -7.017  -0.940 -55.226  0.00  0.00    +0.000 A 
ATOM     13  C   UNL     1      -8.828  -0.590 -53.677  0.00  0.00    +0.000 A 
ATOM     14  C   UNL     1      -8.292  -0.450 -54.955  0.00  0.00    +0.000 A 
ENDBRANCH   5   9
BRANCH   4  16
ATOM     15  N   UNL     1      -3.909  -0.273 -52.109  0.00  0.00    +0.000 NA
ATOM     16  C   UNL     1      -4.427  -0.762 -51.032  0.00  0.00    +0.000 C 
BRANCH  15  17
ATOM     17  O   UNL     1      -3.247   0.952 -51.873  0.00  0.00    +0.000 OA
BRANCH  17  19
ATOM     18  O   UNL     1      -4.801   2.448 -51.013  0.00  0.00    +0.000 OA
ATOM     19  C   UNL     1      -4.175   1.962 -51.948  0.00  0.00    +0.000 C 
BRANCH  19  22
ATOM     20 CL   UNL     1      -4.293   1.119 -57.107  0.00  0.00    +0.000 Cl
ATOM     21 CL   UNL     1      -4.964   4.279 -57.460  0.00  0.00    +0.000 Cl
ATOM     22  C   UNL     1      -4.369   2.455 -53.342  0.00  0.00    +0.000 A 
ATOM     23  C   UNL     1      -4.265   1.638 -54.473  0.00  0.00    +0.000 A 
ATOM     24  C   UNL     1      -4.656   3.821 -53.511  0.00  0.00    +0.000 A 
ATOM     25  C   UNL     1      -4.445   2.185 -55.755  0.00  0.00    +0.000 A 
ATOM     26  C   UNL     1      -4.837   4.364 -54.786  0.00  0.00    +0.000 A 
ATOM     27  C   UNL     1      -4.732   3.547 -55.913  0.00  0.00    +0.000 A 
ENDBRANCH  19  22
ENDBRANCH  17  19
ENDBRANCH  15  17
ENDBRANCH   4  16
TORSDOF 5
ENDMDL
