MODEL 1
REMARK VINA RESULT:      -5.6      0.000      0.000
REMARK  Name = 9619281
REMARK  5 active torsions:
REMARK  status: ('A' for Active; 'I' for Inactive)
REMARK    1  A    between atoms: O_4  and  N_8
REMARK    2  A    between atoms: O_4  and  C_24
REMARK    3  A    between atoms: C_9  and  C_14
REMARK    4  A    between atoms: C_10  and  C_12
REMARK    5  A    between atoms: C_21  and  C_24
REMARK                            x       y       z     vdW  Elec       q    Type
REMARK                         _______ _______ _______ _____ _____    ______ ____
ROOT
ATOM      1  S   UNL     1       8.780  17.346  21.227  0.00  0.00    +0.000 S 
ATOM      2  N   UNL     1       6.508  16.482  22.064  0.00  0.00    +0.000 N 
ATOM      3  N   UNL     1       6.377  16.834  19.866  0.00  0.00    +0.000 NA
ATOM      4  C   UNL     1       5.217  16.140  21.736  0.00  0.00    +0.000 A 
ATOM      5  C   UNL     1       5.170  16.349  20.350  0.00  0.00    +0.000 A 
ATOM      6  C   UNL     1       7.138  16.872  20.919  0.00  0.00    +0.000 A 
ATOM      7  C   UNL     1       7.278  16.561  23.207  0.00  0.00    +0.000 A 
ATOM      8  C   UNL     1       8.521  16.999  22.944  0.00  0.00    +0.000 A 
ENDROOT
BRANCH   5   9
ATOM      9  C   UNL     1       4.043  16.119  19.455  0.00  0.00    +0.000 A 
ATOM     10  C   UNL     1       4.037  15.080  18.517  0.00  0.00    +0.000 A 
ATOM     11  C   UNL     1       2.934  16.977  19.501  0.00  0.00    +0.000 A 
ATOM     12  C   UNL     1       2.920  14.846  17.712  0.00  0.00    +0.000 A 
ATOM     13  C   UNL     1       1.824  16.760  18.680  0.00  0.00    +0.000 A 
ATOM     14  C   UNL     1       1.809  15.680  17.799  0.00  0.00    +0.000 A 
ENDBRANCH   5   9
BRANCH   4  16
ATOM     15  N   UNL     1       3.311  16.508  23.068  0.00  0.00    +0.000 NA
ATOM     16  C   UNL     1       4.225  15.686  22.672  0.00  0.00    +0.000 C 
BRANCH  15  17
ATOM     17  O   UNL     1       2.451  15.926  24.025  0.00  0.00    +0.000 OA
BRANCH  17  19
ATOM     18  O   UNL     1       1.973  13.698  23.581  0.00  0.00    +0.000 OA
ATOM     19  C   UNL     1       1.773  14.896  23.421  0.00  0.00    +0.000 C 
BRANCH  19  22
ATOM     20 CL   UNL     1      -1.767  18.489  22.043  0.00  0.00    +0.000 Cl
ATOM     21 CL   UNL     1      -2.555  16.548  19.559  0.00  0.00    +0.000 Cl
ATOM     22  C   UNL     1       0.701  15.381  22.503  0.00  0.00    +0.000 A 
ATOM     23  C   UNL     1       0.033  16.600  22.670  0.00  0.00    +0.000 A 
ATOM     24  C   UNL     1       0.347  14.551  21.426  0.00  0.00    +0.000 A 
ATOM     25  C   UNL     1      -0.978  16.976  21.770  0.00  0.00    +0.000 A 
ATOM     26  C   UNL     1      -0.658  14.927  20.529  0.00  0.00    +0.000 A 
ATOM     27  C   UNL     1      -1.324  16.142  20.699  0.00  0.00    +0.000 A 
ENDBRANCH  19  22
ENDBRANCH  17  19
ENDBRANCH  15  17
ENDBRANCH   4  16
TORSDOF 5
ENDMDL
MODEL 2
REMARK VINA RESULT:      -5.5     12.996     15.836
REMARK  Name = 9619281
REMARK  5 active torsions:
REMARK  status: ('A' for Active; 'I' for Inactive)
REMARK    1  A    between atoms: O_4  and  N_8
REMARK    2  A    between atoms: O_4  and  C_24
REMARK    3  A    between atoms: C_9  and  C_14
REMARK    4  A    between atoms: C_10  and  C_12
REMARK    5  A    between atoms: C_21  and  C_24
REMARK                            x       y       z     vdW  Elec       q    Type
REMARK                         _______ _______ _______ _____ _____    ______ ____
ROOT
ATOM      1  S   UNL     1     -12.993  15.071  14.944  0.00  0.00    +0.000 S 
ATOM      2  N   UNL     1     -11.645  13.355  16.302  0.00  0.00    +0.000 N 
ATOM      3  N   UNL     1     -10.270  14.974  15.623  0.00  0.00    +0.000 NA
ATOM      4  C   UNL     1     -10.414  12.993  16.798  0.00  0.00    +0.000 A 
ATOM      5  C   UNL     1      -9.577  14.036  16.377  0.00  0.00    +0.000 A 
ATOM      6  C   UNL     1     -11.493  14.532  15.630  0.00  0.00    +0.000 A 
ATOM      7  C   UNL     1     -12.924  12.836  16.281  0.00  0.00    +0.000 A 
ATOM      8  C   UNL     1     -13.774  13.626  15.604  0.00  0.00    +0.000 A 
ENDROOT
BRANCH   5   9
ATOM      9  C   UNL     1      -8.153  14.195  16.644  0.00  0.00    +0.000 A 
ATOM     10  C   UNL     1      -7.177  13.515  15.907  0.00  0.00    +0.000 A 
ATOM     11  C   UNL     1      -7.733  15.028  17.692  0.00  0.00    +0.000 A 
ATOM     12  C   UNL     1      -5.818  13.731  16.145  0.00  0.00    +0.000 A 
ATOM     13  C   UNL     1      -6.374  15.227  17.949  0.00  0.00    +0.000 A 
ATOM     14  C   UNL     1      -5.415  14.594  17.160  0.00  0.00    +0.000 A 
ENDBRANCH   5   9
BRANCH   4  16
ATOM     15  N   UNL     1      -9.826  10.718  16.937  0.00  0.00    +0.000 NA
ATOM     16  C   UNL     1     -10.154  11.801  17.558  0.00  0.00    +0.000 C 
BRANCH  15  17
ATOM     17  O   UNL     1      -9.659   9.628  17.819  0.00  0.00    +0.000 OA
BRANCH  17  19
ATOM     18  O   UNL     1     -10.390   8.044  16.286  0.00  0.00    +0.000 OA
ATOM     19  C   UNL     1     -10.452   8.596  17.378  0.00  0.00    +0.000 C 
BRANCH  19  22
ATOM     20 CL   UNL     1     -15.400   7.752  18.842  0.00  0.00    +0.000 Cl
ATOM     21 CL   UNL     1     -14.236   6.860  21.742  0.00  0.00    +0.000 Cl
ATOM     22  C   UNL     1     -11.451   8.168  18.400  0.00  0.00    +0.000 A 
ATOM     23  C   UNL     1     -12.831   8.146  18.170  0.00  0.00    +0.000 A 
ATOM     24  C   UNL     1     -10.962   7.783  19.661  0.00  0.00    +0.000 A 
ATOM     25  C   UNL     1     -13.708   7.746  19.193  0.00  0.00    +0.000 A 
ATOM     26  C   UNL     1     -11.835   7.382  20.677  0.00  0.00    +0.000 A 
ATOM     27  C   UNL     1     -13.211   7.363  20.446  0.00  0.00    +0.000 A 
ENDBRANCH  19  22
ENDBRANCH  17  19
ENDBRANCH  15  17
ENDBRANCH   4  16
TORSDOF 5
ENDMDL
MODEL 3
REMARK VINA RESULT:      -5.3      8.695     11.153
REMARK  Name = 9619281
REMARK  5 active torsions:
REMARK  status: ('A' for Active; 'I' for Inactive)
REMARK    1  A    between atoms: O_4  and  N_8
REMARK    2  A    between atoms: O_4  and  C_24
REMARK    3  A    between atoms: C_9  and  C_14
REMARK    4  A    between atoms: C_10  and  C_12
REMARK    5  A    between atoms: C_21  and  C_24
REMARK                            x       y       z     vdW  Elec       q    Type
REMARK                         _______ _______ _______ _____ _____    ______ ____
ROOT
ATOM      1  S   UNL     1      15.212  14.392  23.866  0.00  0.00    +0.000 S 
ATOM      2  N   UNL     1      13.264  12.827  23.264  0.00  0.00    +0.000 N 
ATOM      3  N   UNL     1      12.538  14.934  23.200  0.00  0.00    +0.000 NA
ATOM      4  C   UNL     1      11.937  12.724  22.916  0.00  0.00    +0.000 A 
ATOM      5  C   UNL     1      11.514  14.060  22.861  0.00  0.00    +0.000 A 
ATOM      6  C   UNL     1      13.555  14.151  23.406  0.00  0.00    +0.000 A 
ATOM      7  C   UNL     1      14.313  11.969  23.528  0.00  0.00    +0.000 A 
ATOM      8  C   UNL     1      15.432  12.636  23.860  0.00  0.00    +0.000 A 
ENDROOT
BRANCH   5   9
ATOM      9  C   UNL     1      10.190  14.559  22.509  0.00  0.00    +0.000 A 
ATOM     10  C   UNL     1       9.712  14.538  21.194  0.00  0.00    +0.000 A 
ATOM     11  C   UNL     1       9.369  15.109  23.506  0.00  0.00    +0.000 A 
ATOM     12  C   UNL     1       8.417  14.967  20.894  0.00  0.00    +0.000 A 
ATOM     13  C   UNL     1       8.082  15.562  23.204  0.00  0.00    +0.000 A 
ATOM     14  C   UNL     1       7.598  15.471  21.901  0.00  0.00    +0.000 A 
ENDBRANCH   5   9
BRANCH   4  16
ATOM     15  N   UNL     1      11.515  10.800  21.627  0.00  0.00    +0.000 NA
ATOM     16  C   UNL     1      11.242  11.487  22.685  0.00  0.00    +0.000 C 
BRANCH  15  17
ATOM     17  O   UNL     1      10.709   9.645  21.520  0.00  0.00    +0.000 OA
BRANCH  17  19
ATOM     18  O   UNL     1      11.824   7.673  22.031  0.00  0.00    +0.000 OA
ATOM     19  C   UNL     1      11.529   8.575  21.255  0.00  0.00    +0.000 C 
BRANCH  19  22
ATOM     20 CL   UNL     1      10.762   8.929  16.095  0.00  0.00    +0.000 Cl
ATOM     21 CL   UNL     1      13.971   8.554  15.741  0.00  0.00    +0.000 Cl
ATOM     22  C   UNL     1      12.057   8.593  19.860  0.00  0.00    +0.000 A 
ATOM     23  C   UNL     1      11.248   8.751  18.729  0.00  0.00    +0.000 A 
ATOM     24  C   UNL     1      13.443   8.429  19.691  0.00  0.00    +0.000 A 
ATOM     25  C   UNL     1      11.822   8.739  17.447  0.00  0.00    +0.000 A 
ATOM     26  C   UNL     1      14.014   8.420  18.415  0.00  0.00    +0.000 A 
ATOM     27  C   UNL     1      13.205   8.575  17.288  0.00  0.00    +0.000 A 
ENDBRANCH  19  22
ENDBRANCH  17  19
ENDBRANCH  15  17
ENDBRANCH   4  16
TORSDOF 5
ENDMDL
MODEL 4
REMARK VINA RESULT:      -5.2     12.513     14.168
REMARK  Name = 9619281
REMARK  5 active torsions:
REMARK  status: ('A' for Active; 'I' for Inactive)
REMARK    1  A    between atoms: O_4  and  N_8
REMARK    2  A    between atoms: O_4  and  C_24
REMARK    3  A    between atoms: C_9  and  C_14
REMARK    4  A    between atoms: C_10  and  C_12
REMARK    5  A    between atoms: C_21  and  C_24
REMARK                            x       y       z     vdW  Elec       q    Type
REMARK                         _______ _______ _______ _____ _____    ______ ____
ROOT
ATOM      1  S   UNL     1      19.864  13.700  17.806  0.00  0.00    +0.000 S 
ATOM      2  N   UNL     1      17.452  12.854  17.530  0.00  0.00    +0.000 N 
ATOM      3  N   UNL     1      18.219  12.201  19.519  0.00  0.00    +0.000 NA
ATOM      4  C   UNL     1      16.409  12.153  18.089  0.00  0.00    +0.000 A 
ATOM      5  C   UNL     1      16.910  11.776  19.343  0.00  0.00    +0.000 A 
ATOM      6  C   UNL     1      18.481  12.853  18.425  0.00  0.00    +0.000 A 
ATOM      7  C   UNL     1      17.721  13.495  16.337  0.00  0.00    +0.000 A 
ATOM      8  C   UNL     1      18.962  14.010  16.314  0.00  0.00    +0.000 A 
ENDROOT
BRANCH   5   9
ATOM      9  C   UNL     1      16.218  11.029  20.387  0.00  0.00    +0.000 A 
ATOM     10  C   UNL     1      16.157   9.631  20.385  0.00  0.00    +0.000 A 
ATOM     11  C   UNL     1      15.562  11.721  21.416  0.00  0.00    +0.000 A 
ATOM     12  C   UNL     1      15.539   8.938  21.429  0.00  0.00    +0.000 A 
ATOM     13  C   UNL     1      14.921  11.031  22.449  0.00  0.00    +0.000 A 
ATOM     14  C   UNL     1      14.929   9.638  22.466  0.00  0.00    +0.000 A 
ENDBRANCH   5   9
BRANCH   4  16
ATOM     15  N   UNL     1      14.927  10.783  16.876  0.00  0.00    +0.000 NA
ATOM     16  C   UNL     1      15.142  11.919  17.451  0.00  0.00    +0.000 C 
BRANCH  15  17
ATOM     17  O   UNL     1      13.662  10.734  16.252  0.00  0.00    +0.000 OA
BRANCH  17  19
ATOM     18  O   UNL     1      13.131   8.701  15.262  0.00  0.00    +0.000 OA
ATOM     19  C   UNL     1      13.239   9.427  16.244  0.00  0.00    +0.000 C 
BRANCH  19  22
ATOM     20 CL   UNL     1      11.626  10.280  21.144  0.00  0.00    +0.000 Cl
ATOM     21 CL   UNL     1      12.041   7.102  21.679  0.00  0.00    +0.000 Cl
ATOM     22  C   UNL     1      12.910   8.927  17.610  0.00  0.00    +0.000 A 
ATOM     23  C   UNL     1      12.451   9.750  18.646  0.00  0.00    +0.000 A 
ATOM     24  C   UNL     1      13.088   7.555  17.858  0.00  0.00    +0.000 A 
ATOM     25  C   UNL     1      12.179   9.204  19.911  0.00  0.00    +0.000 A 
ATOM     26  C   UNL     1      12.814   7.011  19.116  0.00  0.00    +0.000 A 
ATOM     27  C   UNL     1      12.359   7.834  20.147  0.00  0.00    +0.000 A 
ENDBRANCH  19  22
ENDBRANCH  17  19
ENDBRANCH  15  17
ENDBRANCH   4  16
TORSDOF 5
ENDMDL
MODEL 5
REMARK VINA RESULT:      -5.0      5.023      7.711
REMARK  Name = 9619281
REMARK  5 active torsions:
REMARK  status: ('A' for Active; 'I' for Inactive)
REMARK    1  A    between atoms: O_4  and  N_8
REMARK    2  A    between atoms: O_4  and  C_24
REMARK    3  A    between atoms: C_9  and  C_14
REMARK    4  A    between atoms: C_10  and  C_12
REMARK    5  A    between atoms: C_21  and  C_24
REMARK                            x       y       z     vdW  Elec       q    Type
REMARK                         _______ _______ _______ _____ _____    ______ ____
ROOT
ATOM      1  S   UNL     1       5.052  19.979  25.510  0.00  0.00    +0.000 S 
ATOM      2  N   UNL     1       5.584  17.836  24.195  0.00  0.00    +0.000 N 
ATOM      3  N   UNL     1       3.384  18.191  24.129  0.00  0.00    +0.000 NA
ATOM      4  C   UNL     1       5.087  16.787  23.456  0.00  0.00    +0.000 A 
ATOM      5  C   UNL     1       3.710  17.048  23.411  0.00  0.00    +0.000 A 
ATOM      6  C   UNL     1       4.533  18.628  24.551  0.00  0.00    +0.000 A 
ATOM      7  C   UNL     1       6.811  18.248  24.674  0.00  0.00    +0.000 A 
ATOM      8  C   UNL     1       6.713  19.379  25.393  0.00  0.00    +0.000 A 
ENDROOT
BRANCH   5   9
ATOM      9  C   UNL     1       2.680  16.273  22.730  0.00  0.00    +0.000 A 
ATOM     10  C   UNL     1       2.508  16.322  21.342  0.00  0.00    +0.000 A 
ATOM     11  C   UNL     1       1.807  15.471  23.480  0.00  0.00    +0.000 A 
ATOM     12  C   UNL     1       1.552  15.524  20.709  0.00  0.00    +0.000 A 
ATOM     13  C   UNL     1       0.834  14.689  22.851  0.00  0.00    +0.000 A 
ATOM     14  C   UNL     1       0.721  14.700  21.463  0.00  0.00    +0.000 A 
ENDBRANCH   5   9
BRANCH   4  16
ATOM     15  N   UNL     1       6.867  16.014  22.122  0.00  0.00    +0.000 NA
ATOM     16  C   UNL     1       5.880  15.723  22.903  0.00  0.00    +0.000 C 
BRANCH  15  17
ATOM     17  O   UNL     1       7.507  14.860  21.621  0.00  0.00    +0.000 OA
BRANCH  17  19
ATOM     18  O   UNL     1       9.494  15.404  20.549  0.00  0.00    +0.000 OA
ATOM     19  C   UNL     1       8.855  15.113  21.554  0.00  0.00    +0.000 C 
BRANCH  19  22
ATOM     20 CL   UNL     1      10.822  12.236  25.452  0.00  0.00    +0.000 Cl
ATOM     21 CL   UNL     1      11.504  15.027  26.972  0.00  0.00    +0.000 Cl
ATOM     22  C   UNL     1       9.521  15.008  22.885  0.00  0.00    +0.000 A 
ATOM     23  C   UNL     1       9.846  13.790  23.493  0.00  0.00    +0.000 A 
ATOM     24  C   UNL     1       9.819  16.207  23.556  0.00  0.00    +0.000 A 
ATOM     25  C   UNL     1      10.458  13.776  24.757  0.00  0.00    +0.000 A 
ATOM     26  C   UNL     1      10.431  16.193  24.814  0.00  0.00    +0.000 A 
ATOM     27  C   UNL     1      10.752  14.976  25.418  0.00  0.00    +0.000 A 
ENDBRANCH  19  22
ENDBRANCH  17  19
ENDBRANCH  15  17
ENDBRANCH   4  16
TORSDOF 5
ENDMDL
MODEL 6
REMARK VINA RESULT:      -4.9     20.710     22.720
REMARK  Name = 9619281
REMARK  5 active torsions:
REMARK  status: ('A' for Active; 'I' for Inactive)
REMARK    1  A    between atoms: O_4  and  N_8
REMARK    2  A    between atoms: O_4  and  C_24
REMARK    3  A    between atoms: C_9  and  C_14
REMARK    4  A    between atoms: C_10  and  C_12
REMARK    5  A    between atoms: C_21  and  C_24
REMARK                            x       y       z     vdW  Elec       q    Type
REMARK                         _______ _______ _______ _____ _____    ______ ____
ROOT
ATOM      1  S   UNL     1     -13.242  12.618  31.800  0.00  0.00    +0.000 S 
ATOM      2  N   UNL     1     -13.051  10.104  32.300  0.00  0.00    +0.000 N 
ATOM      3  N   UNL     1     -11.787  11.224  33.756  0.00  0.00    +0.000 NA
ATOM      4  C   UNL     1     -12.490   9.129  33.092  0.00  0.00    +0.000 A 
ATOM      5  C   UNL     1     -11.722   9.861  34.009  0.00  0.00    +0.000 A 
ATOM      6  C   UNL     1     -12.604  11.312  32.749  0.00  0.00    +0.000 A 
ATOM      7  C   UNL     1     -13.880  10.164  31.198  0.00  0.00    +0.000 A 
ATOM      8  C   UNL     1     -14.093  11.430  30.800  0.00  0.00    +0.000 A 
ENDROOT
BRANCH   5   9
ATOM      9  C   UNL     1     -10.923   9.341  35.112  0.00  0.00    +0.000 A 
ATOM     10  C   UNL     1      -9.547   9.579  35.211  0.00  0.00    +0.000 A 
ATOM     11  C   UNL     1     -11.533   8.550  36.097  0.00  0.00    +0.000 A 
ATOM     12  C   UNL     1      -8.816   9.119  36.309  0.00  0.00    +0.000 A 
ATOM     13  C   UNL     1     -10.799   8.068  37.185  0.00  0.00    +0.000 A 
ATOM     14  C   UNL     1      -9.444   8.371  37.301  0.00  0.00    +0.000 A 
ENDBRANCH   5   9
BRANCH   4  16
ATOM     15  N   UNL     1     -13.844   7.212  33.272  0.00  0.00    +0.000 NA
ATOM     16  C   UNL     1     -12.705   7.717  32.932  0.00  0.00    +0.000 C 
BRANCH  15  17
ATOM     17  O   UNL     1     -13.875   5.810  33.106  0.00  0.00    +0.000 OA
BRANCH  17  19
ATOM     18  O   UNL     1     -15.403   6.324  31.435  0.00  0.00    +0.000 OA
ATOM     19  C   UNL     1     -14.746   5.519  32.085  0.00  0.00    +0.000 C 
BRANCH  19  22
ATOM     20 CL   UNL     1     -15.711   1.549  28.823  0.00  0.00    +0.000 Cl
ATOM     21 CL   UNL     1     -15.037  -0.453  31.293  0.00  0.00    +0.000 Cl
ATOM     22  C   UNL     1     -14.828   4.056  31.806  0.00  0.00    +0.000 A 
ATOM     23  C   UNL     1     -15.184   3.525  30.561  0.00  0.00    +0.000 A 
ATOM     24  C   UNL     1     -14.543   3.178  32.866  0.00  0.00    +0.000 A 
ATOM     25  C   UNL     1     -15.256   2.134  30.384  0.00  0.00    +0.000 A 
ATOM     26  C   UNL     1     -14.611   1.793  32.689  0.00  0.00    +0.000 A 
ATOM     27  C   UNL     1     -14.969   1.266  31.446  0.00  0.00    +0.000 A 
ENDBRANCH  19  22
ENDBRANCH  17  19
ENDBRANCH  15  17
ENDBRANCH   4  16
TORSDOF 5
ENDMDL
MODEL 7
REMARK VINA RESULT:      -4.8     19.635     21.934
REMARK  Name = 9619281
REMARK  5 active torsions:
REMARK  status: ('A' for Active; 'I' for Inactive)
REMARK    1  A    between atoms: O_4  and  N_8
REMARK    2  A    between atoms: O_4  and  C_24
REMARK    3  A    between atoms: C_9  and  C_14
REMARK    4  A    between atoms: C_10  and  C_12
REMARK    5  A    between atoms: C_21  and  C_24
REMARK                            x       y       z     vdW  Elec       q    Type
REMARK                         _______ _______ _______ _____ _____    ______ ____
ROOT
ATOM      1  S   UNL     1     -12.675  12.817  29.886  0.00  0.00    +0.000 S 
ATOM      2  N   UNL     1     -12.727  10.476  30.948  0.00  0.00    +0.000 N 
ATOM      3  N   UNL     1     -11.271  11.741  32.068  0.00  0.00    +0.000 NA
ATOM      4  C   UNL     1     -12.231   9.647  31.927  0.00  0.00    +0.000 A 
ATOM      5  C   UNL     1     -11.339  10.472  32.627  0.00  0.00    +0.000 A 
ATOM      6  C   UNL     1     -12.129  11.693  31.092  0.00  0.00    +0.000 A 
ATOM      7  C   UNL     1     -13.605  10.383  29.887  0.00  0.00    +0.000 A 
ATOM      8  C   UNL     1     -13.702  11.542  29.214  0.00  0.00    +0.000 A 
ENDROOT
BRANCH   5   9
ATOM      9  C   UNL     1     -10.540  10.125  33.796  0.00  0.00    +0.000 A 
ATOM     10  C   UNL     1     -11.119   9.644  34.976  0.00  0.00    +0.000 A 
ATOM     11  C   UNL     1      -9.149  10.305  33.763  0.00  0.00    +0.000 A 
ATOM     12  C   UNL     1     -10.325   9.264  36.061  0.00  0.00    +0.000 A 
ATOM     13  C   UNL     1      -8.355   9.947  34.857  0.00  0.00    +0.000 A 
ATOM     14  C   UNL     1      -8.942   9.407  35.999  0.00  0.00    +0.000 A 
ENDBRANCH   5   9
BRANCH   4  16
ATOM     15  N   UNL     1     -13.720   7.993  32.694  0.00  0.00    +0.000 NA
ATOM     16  C   UNL     1     -12.606   8.270  32.104  0.00  0.00    +0.000 C 
BRANCH  15  17
ATOM     17  O   UNL     1     -13.913   6.601  32.838  0.00  0.00    +0.000 OA
BRANCH  17  19
ATOM     18  O   UNL     1     -15.690   6.956  31.386  0.00  0.00    +0.000 OA
ATOM     19  C   UNL     1     -14.912   6.216  31.978  0.00  0.00    +0.000 C 
BRANCH  19  22
ATOM     20 CL   UNL     1     -14.515   1.378  33.919  0.00  0.00    +0.000 Cl
ATOM     21 CL   UNL     1     -15.192   0.283  30.935  0.00  0.00    +0.000 Cl
ATOM     22  C   UNL     1     -14.975   4.736  31.804  0.00  0.00    +0.000 A 
ATOM     23  C   UNL     1     -14.751   3.825  32.843  0.00  0.00    +0.000 A 
ATOM     24  C   UNL     1     -15.264   4.248  30.518  0.00  0.00    +0.000 A 
ATOM     25  C   UNL     1     -14.812   2.444  32.592  0.00  0.00    +0.000 A 
ATOM     26  C   UNL     1     -15.327   2.873  30.270  0.00  0.00    +0.000 A 
ATOM     27  C   UNL     1     -15.101   1.967  31.307  0.00  0.00    +0.000 A 
ENDBRANCH  19  22
ENDBRANCH  17  19
ENDBRANCH  15  17
ENDBRANCH   4  16
TORSDOF 5
ENDMDL
MODEL 8
REMARK VINA RESULT:      -4.8      7.463      9.927
REMARK  Name = 9619281
REMARK  5 active torsions:
REMARK  status: ('A' for Active; 'I' for Inactive)
REMARK    1  A    between atoms: O_4  and  N_8
REMARK    2  A    between atoms: O_4  and  C_24
REMARK    3  A    between atoms: C_9  and  C_14
REMARK    4  A    between atoms: C_10  and  C_12
REMARK    5  A    between atoms: C_21  and  C_24
REMARK                            x       y       z     vdW  Elec       q    Type
REMARK                         _______ _______ _______ _____ _____    ______ ____
ROOT
ATOM      1  S   UNL     1      11.626  16.876  18.201  0.00  0.00    +0.000 S 
ATOM      2  N   UNL     1      10.969  15.198  20.034  0.00  0.00    +0.000 N 
ATOM      3  N   UNL     1       9.548  16.915  20.091  0.00  0.00    +0.000 NA
ATOM      4  C   UNL     1      10.104  14.896  21.060  0.00  0.00    +0.000 A 
ATOM      5  C   UNL     1       9.211  15.978  21.058  0.00  0.00    +0.000 A 
ATOM      6  C   UNL     1      10.582  16.391  19.501  0.00  0.00    +0.000 A 
ATOM      7  C   UNL     1      12.096  14.643  19.460  0.00  0.00    +0.000 A 
ATOM      8  C   UNL     1      12.575  15.405  18.462  0.00  0.00    +0.000 A 
ENDROOT
BRANCH   5   9
ATOM      9  C   UNL     1       8.057  16.179  21.925  0.00  0.00    +0.000 A 
ATOM     10  C   UNL     1       6.877  15.440  21.776  0.00  0.00    +0.000 A 
ATOM     11  C   UNL     1       8.103  17.162  22.925  0.00  0.00    +0.000 A 
ATOM     12  C   UNL     1       5.807  15.611  22.657  0.00  0.00    +0.000 A 
ATOM     13  C   UNL     1       7.024  17.351  23.793  0.00  0.00    +0.000 A 
ATOM     14  C   UNL     1       5.884  16.561  23.672  0.00  0.00    +0.000 A 
ENDBRANCH   5   9
BRANCH   4  16
ATOM     15  N   UNL     1      11.298  13.439  22.471  0.00  0.00    +0.000 NA
ATOM     16  C   UNL     1      10.184  13.720  21.882  0.00  0.00    +0.000 C 
BRANCH  15  17
ATOM     17  O   UNL     1      11.228  12.227  23.192  0.00  0.00    +0.000 OA
BRANCH  17  19
ATOM     18  O   UNL     1      13.386  11.528  23.689  0.00  0.00    +0.000 OA
ATOM     19  C   UNL     1      12.391  11.530  22.973  0.00  0.00    +0.000 C 
BRANCH  19  22
ATOM     20 CL   UNL     1      14.183  10.424  18.187  0.00  0.00    +0.000 Cl
ATOM     21 CL   UNL     1      11.902   8.115  18.026  0.00  0.00    +0.000 Cl
ATOM     22  C   UNL     1      12.342  10.720  21.721  0.00  0.00    +0.000 A 
ATOM     23  C   UNL     1      13.209  10.916  20.640  0.00  0.00    +0.000 A 
ATOM     24  C   UNL     1      11.358   9.720  21.635  0.00  0.00    +0.000 A 
ATOM     25  C   UNL     1      13.086  10.121  19.488  0.00  0.00    +0.000 A 
ATOM     26  C   UNL     1      11.238   8.927  20.490  0.00  0.00    +0.000 A 
ATOM     27  C   UNL     1      12.103   9.126  19.412  0.00  0.00    +0.000 A 
ENDBRANCH  19  22
ENDBRANCH  17  19
ENDBRANCH  15  17
ENDBRANCH   4  16
TORSDOF 5
ENDMDL
MODEL 9
REMARK VINA RESULT:      -4.8     37.791     39.758
REMARK  Name = 9619281
REMARK  5 active torsions:
REMARK  status: ('A' for Active; 'I' for Inactive)
REMARK    1  A    between atoms: O_4  and  N_8
REMARK    2  A    between atoms: O_4  and  C_24
REMARK    3  A    between atoms: C_9  and  C_14
REMARK    4  A    between atoms: C_10  and  C_12
REMARK    5  A    between atoms: C_21  and  C_24
REMARK                            x       y       z     vdW  Elec       q    Type
REMARK                         _______ _______ _______ _____ _____    ______ ____
ROOT
ATOM      1  S   UNL     1      -0.167 -18.563  -5.512  0.00  0.00    +0.000 S 
ATOM      2  N   UNL     1       1.683 -17.189  -4.375  0.00  0.00    +0.000 N 
ATOM      3  N   UNL     1       0.533 -15.853  -5.740  0.00  0.00    +0.000 NA
ATOM      4  C   UNL     1       2.287 -15.960  -4.244  0.00  0.00    +0.000 A 
ATOM      5  C   UNL     1       1.532 -15.138  -5.094  0.00  0.00    +0.000 A 
ATOM      6  C   UNL     1       0.655 -17.055  -5.260  0.00  0.00    +0.000 A 
ATOM      7  C   UNL     1       1.868 -18.468  -3.888  0.00  0.00    +0.000 A 
ATOM      8  C   UNL     1       0.965 -19.328  -4.387  0.00  0.00    +0.000 A 
ENDROOT
BRANCH   5   9
ATOM      9  C   UNL     1       1.705 -13.710  -5.332  0.00  0.00    +0.000 A 
ATOM     10  C   UNL     1       1.273 -12.745  -4.416  0.00  0.00    +0.000 A 
ATOM     11  C   UNL     1       2.293 -13.274  -6.529  0.00  0.00    +0.000 A 
ATOM     12  C   UNL     1       1.504 -11.386  -4.642  0.00  0.00    +0.000 A 
ATOM     13  C   UNL     1       2.504 -11.913  -6.770  0.00  0.00    +0.000 A 
ATOM     14  C   UNL     1       2.128 -10.970  -5.815  0.00  0.00    +0.000 A 
ENDBRANCH   5   9
BRANCH   4  16
ATOM     15  N   UNL     1       3.230 -15.347  -2.176  0.00  0.00    +0.000 NA
ATOM     16  C   UNL     1       3.423 -15.688  -3.406  0.00  0.00    +0.000 C 
BRANCH  15  17
ATOM     17  O   UNL     1       4.440 -15.061  -1.507  0.00  0.00    +0.000 OA
BRANCH  17  19
ATOM     18  O   UNL     1       3.969 -13.184  -0.224  0.00  0.00    +0.000 OA
ATOM     19  C   UNL     1       4.139 -14.392  -0.346  0.00  0.00    +0.000 C 
BRANCH  19  22
ATOM     20 CL   UNL     1       1.365 -16.401   3.604  0.00  0.00    +0.000 Cl
ATOM     21 CL   UNL     1       3.995 -18.151   4.367  0.00  0.00    +0.000 Cl
ATOM     22  C   UNL     1       4.020 -15.307   0.825  0.00  0.00    +0.000 A 
ATOM     23  C   UNL     1       2.857 -15.432   1.594  0.00  0.00    +0.000 A 
ATOM     24  C   UNL     1       5.150 -16.068   1.170  0.00  0.00    +0.000 A 
ATOM     25  C   UNL     1       2.831 -16.305   2.694  0.00  0.00    +0.000 A 
ATOM     26  C   UNL     1       5.124 -16.939   2.263  0.00  0.00    +0.000 A 
ATOM     27  C   UNL     1       3.963 -17.060   3.029  0.00  0.00    +0.000 A 
ENDBRANCH  19  22
ENDBRANCH  17  19
ENDBRANCH  15  17
ENDBRANCH   4  16
TORSDOF 5
ENDMDL
MODEL 10
REMARK VINA RESULT:      -4.7      5.175      7.814
REMARK  Name = 9619281
REMARK  5 active torsions:
REMARK  status: ('A' for Active; 'I' for Inactive)
REMARK    1  A    between atoms: O_4  and  N_8
REMARK    2  A    between atoms: O_4  and  C_24
REMARK    3  A    between atoms: C_9  and  C_14
REMARK    4  A    between atoms: C_10  and  C_12
REMARK    5  A    between atoms: C_21  and  C_24
REMARK                            x       y       z     vdW  Elec       q    Type
REMARK                         _______ _______ _______ _____ _____    ______ ____
ROOT
ATOM      1  S   UNL     1       3.853  18.759  16.573  0.00  0.00    +0.000 S 
ATOM      2  N   UNL     1       4.791  16.997  18.194  0.00  0.00    +0.000 N 
ATOM      3  N   UNL     1       2.680  17.441  18.758  0.00  0.00    +0.000 NA
ATOM      4  C   UNL     1       4.550  16.196  19.286  0.00  0.00    +0.000 A 
ATOM      5  C   UNL     1       3.213  16.478  19.604  0.00  0.00    +0.000 A 
ATOM      6  C   UNL     1       3.650  17.696  17.931  0.00  0.00    +0.000 A 
ATOM      7  C   UNL     1       5.854  17.286  17.362  0.00  0.00    +0.000 A 
ATOM      8  C   UNL     1       5.528  18.203  16.435  0.00  0.00    +0.000 A 
ENDROOT
BRANCH   5   9
ATOM      9  C   UNL     1       2.410  15.889  20.669  0.00  0.00    +0.000 A 
ATOM     10  C   UNL     1       1.254  15.147  20.405  0.00  0.00    +0.000 A 
ATOM     11  C   UNL     1       2.779  16.091  22.007  0.00  0.00    +0.000 A 
ATOM     12  C   UNL     1       0.536  14.545  21.441  0.00  0.00    +0.000 A 
ATOM     13  C   UNL     1       2.049  15.509  23.048  0.00  0.00    +0.000 A 
ATOM     14  C   UNL     1       0.939  14.718  22.762  0.00  0.00    +0.000 A 
ENDBRANCH   5   9
BRANCH   4  16
ATOM     15  N   UNL     1       6.242  15.742  20.858  0.00  0.00    +0.000 NA
ATOM     16  C   UNL     1       5.512  15.312  19.884  0.00  0.00    +0.000 C 
BRANCH  15  17
ATOM     17  O   UNL     1       7.172  14.774  21.295  0.00  0.00    +0.000 OA
BRANCH  17  19
ATOM     18  O   UNL     1       7.267  16.026  23.248  0.00  0.00    +0.000 OA
ATOM     19  C   UNL     1       7.753  15.230  22.453  0.00  0.00    +0.000 C 
BRANCH  19  22
ATOM     20 CL   UNL     1      11.477  13.503  25.691  0.00  0.00    +0.000 Cl
ATOM     21 CL   UNL     1      13.274  12.879  23.056  0.00  0.00    +0.000 Cl
ATOM     22  C   UNL     1       9.102  14.638  22.685  0.00  0.00    +0.000 A 
ATOM     23  C   UNL     1       9.615  14.357  23.957  0.00  0.00    +0.000 A 
ATOM     24  C   UNL     1       9.892  14.365  21.555  0.00  0.00    +0.000 A 
ATOM     25  C   UNL     1      10.904  13.815  24.091  0.00  0.00    +0.000 A 
ATOM     26  C   UNL     1      11.174  13.823  21.689  0.00  0.00    +0.000 A 
ATOM     27  C   UNL     1      11.684  13.546  22.958  0.00  0.00    +0.000 A 
ENDBRANCH  19  22
ENDBRANCH  17  19
ENDBRANCH  15  17
ENDBRANCH   4  16
TORSDOF 5
ENDMDL
