MODEL 1
REMARK VINA RESULT:      -5.6      0.000      0.000
REMARK  Name = 9623088
REMARK  7 active torsions:
REMARK  status: ('A' for Active; 'I' for Inactive)
REMARK    1  A    between atoms: S_4  and  C_11
REMARK    2  A    between atoms: S_4  and  C_14
REMARK    3  A    between atoms: O_5  and  N_8
REMARK    4  A    between atoms: O_5  and  C_20
REMARK    5  A    between atoms: C_9  and  C_13
REMARK    6  A    between atoms: C_16  and  C_25
REMARK    7  A    between atoms: C_19  and  C_20
REMARK                            x       y       z     vdW  Elec       q    Type
REMARK                         _______ _______ _______ _____ _____    ______ ____
ROOT
ATOM      1  S   UNL     1      -3.548  -5.346 -52.837  0.00  0.00    +0.000 S 
ATOM      2  N   UNL     1      -5.714  -4.639 -51.658  0.00  0.00    +0.000 N 
ATOM      3  N   UNL     1      -5.535  -3.504 -53.571  0.00  0.00    +0.000 NA
ATOM      4  C   UNL     1      -6.811  -3.818 -51.675  0.00  0.00    +0.000 A 
ATOM      5  C   UNL     1      -5.006  -4.406 -52.797  0.00  0.00    +0.000 A 
ATOM      6  C   UNL     1      -6.671  -3.121 -52.877  0.00  0.00    +0.000 A 
ATOM      7  C   UNL     1      -5.145  -5.546 -50.787  0.00  0.00    +0.000 A 
ATOM      8  C   UNL     1      -3.979  -6.021 -51.257  0.00  0.00    +0.000 A 
ENDROOT
BRANCH   4  10
ATOM      9  N   UNL     1      -7.619  -2.854 -49.678  0.00  0.00    +0.000 NA
ATOM     10  C   UNL     1      -7.775  -3.720 -50.622  0.00  0.00    +0.000 C 
BRANCH   9  11
ATOM     11  O   UNL     1      -8.627  -2.995 -48.715  0.00  0.00    +0.000 OA
BRANCH  11  12
ATOM     12  C   UNL     1      -8.787  -4.395 -48.473  0.00  0.00    +0.000 C 
BRANCH  12  15
ATOM     13 CL   UNL     1      -7.465  -2.841 -43.692  0.00  0.00    +0.000 Cl
ATOM     14 CL   UNL     1      -8.989  -5.472 -42.533  0.00  0.00    +0.000 Cl
ATOM     15  C   UNL     1      -8.814  -4.656 -46.991  0.00  0.00    +0.000 A 
ATOM     16  C   UNL     1      -8.199  -3.765 -46.100  0.00  0.00    +0.000 A 
ATOM     17  C   UNL     1      -9.468  -5.786 -46.482  0.00  0.00    +0.000 A 
ATOM     18  C   UNL     1      -8.240  -3.994 -44.720  0.00  0.00    +0.000 A 
ATOM     19  C   UNL     1      -9.511  -6.017 -45.105  0.00  0.00    +0.000 A 
ATOM     20  C   UNL     1      -8.898  -5.123 -44.222  0.00  0.00    +0.000 A 
ENDBRANCH  12  15
ENDBRANCH  11  12
ENDBRANCH   9  11
ENDBRANCH   4  10
BRANCH   6  21
ATOM     21  S   UNL     1      -7.707  -1.830 -53.458  0.00  0.00    +0.000 S 
BRANCH  21  22
ATOM     22  C   UNL     1      -6.826  -0.355 -52.999  0.00  0.00    +0.000 A 
ATOM     23  C   UNL     1      -5.248   1.873 -52.301  0.00  0.00    +0.000 A 
ATOM     24  C   UNL     1      -6.257  -0.258 -51.724  0.00  0.00    +0.000 A 
ATOM     25  C   UNL     1      -6.605   0.672 -53.918  0.00  0.00    +0.000 A 
ATOM     26  C   UNL     1      -5.476   0.850 -51.374  0.00  0.00    +0.000 A 
ATOM     27  C   UNL     1      -5.826   1.779 -53.573  0.00  0.00    +0.000 A 
ATOM     28  C   UNL     1      -4.391   3.055 -51.956  0.00  0.00    +0.000 C 
ENDBRANCH  21  22
ENDBRANCH   6  21
TORSDOF 6
ENDMDL
MODEL 2
REMARK VINA RESULT:      -5.5     15.871     17.063
REMARK  Name = 9623088
REMARK  7 active torsions:
REMARK  status: ('A' for Active; 'I' for Inactive)
REMARK    1  A    between atoms: S_4  and  C_11
REMARK    2  A    between atoms: S_4  and  C_14
REMARK    3  A    between atoms: O_5  and  N_8
REMARK    4  A    between atoms: O_5  and  C_20
REMARK    5  A    between atoms: C_9  and  C_13
REMARK    6  A    between atoms: C_16  and  C_25
REMARK    7  A    between atoms: C_19  and  C_20
REMARK                            x       y       z     vdW  Elec       q    Type
REMARK                         _______ _______ _______ _____ _____    ______ ____
ROOT
ATOM      1  S   UNL     1      -5.328   2.626 -32.287  0.00  0.00    +0.000 S 
ATOM      2  N   UNL     1      -7.564   2.053 -33.411  0.00  0.00    +0.000 N 
ATOM      3  N   UNL     1      -6.307   3.200 -34.856  0.00  0.00    +0.000 NA
ATOM      4  C   UNL     1      -8.352   2.185 -34.524  0.00  0.00    +0.000 A 
ATOM      5  C   UNL     1      -6.378   2.669 -33.670  0.00  0.00    +0.000 A 
ATOM      6  C   UNL     1      -7.544   2.907 -35.405  0.00  0.00    +0.000 A 
ATOM      7  C   UNL     1      -7.692   1.536 -32.137  0.00  0.00    +0.000 A 
ATOM      8  C   UNL     1      -6.590   1.757 -31.399  0.00  0.00    +0.000 A 
ENDROOT
BRANCH   4  10
ATOM      9  N   UNL     1     -10.673   2.449 -34.186  0.00  0.00    +0.000 NA
ATOM     10  C   UNL     1      -9.702   1.723 -34.628  0.00  0.00    +0.000 C 
BRANCH   9  11
ATOM     11  O   UNL     1     -11.890   1.765 -34.310  0.00  0.00    +0.000 OA
BRANCH  11  12
ATOM     12  C   UNL     1     -12.079   1.019 -33.104  0.00  0.00    +0.000 C 
BRANCH  12  15
ATOM     13 CL   UNL     1     -16.124  -2.181 -32.458  0.00  0.00    +0.000 Cl
ATOM     14 CL   UNL     1     -14.647  -4.277 -34.462  0.00  0.00    +0.000 Cl
ATOM     15  C   UNL     1     -12.726  -0.303 -33.419  0.00  0.00    +0.000 A 
ATOM     16  C   UNL     1     -13.971  -0.635 -32.867  0.00  0.00    +0.000 A 
ATOM     17  C   UNL     1     -12.099  -1.211 -34.282  0.00  0.00    +0.000 A 
ATOM     18  C   UNL     1     -14.585  -1.854 -33.174  0.00  0.00    +0.000 A 
ATOM     19  C   UNL     1     -12.709  -2.429 -34.590  0.00  0.00    +0.000 A 
ATOM     20  C   UNL     1     -13.952  -2.754 -34.038  0.00  0.00    +0.000 A 
ENDBRANCH  12  15
ENDBRANCH  11  12
ENDBRANCH   9  11
ENDBRANCH   4  10
BRANCH   6  21
ATOM     21  S   UNL     1      -8.004   3.496 -36.993  0.00  0.00    +0.000 S 
BRANCH  21  22
ATOM     22  C   UNL     1      -9.203   4.760 -36.632  0.00  0.00    +0.000 A 
ATOM     23  C   UNL     1     -11.028   6.869 -36.229  0.00  0.00    +0.000 A 
ATOM     24  C   UNL     1      -8.791   5.948 -36.017  0.00  0.00    +0.000 A 
ATOM     25  C   UNL     1     -10.533   4.633 -37.038  0.00  0.00    +0.000 A 
ATOM     26  C   UNL     1      -9.698   6.995 -35.812  0.00  0.00    +0.000 A 
ATOM     27  C   UNL     1     -11.439   5.676 -36.836  0.00  0.00    +0.000 A 
ATOM     28  C   UNL     1     -12.007   7.990 -36.045  0.00  0.00    +0.000 C 
ENDBRANCH  21  22
ENDBRANCH   6  21
TORSDOF 6
ENDMDL
MODEL 3
REMARK VINA RESULT:      -5.5     18.270     21.206
REMARK  Name = 9623088
REMARK  7 active torsions:
REMARK  status: ('A' for Active; 'I' for Inactive)
REMARK    1  A    between atoms: S_4  and  C_11
REMARK    2  A    between atoms: S_4  and  C_14
REMARK    3  A    between atoms: O_5  and  N_8
REMARK    4  A    between atoms: O_5  and  C_20
REMARK    5  A    between atoms: C_9  and  C_13
REMARK    6  A    between atoms: C_16  and  C_25
REMARK    7  A    between atoms: C_19  and  C_20
REMARK                            x       y       z     vdW  Elec       q    Type
REMARK                         _______ _______ _______ _____ _____    ______ ____
ROOT
ATOM      1  S   UNL     1     -11.224   7.032 -29.522  0.00  0.00    +0.000 S 
ATOM      2  N   UNL     1     -12.645   7.051 -31.660  0.00  0.00    +0.000 N 
ATOM      3  N   UNL     1     -10.620   7.857 -32.137  0.00  0.00    +0.000 NA
ATOM      4  C   UNL     1     -12.712   7.387 -32.986  0.00  0.00    +0.000 A 
ATOM      5  C   UNL     1     -11.392   7.351 -31.220  0.00  0.00    +0.000 A 
ATOM      6  C   UNL     1     -11.437   7.891 -33.255  0.00  0.00    +0.000 A 
ATOM      7  C   UNL     1     -13.507   6.571 -30.694  0.00  0.00    +0.000 A 
ATOM      8  C   UNL     1     -12.913   6.500 -29.490  0.00  0.00    +0.000 A 
ENDROOT
BRANCH   4  10
ATOM      9  N   UNL     1     -14.711   8.269 -33.880  0.00  0.00    +0.000 NA
ATOM     10  C   UNL     1     -13.886   7.280 -33.798  0.00  0.00    +0.000 C 
BRANCH   9  11
ATOM     11  O   UNL     1     -15.825   7.913 -34.651  0.00  0.00    +0.000 OA
BRANCH  11  12
ATOM     12  C   UNL     1     -16.828   7.438 -33.750  0.00  0.00    +0.000 C 
BRANCH  12  15
ATOM     13 CL   UNL     1     -21.979   7.392 -33.054  0.00  0.00    +0.000 Cl
ATOM     14 CL   UNL     1     -22.225   9.474 -35.543  0.00  0.00    +0.000 Cl
ATOM     15  C   UNL     1     -18.182   7.923 -34.193  0.00  0.00    +0.000 A 
ATOM     16  C   UNL     1     -19.343   7.496 -33.532  0.00  0.00    +0.000 A 
ATOM     17  C   UNL     1     -18.298   8.820 -35.263  0.00  0.00    +0.000 A 
ATOM     18  C   UNL     1     -20.601   7.961 -33.929  0.00  0.00    +0.000 A 
ATOM     19  C   UNL     1     -19.553   9.286 -35.661  0.00  0.00    +0.000 A 
ATOM     20  C   UNL     1     -20.706   8.859 -34.996  0.00  0.00    +0.000 A 
ENDBRANCH  12  15
ENDBRANCH  11  12
ENDBRANCH   9  11
ENDBRANCH   4  10
BRANCH   6  21
ATOM     21  S   UNL     1     -10.892   8.591 -34.768  0.00  0.00    +0.000 S 
BRANCH  21  22
ATOM     22  C   UNL     1     -10.108   7.226 -35.596  0.00  0.00    +0.000 A 
ATOM     23  C   UNL     1      -8.824   4.981 -36.715  0.00  0.00    +0.000 A 
ATOM     24  C   UNL     1      -8.711   7.161 -35.651  0.00  0.00    +0.000 A 
ATOM     25  C   UNL     1     -10.856   6.164 -36.108  0.00  0.00    +0.000 A 
ATOM     26  C   UNL     1      -8.072   6.048 -36.211  0.00  0.00    +0.000 A 
ATOM     27  C   UNL     1     -10.222   5.053 -36.665  0.00  0.00    +0.000 A 
ATOM     28  C   UNL     1      -8.158   3.767 -37.291  0.00  0.00    +0.000 C 
ENDBRANCH  21  22
ENDBRANCH   6  21
TORSDOF 6
ENDMDL
MODEL 4
REMARK VINA RESULT:      -5.3      7.452     10.589
REMARK  Name = 9623088
REMARK  7 active torsions:
REMARK  status: ('A' for Active; 'I' for Inactive)
REMARK    1  A    between atoms: S_4  and  C_11
REMARK    2  A    between atoms: S_4  and  C_14
REMARK    3  A    between atoms: O_5  and  N_8
REMARK    4  A    between atoms: O_5  and  C_20
REMARK    5  A    between atoms: C_9  and  C_13
REMARK    6  A    between atoms: C_16  and  C_25
REMARK    7  A    between atoms: C_19  and  C_20
REMARK                            x       y       z     vdW  Elec       q    Type
REMARK                         _______ _______ _______ _____ _____    ______ ____
ROOT
ATOM      1  S   UNL     1      -1.073   6.076 -59.062  0.00  0.00    +0.000 S 
ATOM      2  N   UNL     1      -2.911   4.994 -57.634  0.00  0.00    +0.000 N 
ATOM      3  N   UNL     1      -3.738   5.427 -59.661  0.00  0.00    +0.000 NA
ATOM      4  C   UNL     1      -4.220   4.596 -57.564  0.00  0.00    +0.000 A 
ATOM      5  C   UNL     1      -2.691   5.472 -58.890  0.00  0.00    +0.000 A 
ATOM      6  C   UNL     1      -4.711   4.882 -58.840  0.00  0.00    +0.000 A 
ATOM      7  C   UNL     1      -1.836   5.087 -56.774  0.00  0.00    +0.000 A 
ATOM      8  C   UNL     1      -0.769   5.646 -57.370  0.00  0.00    +0.000 A 
ENDROOT
BRANCH   4  10
ATOM      9  N   UNL     1      -4.813   4.760 -55.286  0.00  0.00    +0.000 NA
ATOM     10  C   UNL     1      -4.859   4.091 -56.388  0.00  0.00    +0.000 C 
BRANCH   9  11
ATOM     11  O   UNL     1      -5.423   4.040 -54.251  0.00  0.00    +0.000 OA
BRANCH  11  12
ATOM     12  C   UNL     1      -4.504   3.021 -53.846  0.00  0.00    +0.000 C 
BRANCH  12  15
ATOM     13 CL   UNL     1      -8.095  -0.684 -54.468  0.00  0.00    +0.000 Cl
ATOM     14 CL   UNL     1      -7.443  -1.673 -51.438  0.00  0.00    +0.000 Cl
ATOM     15  C   UNL     1      -5.257   1.860 -53.256  0.00  0.00    +0.000 A 
ATOM     16  C   UNL     1      -6.230   1.187 -54.008  0.00  0.00    +0.000 A 
ATOM     17  C   UNL     1      -4.983   1.426 -51.953  0.00  0.00    +0.000 A 
ATOM     18  C   UNL     1      -6.918   0.094 -53.470  0.00  0.00    +0.000 A 
ATOM     19  C   UNL     1      -5.667   0.334 -51.413  0.00  0.00    +0.000 A 
ATOM     20  C   UNL     1      -6.635  -0.333 -52.169  0.00  0.00    +0.000 A 
ENDBRANCH  12  15
ENDBRANCH  11  12
ENDBRANCH   9  11
ENDBRANCH   4  10
BRANCH   6  21
ATOM     21  S   UNL     1      -6.369   4.696 -59.384  0.00  0.00    +0.000 S 
BRANCH  21  22
ATOM     22  C   UNL     1      -6.207   3.766 -60.892  0.00  0.00    +0.000 A 
ATOM     23  C   UNL     1      -6.161   2.260 -63.272  0.00  0.00    +0.000 A 
ATOM     24  C   UNL     1      -6.237   2.368 -60.848  0.00  0.00    +0.000 A 
ATOM     25  C   UNL     1      -6.148   4.404 -62.132  0.00  0.00    +0.000 A 
ATOM     26  C   UNL     1      -6.210   1.618 -62.030  0.00  0.00    +0.000 A 
ATOM     27  C   UNL     1      -6.122   3.659 -63.313  0.00  0.00    +0.000 A 
ATOM     28  C   UNL     1      -6.161   1.476 -64.551  0.00  0.00    +0.000 C 
ENDBRANCH  21  22
ENDBRANCH   6  21
TORSDOF 6
ENDMDL
MODEL 5
REMARK VINA RESULT:      -5.1     16.237     17.757
REMARK  Name = 9623088
REMARK  7 active torsions:
REMARK  status: ('A' for Active; 'I' for Inactive)
REMARK    1  A    between atoms: S_4  and  C_11
REMARK    2  A    between atoms: S_4  and  C_14
REMARK    3  A    between atoms: O_5  and  N_8
REMARK    4  A    between atoms: O_5  and  C_20
REMARK    5  A    between atoms: C_9  and  C_13
REMARK    6  A    between atoms: C_16  and  C_25
REMARK    7  A    between atoms: C_19  and  C_20
REMARK                            x       y       z     vdW  Elec       q    Type
REMARK                         _______ _______ _______ _____ _____    ______ ____
ROOT
ATOM      1  S   UNL     1      -4.587   1.801 -32.972  0.00  0.00    +0.000 S 
ATOM      2  N   UNL     1      -7.078   2.249 -33.396  0.00  0.00    +0.000 N 
ATOM      3  N   UNL     1      -5.963   2.527 -35.309  0.00  0.00    +0.000 NA
ATOM      4  C   UNL     1      -8.034   2.634 -34.299  0.00  0.00    +0.000 A 
ATOM      5  C   UNL     1      -5.885   2.206 -34.051  0.00  0.00    +0.000 A 
ATOM      6  C   UNL     1      -7.309   2.803 -35.481  0.00  0.00    +0.000 A 
ATOM      7  C   UNL     1      -7.017   1.975 -32.045  0.00  0.00    +0.000 A 
ATOM      8  C   UNL     1      -5.759   1.717 -31.647  0.00  0.00    +0.000 A 
ENDROOT
BRANCH   4  10
ATOM      9  N   UNL     1      -9.757   3.858 -33.249  0.00  0.00    +0.000 NA
ATOM     10  C   UNL     1      -9.413   2.856 -33.985  0.00  0.00    +0.000 C 
BRANCH   9  11
ATOM     11  O   UNL     1     -11.136   3.828 -32.999  0.00  0.00    +0.000 OA
BRANCH  11  12
ATOM     12  C   UNL     1     -11.382   2.728 -32.119  0.00  0.00    +0.000 C 
BRANCH  12  15
ATOM     13 CL   UNL     1     -15.636   0.474 -30.160  0.00  0.00    +0.000 Cl
ATOM     14 CL   UNL     1     -16.955   0.629 -33.130  0.00  0.00    +0.000 Cl
ATOM     15  C   UNL     1     -12.766   2.186 -32.356  0.00  0.00    +0.000 A 
ATOM     16  C   UNL     1     -13.502   1.625 -31.302  0.00  0.00    +0.000 A 
ATOM     17  C   UNL     1     -13.343   2.249 -33.631  0.00  0.00    +0.000 A 
ATOM     18  C   UNL     1     -14.796   1.140 -31.515  0.00  0.00    +0.000 A 
ATOM     19  C   UNL     1     -14.635   1.765 -33.847  0.00  0.00    +0.000 A 
ATOM     20  C   UNL     1     -15.364   1.209 -32.791  0.00  0.00    +0.000 A 
ENDBRANCH  12  15
ENDBRANCH  11  12
ENDBRANCH   9  11
ENDBRANCH   4  10
BRANCH   6  21
ATOM     21  S   UNL     1      -7.936   3.390 -37.011  0.00  0.00    +0.000 S 
BRANCH  21  22
ATOM     22  C   UNL     1      -8.943   4.778 -36.540  0.00  0.00    +0.000 A 
ATOM     23  C   UNL     1     -10.471   7.075 -35.968  0.00  0.00    +0.000 A 
ATOM     24  C   UNL     1      -8.342   5.909 -35.975  0.00  0.00    +0.000 A 
ATOM     25  C   UNL     1     -10.313   4.803 -36.810  0.00  0.00    +0.000 A 
ATOM     26  C   UNL     1      -9.101   7.049 -35.687  0.00  0.00    +0.000 A 
ATOM     27  C   UNL     1     -11.072   5.939 -36.525  0.00  0.00    +0.000 A 
ATOM     28  C   UNL     1     -11.296   8.298 -35.694  0.00  0.00    +0.000 C 
ENDBRANCH  21  22
ENDBRANCH   6  21
TORSDOF 6
ENDMDL
MODEL 6
REMARK VINA RESULT:      -4.9      4.492      8.515
REMARK  Name = 9623088
REMARK  7 active torsions:
REMARK  status: ('A' for Active; 'I' for Inactive)
REMARK    1  A    between atoms: S_4  and  C_11
REMARK    2  A    between atoms: S_4  and  C_14
REMARK    3  A    between atoms: O_5  and  N_8
REMARK    4  A    between atoms: O_5  and  C_20
REMARK    5  A    between atoms: C_9  and  C_13
REMARK    6  A    between atoms: C_16  and  C_25
REMARK    7  A    between atoms: C_19  and  C_20
REMARK                            x       y       z     vdW  Elec       q    Type
REMARK                         _______ _______ _______ _____ _____    ______ ____
ROOT
ATOM      1  S   UNL     1      -4.975  -8.833 -47.225  0.00  0.00    +0.000 S 
ATOM      2  N   UNL     1      -6.038  -6.534 -47.641  0.00  0.00    +0.000 N 
ATOM      3  N   UNL     1      -7.122  -7.535 -45.966  0.00  0.00    +0.000 NA
ATOM      4  C   UNL     1      -7.031  -5.654 -47.299  0.00  0.00    +0.000 A 
ATOM      5  C   UNL     1      -6.146  -7.617 -46.822  0.00  0.00    +0.000 A 
ATOM      6  C   UNL     1      -7.693  -6.306 -46.256  0.00  0.00    +0.000 A 
ATOM      7  C   UNL     1      -5.051  -6.620 -48.602  0.00  0.00    +0.000 A 
ATOM      8  C   UNL     1      -4.386  -7.786 -48.528  0.00  0.00    +0.000 A 
ENDROOT
BRANCH   4  10
ATOM      9  N   UNL     1      -8.036  -4.394 -49.024  0.00  0.00    +0.000 NA
ATOM     10  C   UNL     1      -7.293  -4.417 -47.969  0.00  0.00    +0.000 C 
BRANCH   9  11
ATOM     11  O   UNL     1      -8.081  -3.101 -49.561  0.00  0.00    +0.000 OA
BRANCH  11  12
ATOM     12  C   UNL     1      -8.453  -3.227 -50.936  0.00  0.00    +0.000 C 
BRANCH  12  15
ATOM     13 CL   UNL     1      -8.949   0.053 -54.938  0.00  0.00    +0.000 Cl
ATOM     14 CL   UNL     1      -6.145   1.425 -54.020  0.00  0.00    +0.000 Cl
ATOM     15  C   UNL     1      -7.885  -2.079 -51.725  0.00  0.00    +0.000 A 
ATOM     16  C   UNL     1      -8.562  -1.583 -52.849  0.00  0.00    +0.000 A 
ATOM     17  C   UNL     1      -6.679  -1.481 -51.337  0.00  0.00    +0.000 A 
ATOM     18  C   UNL     1      -8.046  -0.502 -53.572  0.00  0.00    +0.000 A 
ATOM     19  C   UNL     1      -6.162  -0.401 -52.058  0.00  0.00    +0.000 A 
ATOM     20  C   UNL     1      -6.843   0.090 -53.175  0.00  0.00    +0.000 A 
ENDBRANCH  12  15
ENDBRANCH  11  12
ENDBRANCH   9  11
ENDBRANCH   4  10
BRANCH   6  21
ATOM     21  S   UNL     1      -9.137  -5.750 -45.431  0.00  0.00    +0.000 S 
BRANCH  21  22
ATOM     22  C   UNL     1      -8.495  -4.788 -44.079  0.00  0.00    +0.000 A 
ATOM     23  C   UNL     1      -7.641  -3.131 -41.966  0.00  0.00    +0.000 A 
ATOM     24  C   UNL     1      -7.801  -3.602 -44.342  0.00  0.00    +0.000 A 
ATOM     25  C   UNL     1      -8.753  -5.142 -42.753  0.00  0.00    +0.000 A 
ATOM     26  C   UNL     1      -7.372  -2.779 -43.293  0.00  0.00    +0.000 A 
ATOM     27  C   UNL     1      -8.328  -4.323 -41.704  0.00  0.00    +0.000 A 
ATOM     28  C   UNL     1      -7.216  -2.250 -40.829  0.00  0.00    +0.000 C 
ENDBRANCH  21  22
ENDBRANCH   6  21
TORSDOF 6
ENDMDL
MODEL 7
REMARK VINA RESULT:      -4.8      9.218     11.820
REMARK  Name = 9623088
REMARK  7 active torsions:
REMARK  status: ('A' for Active; 'I' for Inactive)
REMARK    1  A    between atoms: S_4  and  C_11
REMARK    2  A    between atoms: S_4  and  C_14
REMARK    3  A    between atoms: O_5  and  N_8
REMARK    4  A    between atoms: O_5  and  C_20
REMARK    5  A    between atoms: C_9  and  C_13
REMARK    6  A    between atoms: C_16  and  C_25
REMARK    7  A    between atoms: C_19  and  C_20
REMARK                            x       y       z     vdW  Elec       q    Type
REMARK                         _______ _______ _______ _____ _____    ______ ____
ROOT
ATOM      1  S   UNL     1       1.822   8.316 -53.450  0.00  0.00    +0.000 S 
ATOM      2  N   UNL     1       1.162   6.388 -55.011  0.00  0.00    +0.000 N 
ATOM      3  N   UNL     1      -0.205   8.113 -55.382  0.00  0.00    +0.000 NA
ATOM      4  C   UNL     1       0.288   5.936 -55.965  0.00  0.00    +0.000 A 
ATOM      5  C   UNL     1       0.819   7.671 -54.712  0.00  0.00    +0.000 A 
ATOM      6  C   UNL     1      -0.554   7.031 -56.173  0.00  0.00    +0.000 A 
ATOM      7  C   UNL     1       2.206   5.871 -54.271  0.00  0.00    +0.000 A 
ATOM      8  C   UNL     1       2.676   6.765 -53.384  0.00  0.00    +0.000 A 
ENDROOT
BRANCH   4  10
ATOM      9  N   UNL     1      -0.831   4.071 -56.880  0.00  0.00    +0.000 NA
ATOM     10  C   UNL     1       0.279   4.610 -56.502  0.00  0.00    +0.000 C 
BRANCH   9  11
ATOM     11  O   UNL     1      -0.617   2.747 -57.285  0.00  0.00    +0.000 OA
BRANCH  11  12
ATOM     12  C   UNL     1      -0.628   1.938 -56.105  0.00  0.00    +0.000 C 
BRANCH  12  15
ATOM     13 CL   UNL     1      -5.163   0.190 -57.948  0.00  0.00    +0.000 Cl
ATOM     14 CL   UNL     1      -6.223   0.023 -54.877  0.00  0.00    +0.000 Cl
ATOM     15  C   UNL     1      -2.030   1.473 -55.818  0.00  0.00    +0.000 A 
ATOM     16  C   UNL     1      -2.883   1.096 -56.865  0.00  0.00    +0.000 A 
ATOM     17  C   UNL     1      -2.496   1.397 -54.499  0.00  0.00    +0.000 A 
ATOM     18  C   UNL     1      -4.180   0.644 -56.601  0.00  0.00    +0.000 A 
ATOM     19  C   UNL     1      -3.790   0.945 -54.232  0.00  0.00    +0.000 A 
ATOM     20  C   UNL     1      -4.635   0.569 -55.280  0.00  0.00    +0.000 A 
ENDBRANCH  12  15
ENDBRANCH  11  12
ENDBRANCH   9  11
ENDBRANCH   4  10
BRANCH   6  21
ATOM     21  S   UNL     1      -1.964   7.076 -57.216  0.00  0.00    +0.000 S 
BRANCH  21  22
ATOM     22  C   UNL     1      -3.201   6.212 -56.274  0.00  0.00    +0.000 A 
ATOM     23  C   UNL     1      -5.010   4.704 -54.727  0.00  0.00    +0.000 A 
ATOM     24  C   UNL     1      -3.761   5.035 -56.782  0.00  0.00    +0.000 A 
ATOM     25  C   UNL     1      -3.557   6.632 -54.990  0.00  0.00    +0.000 A 
ATOM     26  C   UNL     1      -4.663   4.286 -56.016  0.00  0.00    +0.000 A 
ATOM     27  C   UNL     1      -4.455   5.887 -54.223  0.00  0.00    +0.000 A 
ATOM     28  C   UNL     1      -5.951   3.901 -53.879  0.00  0.00    +0.000 C 
ENDBRANCH  21  22
ENDBRANCH   6  21
TORSDOF 6
ENDMDL
MODEL 8
REMARK VINA RESULT:      -4.8     20.732     22.881
REMARK  Name = 9623088
REMARK  7 active torsions:
REMARK  status: ('A' for Active; 'I' for Inactive)
REMARK    1  A    between atoms: S_4  and  C_11
REMARK    2  A    between atoms: S_4  and  C_14
REMARK    3  A    between atoms: O_5  and  N_8
REMARK    4  A    between atoms: O_5  and  C_20
REMARK    5  A    between atoms: C_9  and  C_13
REMARK    6  A    between atoms: C_16  and  C_25
REMARK    7  A    between atoms: C_19  and  C_20
REMARK                            x       y       z     vdW  Elec       q    Type
REMARK                         _______ _______ _______ _____ _____    ______ ____
ROOT
ATOM      1  S   UNL     1     -20.910  20.340 -48.479  0.00  0.00    +0.000 S 
ATOM      2  N   UNL     1     -19.271  18.773 -47.276  0.00  0.00    +0.000 N 
ATOM      3  N   UNL     1     -19.695  17.947 -49.306  0.00  0.00    +0.000 NA
ATOM      4  C   UNL     1     -18.560  17.603 -47.327  0.00  0.00    +0.000 A 
ATOM      5  C   UNL     1     -19.914  18.918 -48.467  0.00  0.00    +0.000 A 
ATOM      6  C   UNL     1     -18.846  17.109 -48.602  0.00  0.00    +0.000 A 
ATOM      7  C   UNL     1     -19.535  19.756 -46.343  0.00  0.00    +0.000 A 
ATOM      8  C   UNL     1     -20.396  20.672 -46.817  0.00  0.00    +0.000 A 
ENDROOT
BRANCH   4  10
ATOM      9  N   UNL     1     -18.173  15.975 -45.663  0.00  0.00    +0.000 NA
ATOM     10  C   UNL     1     -17.796  17.063 -46.244  0.00  0.00    +0.000 C 
BRANCH   9  11
ATOM     11  O   UNL     1     -17.332  15.683 -44.581  0.00  0.00    +0.000 OA
BRANCH  11  12
ATOM     12  C   UNL     1     -16.250  14.896 -45.087  0.00  0.00    +0.000 C 
BRANCH  12  15
ATOM     13 CL   UNL     1     -13.627  18.359 -42.234  0.00  0.00    +0.000 Cl
ATOM     14 CL   UNL     1     -10.951  17.538 -43.893  0.00  0.00    +0.000 Cl
ATOM     15  C   UNL     1     -14.941  15.576 -44.787  0.00  0.00    +0.000 A 
ATOM     16  C   UNL     1     -14.860  16.554 -43.785  0.00  0.00    +0.000 A 
ATOM     17  C   UNL     1     -13.784  15.229 -45.495  0.00  0.00    +0.000 A 
ATOM     18  C   UNL     1     -13.641  17.172 -43.490  0.00  0.00    +0.000 A 
ATOM     19  C   UNL     1     -12.565  15.845 -45.202  0.00  0.00    +0.000 A 
ATOM     20  C   UNL     1     -12.490  16.817 -44.201  0.00  0.00    +0.000 A 
ENDBRANCH  12  15
ENDBRANCH  11  12
ENDBRANCH   9  11
ENDBRANCH   4  10
BRANCH   6  21
ATOM     21  S   UNL     1     -18.318  15.573 -49.266  0.00  0.00    +0.000 S 
BRANCH  21  22
ATOM     22  C   UNL     1     -16.624  15.879 -49.713  0.00  0.00    +0.000 A 
ATOM     23  C   UNL     1     -13.905  16.153 -50.400  0.00  0.00    +0.000 A 
ATOM     24  C   UNL     1     -15.637  15.883 -48.721  0.00  0.00    +0.000 A 
ATOM     25  C   UNL     1     -16.242  16.017 -51.049  0.00  0.00    +0.000 A 
ATOM     26  C   UNL     1     -14.286  16.024 -49.060  0.00  0.00    +0.000 A 
ATOM     27  C   UNL     1     -14.895  16.156 -51.391  0.00  0.00    +0.000 A 
ATOM     28  C   UNL     1     -12.461  16.275 -50.787  0.00  0.00    +0.000 C 
ENDBRANCH  21  22
ENDBRANCH   6  21
TORSDOF 6
ENDMDL
MODEL 9
REMARK VINA RESULT:      -4.8     19.480     21.900
REMARK  Name = 9623088
REMARK  7 active torsions:
REMARK  status: ('A' for Active; 'I' for Inactive)
REMARK    1  A    between atoms: S_4  and  C_11
REMARK    2  A    between atoms: S_4  and  C_14
REMARK    3  A    between atoms: O_5  and  N_8
REMARK    4  A    between atoms: O_5  and  C_20
REMARK    5  A    between atoms: C_9  and  C_13
REMARK    6  A    between atoms: C_16  and  C_25
REMARK    7  A    between atoms: C_19  and  C_20
REMARK                            x       y       z     vdW  Elec       q    Type
REMARK                         _______ _______ _______ _____ _____    ______ ____
ROOT
ATOM      1  S   UNL     1     -13.920  20.553 -43.222  0.00  0.00    +0.000 S 
ATOM      2  N   UNL     1     -12.063  19.144 -44.296  0.00  0.00    +0.000 N 
ATOM      3  N   UNL     1     -13.965  17.979 -44.341  0.00  0.00    +0.000 NA
ATOM      4  C   UNL     1     -11.718  17.944 -44.859  0.00  0.00    +0.000 A 
ATOM      5  C   UNL     1     -13.394  19.101 -44.014  0.00  0.00    +0.000 A 
ATOM      6  C   UNL     1     -12.923  17.237 -44.871  0.00  0.00    +0.000 A 
ATOM      7  C   UNL     1     -11.416  20.299 -43.903  0.00  0.00    +0.000 A 
ATOM      8  C   UNL     1     -12.258  21.161 -43.307  0.00  0.00    +0.000 A 
ENDROOT
BRANCH   4  10
ATOM      9  N   UNL     1      -9.792  18.196 -46.199  0.00  0.00    +0.000 NA
ATOM     10  C   UNL     1     -10.390  17.572 -45.241  0.00  0.00    +0.000 C 
BRANCH   9  11
ATOM     11  O   UNL     1      -8.546  17.610 -46.460  0.00  0.00    +0.000 OA
BRANCH  11  12
ATOM     12  C   UNL     1      -7.648  18.057 -45.440  0.00  0.00    +0.000 C 
BRANCH  12  15
ATOM     13 CL   UNL     1      -5.808  15.506 -41.301  0.00  0.00    +0.000 Cl
ATOM     14 CL   UNL     1      -4.553  13.310 -43.348  0.00  0.00    +0.000 Cl
ATOM     15  C   UNL     1      -6.866  16.889 -44.902  0.00  0.00    +0.000 A 
ATOM     16  C   UNL     1      -6.685  16.729 -43.521  0.00  0.00    +0.000 A 
ATOM     17  C   UNL     1      -6.323  15.937 -45.775  0.00  0.00    +0.000 A 
ATOM     18  C   UNL     1      -5.977  15.633 -43.017  0.00  0.00    +0.000 A 
ATOM     19  C   UNL     1      -5.615  14.842 -45.275  0.00  0.00    +0.000 A 
ATOM     20  C   UNL     1      -5.440  14.687 -43.897  0.00  0.00    +0.000 A 
ENDBRANCH  12  15
ENDBRANCH  11  12
ENDBRANCH   9  11
ENDBRANCH   4  10
BRANCH   6  21
ATOM     21  S   UNL     1     -13.149  15.574 -45.383  0.00  0.00    +0.000 S 
BRANCH  21  22
ATOM     22  C   UNL     1     -14.024  15.734 -46.924  0.00  0.00    +0.000 A 
ATOM     23  C   UNL     1     -15.324  15.800 -49.423  0.00  0.00    +0.000 A 
ATOM     24  C   UNL     1     -13.333  16.134 -48.073  0.00  0.00    +0.000 A 
ATOM     25  C   UNL     1     -15.369  15.373 -47.033  0.00  0.00    +0.000 A 
ATOM     26  C   UNL     1     -13.979  16.171 -49.315  0.00  0.00    +0.000 A 
ATOM     27  C   UNL     1     -16.015  15.408 -48.270  0.00  0.00    +0.000 A 
ATOM     28  C   UNL     1     -16.025  15.805 -50.749  0.00  0.00    +0.000 C 
ENDBRANCH  21  22
ENDBRANCH   6  21
TORSDOF 6
ENDMDL
MODEL 10
REMARK VINA RESULT:      -4.7     19.802     21.750
REMARK  Name = 9623088
REMARK  7 active torsions:
REMARK  status: ('A' for Active; 'I' for Inactive)
REMARK    1  A    between atoms: S_4  and  C_11
REMARK    2  A    between atoms: S_4  and  C_14
REMARK    3  A    between atoms: O_5  and  N_8
REMARK    4  A    between atoms: O_5  and  C_20
REMARK    5  A    between atoms: C_9  and  C_13
REMARK    6  A    between atoms: C_16  and  C_25
REMARK    7  A    between atoms: C_19  and  C_20
REMARK                            x       y       z     vdW  Elec       q    Type
REMARK                         _______ _______ _______ _____ _____    ______ ____
ROOT
ATOM      1  S   UNL     1     -29.196   7.356 -50.255  0.00  0.00    +0.000 S 
ATOM      2  N   UNL     1     -26.682   7.080 -50.695  0.00  0.00    +0.000 N 
ATOM      3  N   UNL     1     -27.114   6.471 -48.592  0.00  0.00    +0.000 NA
ATOM      4  C   UNL     1     -25.458   6.752 -50.173  0.00  0.00    +0.000 A 
ATOM      5  C   UNL     1     -27.611   6.893 -49.717  0.00  0.00    +0.000 A 
ATOM      6  C   UNL     1     -25.758   6.380 -48.860  0.00  0.00    +0.000 A 
ATOM      7  C   UNL     1     -27.171   7.588 -51.881  0.00  0.00    +0.000 A 
ATOM      8  C   UNL     1     -28.497   7.800 -51.821  0.00  0.00    +0.000 A 
ENDROOT
BRANCH   4  10
ATOM      9  N   UNL     1     -23.613   8.012 -50.933  0.00  0.00    +0.000 NA
ATOM     10  C   UNL     1     -24.214   6.872 -50.870  0.00  0.00    +0.000 C 
BRANCH   9  11
ATOM     11  O   UNL     1     -22.468   7.916 -51.734  0.00  0.00    +0.000 OA
BRANCH  11  12
ATOM     12  C   UNL     1     -22.817   8.406 -53.032  0.00  0.00    +0.000 C 
BRANCH  12  15
ATOM     13 CL   UNL     1     -19.336   6.596 -56.441  0.00  0.00    +0.000 Cl
ATOM     14 CL   UNL     1     -21.440   4.222 -57.165  0.00  0.00    +0.000 Cl
ATOM     15  C   UNL     1     -22.464   7.381 -54.076  0.00  0.00    +0.000 A 
ATOM     16  C   UNL     1     -21.226   7.430 -54.732  0.00  0.00    +0.000 A 
ATOM     17  C   UNL     1     -23.363   6.354 -54.394  0.00  0.00    +0.000 A 
ATOM     18  C   UNL     1     -20.886   6.467 -55.687  0.00  0.00    +0.000 A 
ATOM     19  C   UNL     1     -23.026   5.391 -55.348  0.00  0.00    +0.000 A 
ATOM     20  C   UNL     1     -21.789   5.445 -55.996  0.00  0.00    +0.000 A 
ENDBRANCH  12  15
ENDBRANCH  11  12
ENDBRANCH   9  11
ENDBRANCH   4  10
BRANCH   6  21
ATOM     21  S   UNL     1     -24.605   5.939 -47.614  0.00  0.00    +0.000 S 
BRANCH  21  22
ATOM     22  C   UNL     1     -24.325   7.469 -46.751  0.00  0.00    +0.000 A 
ATOM     23  C   UNL     1     -24.094   9.918 -45.378  0.00  0.00    +0.000 A 
ATOM     24  C   UNL     1     -24.446   8.682 -47.437  0.00  0.00    +0.000 A 
ATOM     25  C   UNL     1     -24.083   7.490 -45.376  0.00  0.00    +0.000 A 
ATOM     26  C   UNL     1     -24.327   9.900 -46.757  0.00  0.00    +0.000 A 
ATOM     27  C   UNL     1     -23.966   8.703 -44.694  0.00  0.00    +0.000 A 
ATOM     28  C   UNL     1     -23.993  11.212 -44.626  0.00  0.00    +0.000 C 
ENDBRANCH  21  22
ENDBRANCH   6  21
TORSDOF 6
ENDMDL
