MODEL 1
REMARK VINA RESULT:      -6.1      0.000      0.000
REMARK  Name = 9623088
REMARK  7 active torsions:
REMARK  status: ('A' for Active; 'I' for Inactive)
REMARK    1  A    between atoms: S_4  and  C_11
REMARK    2  A    between atoms: S_4  and  C_14
REMARK    3  A    between atoms: O_5  and  N_8
REMARK    4  A    between atoms: O_5  and  C_20
REMARK    5  A    between atoms: C_9  and  C_13
REMARK    6  A    between atoms: C_16  and  C_25
REMARK    7  A    between atoms: C_19  and  C_20
REMARK                            x       y       z     vdW  Elec       q    Type
REMARK                         _______ _______ _______ _____ _____    ______ ____
ROOT
ATOM      1  S   UNL     1     -17.691   5.426  18.576  0.00  0.00    +0.000 S 
ATOM      2  N   UNL     1     -17.287   4.788  21.029  0.00  0.00    +0.000 N 
ATOM      3  N   UNL     1     -15.987   6.528  20.516  0.00  0.00    +0.000 NA
ATOM      4  C   UNL     1     -16.573   5.033  22.172  0.00  0.00    +0.000 A 
ATOM      5  C   UNL     1     -16.897   5.699  20.095  0.00  0.00    +0.000 A 
ATOM      6  C   UNL     1     -15.769   6.120  21.822  0.00  0.00    +0.000 A 
ATOM      7  C   UNL     1     -18.205   3.855  20.591  0.00  0.00    +0.000 A 
ATOM      8  C   UNL     1     -18.530   4.044  19.300  0.00  0.00    +0.000 A 
ENDROOT
BRANCH   4  10
ATOM      9  N   UNL     1     -15.681   3.463  23.692  0.00  0.00    +0.000 NA
ATOM     10  C   UNL     1     -16.651   4.250  23.368  0.00  0.00    +0.000 C 
BRANCH   9  11
ATOM     11  O   UNL     1     -16.009   2.734  24.843  0.00  0.00    +0.000 OA
BRANCH  11  12
ATOM     12  C   UNL     1     -16.915   3.535  25.607  0.00  0.00    +0.000 C 
BRANCH  12  15
ATOM     13 CL   UNL     1     -15.084   0.668  29.536  0.00  0.00    +0.000 Cl
ATOM     14 CL   UNL     1     -15.493   3.252  31.470  0.00  0.00    +0.000 Cl
ATOM     15  C   UNL     1     -16.570   3.442  27.069  0.00  0.00    +0.000 A 
ATOM     16  C   UNL     1     -16.059   2.252  27.605  0.00  0.00    +0.000 A 
ATOM     17  C   UNL     1     -16.742   4.550  27.909  0.00  0.00    +0.000 A 
ATOM     18  C   UNL     1     -15.718   2.169  28.959  0.00  0.00    +0.000 A 
ATOM     19  C   UNL     1     -16.402   4.469  29.262  0.00  0.00    +0.000 A 
ATOM     20  C   UNL     1     -15.890   3.281  29.790  0.00  0.00    +0.000 A 
ENDBRANCH  12  15
ENDBRANCH  11  12
ENDBRANCH   9  11
ENDBRANCH   4  10
BRANCH   6  21
ATOM     21  S   UNL     1     -14.537   6.868  22.822  0.00  0.00    +0.000 S 
BRANCH  21  22
ATOM     22  C   UNL     1     -13.384   7.522  21.635  0.00  0.00    +0.000 A 
ATOM     23  C   UNL     1     -11.433   8.610  19.918  0.00  0.00    +0.000 A 
ATOM     24  C   UNL     1     -13.296   8.906  21.446  0.00  0.00    +0.000 A 
ATOM     25  C   UNL     1     -12.494   6.688  20.955  0.00  0.00    +0.000 A 
ATOM     26  C   UNL     1     -12.330   9.448  20.590  0.00  0.00    +0.000 A 
ATOM     27  C   UNL     1     -11.528   7.225  20.102  0.00  0.00    +0.000 A 
ATOM     28  C   UNL     1     -10.371   9.173  19.020  0.00  0.00    +0.000 C 
ENDBRANCH  21  22
ENDBRANCH   6  21
TORSDOF 6
ENDMDL
MODEL 2
REMARK VINA RESULT:      -5.8      4.453      8.541
REMARK  Name = 9623088
REMARK  7 active torsions:
REMARK  status: ('A' for Active; 'I' for Inactive)
REMARK    1  A    between atoms: S_4  and  C_11
REMARK    2  A    between atoms: S_4  and  C_14
REMARK    3  A    between atoms: O_5  and  N_8
REMARK    4  A    between atoms: O_5  and  C_20
REMARK    5  A    between atoms: C_9  and  C_13
REMARK    6  A    between atoms: C_16  and  C_25
REMARK    7  A    between atoms: C_19  and  C_20
REMARK                            x       y       z     vdW  Elec       q    Type
REMARK                         _______ _______ _______ _____ _____    ______ ____
ROOT
ATOM      1  S   UNL     1     -20.811   5.993  24.320  0.00  0.00    +0.000 S 
ATOM      2  N   UNL     1     -18.401   5.531  23.568  0.00  0.00    +0.000 N 
ATOM      3  N   UNL     1     -19.228   3.680  24.500  0.00  0.00    +0.000 NA
ATOM      4  C   UNL     1     -17.367   4.633  23.528  0.00  0.00    +0.000 A 
ATOM      5  C   UNL     1     -19.464   4.911  24.150  0.00  0.00    +0.000 A 
ATOM      6  C   UNL     1     -17.910   3.491  24.119  0.00  0.00    +0.000 A 
ATOM      7  C   UNL     1     -18.600   6.858  23.243  0.00  0.00    +0.000 A 
ATOM      8  C   UNL     1     -19.834   7.272  23.580  0.00  0.00    +0.000 A 
ENDROOT
BRANCH   4  10
ATOM      9  N   UNL     1     -15.690   4.522  21.870  0.00  0.00    +0.000 NA
ATOM     10  C   UNL     1     -16.052   4.922  23.042  0.00  0.00    +0.000 C 
BRANCH   9  11
ATOM     11  O   UNL     1     -14.344   4.837  21.641  0.00  0.00    +0.000 OA
BRANCH  11  12
ATOM     12  C   UNL     1     -14.040   5.992  22.428  0.00  0.00    +0.000 C 
BRANCH  12  15
ATOM     13 CL   UNL     1     -13.145  10.898  20.964  0.00  0.00    +0.000 Cl
ATOM     14 CL   UNL     1     -10.629   9.804  19.216  0.00  0.00    +0.000 Cl
ATOM     15  C   UNL     1     -13.210   6.954  21.621  0.00  0.00    +0.000 A 
ATOM     16  C   UNL     1     -13.503   8.325  21.627  0.00  0.00    +0.000 A 
ATOM     17  C   UNL     1     -12.125   6.492  20.866  0.00  0.00    +0.000 A 
ATOM     18  C   UNL     1     -12.721   9.224  20.894  0.00  0.00    +0.000 A 
ATOM     19  C   UNL     1     -11.341   7.388  20.134  0.00  0.00    +0.000 A 
ATOM     20  C   UNL     1     -11.638   8.754  20.146  0.00  0.00    +0.000 A 
ENDBRANCH  12  15
ENDBRANCH  11  12
ENDBRANCH   9  11
ENDBRANCH   4  10
BRANCH   6  21
ATOM     21  S   UNL     1     -17.064   1.993  24.464  0.00  0.00    +0.000 S 
BRANCH  21  22
ATOM     22  C   UNL     1     -16.657   2.138  26.190  0.00  0.00    +0.000 A 
ATOM     23  C   UNL     1     -16.210   2.444  28.955  0.00  0.00    +0.000 A 
ATOM     24  C   UNL     1     -16.355   3.395  26.726  0.00  0.00    +0.000 A 
ATOM     25  C   UNL     1     -16.729   1.037  27.045  0.00  0.00    +0.000 A 
ATOM     26  C   UNL     1     -16.129   3.548  28.099  0.00  0.00    +0.000 A 
ATOM     27  C   UNL     1     -16.505   1.186  28.415  0.00  0.00    +0.000 A 
ATOM     28  C   UNL     1     -16.000   2.592  30.432  0.00  0.00    +0.000 C 
ENDBRANCH  21  22
ENDBRANCH   6  21
TORSDOF 6
ENDMDL
MODEL 3
REMARK VINA RESULT:      -5.7     20.379     22.397
REMARK  Name = 9623088
REMARK  7 active torsions:
REMARK  status: ('A' for Active; 'I' for Inactive)
REMARK    1  A    between atoms: S_4  and  C_11
REMARK    2  A    between atoms: S_4  and  C_14
REMARK    3  A    between atoms: O_5  and  N_8
REMARK    4  A    between atoms: O_5  and  C_20
REMARK    5  A    between atoms: C_9  and  C_13
REMARK    6  A    between atoms: C_16  and  C_25
REMARK    7  A    between atoms: C_19  and  C_20
REMARK                            x       y       z     vdW  Elec       q    Type
REMARK                         _______ _______ _______ _____ _____    ______ ____
ROOT
ATOM      1  S   UNL     1      -6.271 -13.458   7.245  0.00  0.00    +0.000 S 
ATOM      2  N   UNL     1      -6.968 -11.126   8.060  0.00  0.00    +0.000 N 
ATOM      3  N   UNL     1      -4.746 -11.295   8.182  0.00  0.00    +0.000 NA
ATOM      4  C   UNL     1      -6.561  -9.929   8.588  0.00  0.00    +0.000 A 
ATOM      5  C   UNL     1      -5.857 -11.883   7.845  0.00  0.00    +0.000 A 
ATOM      6  C   UNL     1      -5.172 -10.065   8.656  0.00  0.00    +0.000 A 
ATOM      7  C   UNL     1      -8.167 -11.747   7.771  0.00  0.00    +0.000 A 
ATOM      8  C   UNL     1      -7.981 -13.003   7.327  0.00  0.00    +0.000 A 
ENDROOT
BRANCH   4  10
ATOM      9  N   UNL     1      -7.695  -7.893   8.220  0.00  0.00    +0.000 NA
ATOM     10  C   UNL     1      -7.439  -8.881   9.009  0.00  0.00    +0.000 C 
BRANCH   9  11
ATOM     11  O   UNL     1      -8.500  -6.947   8.868  0.00  0.00    +0.000 OA
BRANCH  11  12
ATOM     12  C   UNL     1      -9.076  -6.118   7.855  0.00  0.00    +0.000 C 
BRANCH  12  15
ATOM     13 CL   UNL     1     -14.172  -6.193   8.876  0.00  0.00    +0.000 Cl
ATOM     14 CL   UNL     1     -13.854  -3.212  10.141  0.00  0.00    +0.000 Cl
ATOM     15  C   UNL     1     -10.280  -5.402   8.406  0.00  0.00    +0.000 A 
ATOM     16  C   UNL     1     -11.541  -6.016   8.393  0.00  0.00    +0.000 A 
ATOM     17  C   UNL     1     -10.153  -4.119   8.954  0.00  0.00    +0.000 A 
ATOM     18  C   UNL     1     -12.658  -5.362   8.923  0.00  0.00    +0.000 A 
ATOM     19  C   UNL     1     -11.267  -3.463   9.484  0.00  0.00    +0.000 A 
ATOM     20  C   UNL     1     -12.520  -4.082   9.470  0.00  0.00    +0.000 A 
ENDBRANCH  12  15
ENDBRANCH  11  12
ENDBRANCH   9  11
ENDBRANCH   4  10
BRANCH   6  21
ATOM     21  S   UNL     1      -4.045  -8.906   9.338  0.00  0.00    +0.000 S 
BRANCH  21  22
ATOM     22  C   UNL     1      -3.537  -9.673  10.860  0.00  0.00    +0.000 A 
ATOM     23  C   UNL     1      -2.688 -10.694  13.346  0.00  0.00    +0.000 A 
ATOM     24  C   UNL     1      -2.173  -9.810  11.144  0.00  0.00    +0.000 A 
ATOM     25  C   UNL     1      -4.471 -10.055  11.825  0.00  0.00    +0.000 A 
ATOM     26  C   UNL     1      -1.750 -10.321  12.377  0.00  0.00    +0.000 A 
ATOM     27  C   UNL     1      -4.052 -10.564  13.056  0.00  0.00    +0.000 A 
ATOM     28  C   UNL     1      -2.255 -11.215  14.684  0.00  0.00    +0.000 C 
ENDBRANCH  21  22
ENDBRANCH   6  21
TORSDOF 6
ENDMDL
MODEL 4
REMARK VINA RESULT:      -5.6     18.955     20.619
REMARK  Name = 9623088
REMARK  7 active torsions:
REMARK  status: ('A' for Active; 'I' for Inactive)
REMARK    1  A    between atoms: S_4  and  C_11
REMARK    2  A    between atoms: S_4  and  C_14
REMARK    3  A    between atoms: O_5  and  N_8
REMARK    4  A    between atoms: O_5  and  C_20
REMARK    5  A    between atoms: C_9  and  C_13
REMARK    6  A    between atoms: C_16  and  C_25
REMARK    7  A    between atoms: C_19  and  C_20
REMARK                            x       y       z     vdW  Elec       q    Type
REMARK                         _______ _______ _______ _____ _____    ______ ____
ROOT
ATOM      1  S   UNL     1     -10.687 -15.132  15.929  0.00  0.00    +0.000 S 
ATOM      2  N   UNL     1      -8.932 -13.312  16.371  0.00  0.00    +0.000 N 
ATOM      3  N   UNL     1     -10.619 -13.047  17.808  0.00  0.00    +0.000 NA
ATOM      4  C   UNL     1      -8.596 -12.199  17.096  0.00  0.00    +0.000 A 
ATOM      5  C   UNL     1     -10.130 -13.762  16.837  0.00  0.00    +0.000 A 
ATOM      6  C   UNL     1      -9.667 -12.056  17.981  0.00  0.00    +0.000 A 
ATOM      7  C   UNL     1      -8.419 -14.013  15.299  0.00  0.00    +0.000 A 
ATOM      8  C   UNL     1      -9.230 -15.019  14.928  0.00  0.00    +0.000 A 
ENDROOT
BRANCH   4  10
ATOM      9  N   UNL     1      -6.576 -11.213  17.817  0.00  0.00    +0.000 NA
ATOM     10  C   UNL     1      -7.432 -11.397  16.869  0.00  0.00    +0.000 C 
BRANCH   9  11
ATOM     11  O   UNL     1      -5.571 -10.329  17.401  0.00  0.00    +0.000 OA
BRANCH  11  12
ATOM     12  C   UNL     1      -4.347 -11.068  17.365  0.00  0.00    +0.000 C 
BRANCH  12  15
ATOM     13 CL   UNL     1      -4.761 -10.491  12.216  0.00  0.00    +0.000 Cl
ATOM     14 CL   UNL     1      -1.528 -10.136  12.105  0.00  0.00    +0.000 Cl
ATOM     15  C   UNL     1      -3.660 -10.852  16.044  0.00  0.00    +0.000 A 
ATOM     16  C   UNL     1      -4.403 -10.788  14.857  0.00  0.00    +0.000 A 
ATOM     17  C   UNL     1      -2.269 -10.697  15.986  0.00  0.00    +0.000 A 
ATOM     18  C   UNL     1      -3.769 -10.566  13.630  0.00  0.00    +0.000 A 
ATOM     19  C   UNL     1      -1.633 -10.476  14.762  0.00  0.00    +0.000 A 
ATOM     20  C   UNL     1      -2.380 -10.410  13.582  0.00  0.00    +0.000 A 
ENDBRANCH  12  15
ENDBRANCH  11  12
ENDBRANCH   9  11
ENDBRANCH   4  10
BRANCH   6  21
ATOM     21  S   UNL     1      -9.901 -10.751  19.130  0.00  0.00    +0.000 S 
BRANCH  21  22
ATOM     22  C   UNL     1     -10.535  -9.427  18.126  0.00  0.00    +0.000 A 
ATOM     23  C   UNL     1     -11.478  -7.440  16.364  0.00  0.00    +0.000 A 
ATOM     24  C   UNL     1      -9.647  -8.518  17.539  0.00  0.00    +0.000 A 
ATOM     25  C   UNL     1     -11.896  -9.331  17.829  0.00  0.00    +0.000 A 
ATOM     26  C   UNL     1     -10.115  -7.527  16.666  0.00  0.00    +0.000 A 
ATOM     27  C   UNL     1     -12.365  -8.345  16.959  0.00  0.00    +0.000 A 
ATOM     28  C   UNL     1     -11.995  -6.405  15.409  0.00  0.00    +0.000 C 
ENDBRANCH  21  22
ENDBRANCH   6  21
TORSDOF 6
ENDMDL
MODEL 5
REMARK VINA RESULT:      -5.5      9.731     14.573
REMARK  Name = 9623088
REMARK  7 active torsions:
REMARK  status: ('A' for Active; 'I' for Inactive)
REMARK    1  A    between atoms: S_4  and  C_11
REMARK    2  A    between atoms: S_4  and  C_14
REMARK    3  A    between atoms: O_5  and  N_8
REMARK    4  A    between atoms: O_5  and  C_20
REMARK    5  A    between atoms: C_9  and  C_13
REMARK    6  A    between atoms: C_16  and  C_25
REMARK    7  A    between atoms: C_19  and  C_20
REMARK                            x       y       z     vdW  Elec       q    Type
REMARK                         _______ _______ _______ _____ _____    ______ ____
ROOT
ATOM      1  S   UNL     1     -12.650  15.148  18.055  0.00  0.00    +0.000 S 
ATOM      2  N   UNL     1     -10.363  14.210  17.368  0.00  0.00    +0.000 N 
ATOM      3  N   UNL     1     -11.925  12.675  16.941  0.00  0.00    +0.000 NA
ATOM      4  C   UNL     1      -9.666  13.135  16.880  0.00  0.00    +0.000 A 
ATOM      5  C   UNL     1     -11.682  13.876  17.379  0.00  0.00    +0.000 A 
ATOM      6  C   UNL     1     -10.665  12.193  16.626  0.00  0.00    +0.000 A 
ATOM      7  C   UNL     1     -10.067  15.455  17.886  0.00  0.00    +0.000 A 
ATOM      8  C   UNL     1     -11.173  16.093  18.305  0.00  0.00    +0.000 A 
ENDROOT
BRANCH   4  10
ATOM      9  N   UNL     1      -7.655  13.472  15.692  0.00  0.00    +0.000 NA
ATOM     10  C   UNL     1      -8.241  13.068  16.768  0.00  0.00    +0.000 C 
BRANCH   9  11
ATOM     11  O   UNL     1      -6.276  13.231  15.768  0.00  0.00    +0.000 OA
BRANCH  11  12
ATOM     12  C   UNL     1      -5.618  14.367  15.201  0.00  0.00    +0.000 C 
BRANCH  12  15
ATOM     13 CL   UNL     1      -4.812  19.327  16.530  0.00  0.00    +0.000 Cl
ATOM     14 CL   UNL     1      -4.407  18.326  19.599  0.00  0.00    +0.000 Cl
ATOM     15  C   UNL     1      -5.301  15.366  16.281  0.00  0.00    +0.000 A 
ATOM     16  C   UNL     1      -5.193  16.731  15.980  0.00  0.00    +0.000 A 
ATOM     17  C   UNL     1      -5.126  14.944  17.606  0.00  0.00    +0.000 A 
ATOM     18  C   UNL     1      -4.919  17.663  16.986  0.00  0.00    +0.000 A 
ATOM     19  C   UNL     1      -4.853  15.874  18.612  0.00  0.00    +0.000 A 
ATOM     20  C   UNL     1      -4.748  17.233  18.306  0.00  0.00    +0.000 A 
ENDBRANCH  12  15
ENDBRANCH  11  12
ENDBRANCH   9  11
ENDBRANCH   4  10
BRANCH   6  21
ATOM     21  S   UNL     1     -10.427  10.546  16.073  0.00  0.00    +0.000 S 
BRANCH  21  22
ATOM     22  C   UNL     1     -10.867   9.567  17.492  0.00  0.00    +0.000 A 
ATOM     23  C   UNL     1     -11.388   7.902  19.705  0.00  0.00    +0.000 A 
ATOM     24  C   UNL     1     -11.426   8.297  17.310  0.00  0.00    +0.000 A 
ATOM     25  C   UNL     1     -10.576   9.999  18.788  0.00  0.00    +0.000 A 
ATOM     26  C   UNL     1     -11.690   7.470  18.409  0.00  0.00    +0.000 A 
ATOM     27  C   UNL     1     -10.836   9.176  19.885  0.00  0.00    +0.000 A 
ATOM     28  C   UNL     1     -11.635   7.020  20.892  0.00  0.00    +0.000 C 
ENDBRANCH  21  22
ENDBRANCH   6  21
TORSDOF 6
ENDMDL
MODEL 6
REMARK VINA RESULT:      -5.4     32.544     36.467
REMARK  Name = 9623088
REMARK  7 active torsions:
REMARK  status: ('A' for Active; 'I' for Inactive)
REMARK    1  A    between atoms: S_4  and  C_11
REMARK    2  A    between atoms: S_4  and  C_14
REMARK    3  A    between atoms: O_5  and  N_8
REMARK    4  A    between atoms: O_5  and  C_20
REMARK    5  A    between atoms: C_9  and  C_13
REMARK    6  A    between atoms: C_16  and  C_25
REMARK    7  A    between atoms: C_19  and  C_20
REMARK                            x       y       z     vdW  Elec       q    Type
REMARK                         _______ _______ _______ _____ _____    ______ ____
ROOT
ATOM      1  S   UNL     1      20.881   8.252   3.258  0.00  0.00    +0.000 S 
ATOM      2  N   UNL     1      18.445   8.158   4.061  0.00  0.00    +0.000 N 
ATOM      3  N   UNL     1      18.464   8.209   1.830  0.00  0.00    +0.000 NA
ATOM      4  C   UNL     1      17.122   8.168   3.705  0.00  0.00    +0.000 A 
ATOM      5  C   UNL     1      19.180   8.184   2.916  0.00  0.00    +0.000 A 
ATOM      6  C   UNL     1      17.165   8.203   2.310  0.00  0.00    +0.000 A 
ATOM      7  C   UNL     1      19.177   8.196   5.230  0.00  0.00    +0.000 A 
ATOM      8  C   UNL     1      20.498   8.252   4.988  0.00  0.00    +0.000 A 
ENDROOT
BRANCH   4  10
ATOM      9  N   UNL     1      15.534   9.341   4.998  0.00  0.00    +0.000 NA
ATOM     10  C   UNL     1      16.028   8.208   4.627  0.00  0.00    +0.000 C 
BRANCH   9  11
ATOM     11  O   UNL     1      14.538   9.146   5.965  0.00  0.00    +0.000 OA
BRANCH  11  12
ATOM     12  C   UNL     1      14.343   7.734   6.091  0.00  0.00    +0.000 C 
BRANCH  12  15
ATOM     13 CL   UNL     1      10.282   5.327   8.266  0.00  0.00    +0.000 Cl
ATOM     14 CL   UNL     1       8.422   6.556   5.895  0.00  0.00    +0.000 Cl
ATOM     15  C   UNL     1      12.873   7.418   6.049  0.00  0.00    +0.000 A 
ATOM     16  C   UNL     1      12.291   6.607   7.033  0.00  0.00    +0.000 A 
ATOM     17  C   UNL     1      12.064   7.942   5.033  0.00  0.00    +0.000 A 
ATOM     18  C   UNL     1      10.920   6.327   7.009  0.00  0.00    +0.000 A 
ATOM     19  C   UNL     1      10.695   7.665   5.005  0.00  0.00    +0.000 A 
ATOM     20  C   UNL     1      10.120   6.858   5.991  0.00  0.00    +0.000 A 
ENDBRANCH  12  15
ENDBRANCH  11  12
ENDBRANCH   9  11
ENDBRANCH   4  10
BRANCH   6  21
ATOM     21  S   UNL     1      15.789   8.328   1.228  0.00  0.00    +0.000 S 
BRANCH  21  22
ATOM     22  C   UNL     1      14.988   6.749   1.396  0.00  0.00    +0.000 A 
ATOM     23  C   UNL     1      13.581   4.310   1.511  0.00  0.00    +0.000 A 
ATOM     24  C   UNL     1      13.786   6.654   2.107  0.00  0.00    +0.000 A 
ATOM     25  C   UNL     1      15.482   5.615   0.748  0.00  0.00    +0.000 A 
ATOM     26  C   UNL     1      13.088   5.442   2.169  0.00  0.00    +0.000 A 
ATOM     27  C   UNL     1      14.788   4.405   0.806  0.00  0.00    +0.000 A 
ATOM     28  C   UNL     1      12.833   3.010   1.540  0.00  0.00    +0.000 C 
ENDBRANCH  21  22
ENDBRANCH   6  21
TORSDOF 6
ENDMDL
MODEL 7
REMARK VINA RESULT:      -5.3     19.780     22.844
REMARK  Name = 9623088
REMARK  7 active torsions:
REMARK  status: ('A' for Active; 'I' for Inactive)
REMARK    1  A    between atoms: S_4  and  C_11
REMARK    2  A    between atoms: S_4  and  C_14
REMARK    3  A    between atoms: O_5  and  N_8
REMARK    4  A    between atoms: O_5  and  C_20
REMARK    5  A    between atoms: C_9  and  C_13
REMARK    6  A    between atoms: C_16  and  C_25
REMARK    7  A    between atoms: C_19  and  C_20
REMARK                            x       y       z     vdW  Elec       q    Type
REMARK                         _______ _______ _______ _____ _____    ______ ____
ROOT
ATOM      1  S   UNL     1       5.470  20.824  24.694  0.00  0.00    +0.000 S 
ATOM      2  N   UNL     1       4.152  18.622  24.677  0.00  0.00    +0.000 N 
ATOM      3  N   UNL     1       6.164  18.260  23.783  0.00  0.00    +0.000 NA
ATOM      4  C   UNL     1       4.134  17.301  24.311  0.00  0.00    +0.000 A 
ATOM      5  C   UNL     1       5.370  19.127  24.340  0.00  0.00    +0.000 A 
ATOM      6  C   UNL     1       5.400  17.106  23.754  0.00  0.00    +0.000 A 
ATOM      7  C   UNL     1       3.265  19.534  25.212  0.00  0.00    +0.000 A 
ATOM      8  C   UNL     1       3.803  20.763  25.289  0.00  0.00    +0.000 A 
ENDROOT
BRANCH   4  10
ATOM      9  N   UNL     1       2.447  15.930  23.393  0.00  0.00    +0.000 NA
ATOM     10  C   UNL     1       3.005  16.432  24.443  0.00  0.00    +0.000 C 
BRANCH   9  11
ATOM     11  O   UNL     1       1.314  15.187  23.751  0.00  0.00    +0.000 OA
BRANCH  11  12
ATOM     12  C   UNL     1       0.979  14.362  22.631  0.00  0.00    +0.000 C 
BRANCH  12  15
ATOM     13 CL   UNL     1       1.108  16.083  17.728  0.00  0.00    +0.000 Cl
ATOM     14 CL   UNL     1      -1.653  17.694  18.335  0.00  0.00    +0.000 Cl
ATOM     15  C   UNL     1       0.345  15.200  21.554  0.00  0.00    +0.000 A 
ATOM     16  C   UNL     1       0.928  15.282  20.281  0.00  0.00    +0.000 A 
ATOM     17  C   UNL     1      -0.844  15.897  21.805  0.00  0.00    +0.000 A 
ATOM     18  C   UNL     1       0.330  16.044  19.271  0.00  0.00    +0.000 A 
ATOM     19  C   UNL     1      -1.443  16.657  20.798  0.00  0.00    +0.000 A 
ATOM     20  C   UNL     1      -0.859  16.733  19.531  0.00  0.00    +0.000 A 
ENDBRANCH  12  15
ENDBRANCH  11  12
ENDBRANCH   9  11
ENDBRANCH   4  10
BRANCH   6  21
ATOM     21  S   UNL     1       5.988  15.637  22.997  0.00  0.00    +0.000 S 
BRANCH  21  22
ATOM     22  C   UNL     1       5.661  15.904  21.269  0.00  0.00    +0.000 A 
ATOM     23  C   UNL     1       5.037  16.142  18.532  0.00  0.00    +0.000 A 
ATOM     24  C   UNL     1       6.399  15.203  20.309  0.00  0.00    +0.000 A 
ATOM     25  C   UNL     1       4.613  16.727  20.850  0.00  0.00    +0.000 A 
ATOM     26  C   UNL     1       6.093  15.324  18.948  0.00  0.00    +0.000 A 
ATOM     27  C   UNL     1       4.305  16.848  19.494  0.00  0.00    +0.000 A 
ATOM     28  C   UNL     1       4.675  16.261  17.081  0.00  0.00    +0.000 C 
ENDBRANCH  21  22
ENDBRANCH   6  21
TORSDOF 6
ENDMDL
MODEL 8
REMARK VINA RESULT:      -5.3     16.459     18.600
REMARK  Name = 9623088
REMARK  7 active torsions:
REMARK  status: ('A' for Active; 'I' for Inactive)
REMARK    1  A    between atoms: S_4  and  C_11
REMARK    2  A    between atoms: S_4  and  C_14
REMARK    3  A    between atoms: O_5  and  N_8
REMARK    4  A    between atoms: O_5  and  C_20
REMARK    5  A    between atoms: C_9  and  C_13
REMARK    6  A    between atoms: C_16  and  C_25
REMARK    7  A    between atoms: C_19  and  C_20
REMARK                            x       y       z     vdW  Elec       q    Type
REMARK                         _______ _______ _______ _____ _____    ______ ____
ROOT
ATOM      1  S   UNL     1      -0.572   8.525  38.548  0.00  0.00    +0.000 S 
ATOM      2  N   UNL     1      -2.287   9.879  37.202  0.00  0.00    +0.000 N 
ATOM      3  N   UNL     1      -0.527  11.181  37.637  0.00  0.00    +0.000 NA
ATOM      4  C   UNL     1      -2.614  11.094  36.659  0.00  0.00    +0.000 A 
ATOM      5  C   UNL     1      -1.051   9.996  37.760  0.00  0.00    +0.000 A 
ATOM      6  C   UNL     1      -1.500  11.886  36.949  0.00  0.00    +0.000 A 
ATOM      7  C   UNL     1      -2.895   8.652  37.372  0.00  0.00    +0.000 A 
ATOM      8  C   UNL     1      -2.120   7.807  38.074  0.00  0.00    +0.000 A 
ENDROOT
BRANCH   4  10
ATOM      9  N   UNL     1      -4.889  11.714  36.745  0.00  0.00    +0.000 NA
ATOM     10  C   UNL     1      -3.863  11.398  36.030  0.00  0.00    +0.000 C 
BRANCH   9  11
ATOM     11  O   UNL     1      -6.018  11.882  35.932  0.00  0.00    +0.000 OA
BRANCH  11  12
ATOM     12  C   UNL     1      -6.198  10.665  35.203  0.00  0.00    +0.000 C 
BRANCH  12  15
ATOM     13 CL   UNL     1     -11.327  10.006  34.676  0.00  0.00    +0.000 Cl
ATOM     14 CL   UNL     1     -11.182   7.809  37.072  0.00  0.00    +0.000 Cl
ATOM     15  C   UNL     1      -7.452   9.974  35.666  0.00  0.00    +0.000 A 
ATOM     16  C   UNL     1      -8.686  10.259  35.064  0.00  0.00    +0.000 A 
ATOM     17  C   UNL     1      -7.400   9.026  36.697  0.00  0.00    +0.000 A 
ATOM     18  C   UNL     1      -9.850   9.604  35.479  0.00  0.00    +0.000 A 
ATOM     19  C   UNL     1      -8.561   8.370  37.113  0.00  0.00    +0.000 A 
ATOM     20  C   UNL     1      -9.787   8.657  36.506  0.00  0.00    +0.000 A 
ENDBRANCH  12  15
ENDBRANCH  11  12
ENDBRANCH   9  11
ENDBRANCH   4  10
BRANCH   6  21
ATOM     21  S   UNL     1      -1.322  13.597  36.607  0.00  0.00    +0.000 S 
BRANCH  21  22
ATOM     22  C   UNL     1      -0.653  13.621  34.959  0.00  0.00    +0.000 A 
ATOM     23  C   UNL     1       0.557  13.793  32.420  0.00  0.00    +0.000 A 
ATOM     24  C   UNL     1      -0.890  14.725  34.133  0.00  0.00    +0.000 A 
ATOM     25  C   UNL     1       0.188  12.603  34.505  0.00  0.00    +0.000 A 
ATOM     26  C   UNL     1      -0.292  14.810  32.869  0.00  0.00    +0.000 A 
ATOM     27  C   UNL     1       0.786  12.685  33.246  0.00  0.00    +0.000 A 
ATOM     28  C   UNL     1       1.230  13.879  31.083  0.00  0.00    +0.000 C 
ENDBRANCH  21  22
ENDBRANCH   6  21
TORSDOF 6
ENDMDL
MODEL 9
REMARK VINA RESULT:      -5.3     31.212     34.937
REMARK  Name = 9623088
REMARK  7 active torsions:
REMARK  status: ('A' for Active; 'I' for Inactive)
REMARK    1  A    between atoms: S_4  and  C_11
REMARK    2  A    between atoms: S_4  and  C_14
REMARK    3  A    between atoms: O_5  and  N_8
REMARK    4  A    between atoms: O_5  and  C_20
REMARK    5  A    between atoms: C_9  and  C_13
REMARK    6  A    between atoms: C_16  and  C_25
REMARK    7  A    between atoms: C_19  and  C_20
REMARK                            x       y       z     vdW  Elec       q    Type
REMARK                         _______ _______ _______ _____ _____    ______ ____
ROOT
ATOM      1  S   UNL     1       9.008   7.293   8.216  0.00  0.00    +0.000 S 
ATOM      2  N   UNL     1      10.109   6.320   6.112  0.00  0.00    +0.000 N 
ATOM      3  N   UNL     1       8.702   7.941   5.501  0.00  0.00    +0.000 NA
ATOM      4  C   UNL     1      10.177   6.338   4.743  0.00  0.00    +0.000 A 
ATOM      5  C   UNL     1       9.227   7.283   6.494  0.00  0.00    +0.000 A 
ATOM      6  C   UNL     1       9.288   7.355   4.391  0.00  0.00    +0.000 A 
ATOM      7  C   UNL     1      10.634   5.563   7.140  0.00  0.00    +0.000 A 
ATOM      8  C   UNL     1      10.150   5.944   8.334  0.00  0.00    +0.000 A 
ENDROOT
BRANCH   4  10
ATOM      9  N   UNL     1      10.379   4.455   3.335  0.00  0.00    +0.000 NA
ATOM     10  C   UNL     1      10.953   5.432   3.952  0.00  0.00    +0.000 C 
BRANCH   9  11
ATOM     11  O   UNL     1      11.334   3.650   2.700  0.00  0.00    +0.000 OA
BRANCH  11  12
ATOM     12  C   UNL     1      11.288   3.961   1.305  0.00  0.00    +0.000 C 
BRANCH  12  15
ATOM     13 CL   UNL     1      14.651   4.429  -2.631  0.00  0.00    +0.000 Cl
ATOM     14 CL   UNL     1      16.752   5.761  -0.533  0.00  0.00    +0.000 Cl
ATOM     15  C   UNL     1      12.651   4.390   0.833  0.00  0.00    +0.000 A 
ATOM     16  C   UNL     1      13.020   4.233  -0.511  0.00  0.00    +0.000 A 
ATOM     17  C   UNL     1      13.562   4.964   1.728  0.00  0.00    +0.000 A 
ATOM     18  C   UNL     1      14.279   4.650  -0.957  0.00  0.00    +0.000 A 
ATOM     19  C   UNL     1      14.820   5.381   1.285  0.00  0.00    +0.000 A 
ATOM     20  C   UNL     1      15.181   5.225  -0.056  0.00  0.00    +0.000 A 
ENDBRANCH  12  15
ENDBRANCH  11  12
ENDBRANCH   9  11
ENDBRANCH   4  10
BRANCH   6  21
ATOM     21  S   UNL     1       8.835   7.825   2.762  0.00  0.00    +0.000 S 
BRANCH  21  22
ATOM     22  C   UNL     1      10.401   8.017   1.939  0.00  0.00    +0.000 A 
ATOM     23  C   UNL     1      12.791   8.478   0.520  0.00  0.00    +0.000 A 
ATOM     24  C   UNL     1      10.573   7.500   0.651  0.00  0.00    +0.000 A 
ATOM     25  C   UNL     1      11.433   8.761   2.514  0.00  0.00    +0.000 A 
ATOM     26  C   UNL     1      11.762   7.724  -0.054  0.00  0.00    +0.000 A 
ATOM     27  C   UNL     1      12.620   8.988   1.813  0.00  0.00    +0.000 A 
ATOM     28  C   UNL     1      14.060   8.754  -0.230  0.00  0.00    +0.000 C 
ENDBRANCH  21  22
ENDBRANCH   6  21
TORSDOF 6
ENDMDL
MODEL 10
REMARK VINA RESULT:      -5.2     20.096     23.955
REMARK  Name = 9623088
REMARK  7 active torsions:
REMARK  status: ('A' for Active; 'I' for Inactive)
REMARK    1  A    between atoms: S_4  and  C_11
REMARK    2  A    between atoms: S_4  and  C_14
REMARK    3  A    between atoms: O_5  and  N_8
REMARK    4  A    between atoms: O_5  and  C_20
REMARK    5  A    between atoms: C_9  and  C_13
REMARK    6  A    between atoms: C_16  and  C_25
REMARK    7  A    between atoms: C_19  and  C_20
REMARK                            x       y       z     vdW  Elec       q    Type
REMARK                         _______ _______ _______ _____ _____    ______ ____
ROOT
ATOM      1  S   UNL     1       4.081  20.686  18.075  0.00  0.00    +0.000 S 
ATOM      2  N   UNL     1       5.265  18.506  18.732  0.00  0.00    +0.000 N 
ATOM      3  N   UNL     1       3.162  18.034  18.156  0.00  0.00    +0.000 NA
ATOM      4  C   UNL     1       5.150  17.154  18.925  0.00  0.00    +0.000 A 
ATOM      5  C   UNL     1       4.065  18.962  18.280  0.00  0.00    +0.000 A 
ATOM      6  C   UNL     1       3.828  16.889  18.562  0.00  0.00    +0.000 A 
ATOM      7  C   UNL     1       6.225  19.477  18.934  0.00  0.00    +0.000 A 
ATOM      8  C   UNL     1       5.761  20.703  18.637  0.00  0.00    +0.000 A 
ENDROOT
BRANCH   4  10
ATOM      9  N   UNL     1       6.229  16.063  20.718  0.00  0.00    +0.000 NA
ATOM     10  C   UNL     1       6.180  16.313  19.454  0.00  0.00    +0.000 C 
BRANCH   9  11
ATOM     11  O   UNL     1       7.363  15.298  21.021  0.00  0.00    +0.000 OA
BRANCH  11  12
ATOM     12  C   UNL     1       7.284  14.956  22.408  0.00  0.00    +0.000 C 
BRANCH  12  15
ATOM     13 CL   UNL     1       3.662  17.737  24.892  0.00  0.00    +0.000 Cl
ATOM     14 CL   UNL     1       5.997  19.854  25.700  0.00  0.00    +0.000 Cl
ATOM     15  C   UNL     1       6.942  16.179  23.216  0.00  0.00    +0.000 A 
ATOM     16  C   UNL     1       5.625  16.409  23.637  0.00  0.00    +0.000 A 
ATOM     17  C   UNL     1       7.941  17.096  23.569  0.00  0.00    +0.000 A 
ATOM     18  C   UNL     1       5.308  17.534  24.405  0.00  0.00    +0.000 A 
ATOM     19  C   UNL     1       7.627  18.220  24.337  0.00  0.00    +0.000 A 
ATOM     20  C   UNL     1       6.313  18.443  24.756  0.00  0.00    +0.000 A 
ENDBRANCH  12  15
ENDBRANCH  11  12
ENDBRANCH   9  11
ENDBRANCH   4  10
BRANCH   6  21
ATOM     21  S   UNL     1       3.006  15.343  18.674  0.00  0.00    +0.000 S 
BRANCH  21  22
ATOM     22  C   UNL     1       1.941  15.544  20.084  0.00  0.00    +0.000 A 
ATOM     23  C   UNL     1       0.295  15.660  22.368  0.00  0.00    +0.000 A 
ATOM     24  C   UNL     1       0.650  15.003  20.058  0.00  0.00    +0.000 A 
ATOM     25  C   UNL     1       2.399  16.147  21.257  0.00  0.00    +0.000 A 
ATOM     26  C   UNL     1      -0.170  15.064  21.191  0.00  0.00    +0.000 A 
ATOM     27  C   UNL     1       1.584  16.208  22.389  0.00  0.00    +0.000 A 
ATOM     28  C   UNL     1      -0.557  15.709  23.602  0.00  0.00    +0.000 C 
ENDBRANCH  21  22
ENDBRANCH   6  21
TORSDOF 6
ENDMDL
