MODEL 1
REMARK VINA RESULT:      -5.9      0.000      0.000
REMARK  Name = 9628790
REMARK  5 active torsions:
REMARK  status: ('A' for Active; 'I' for Inactive)
REMARK    1  A    between atoms: O_5  and  N_8
REMARK    2  A    between atoms: O_5  and  C_21
REMARK    3  A    between atoms: C_9  and  C_14
REMARK    4  A    between atoms: C_10  and  C_12
REMARK    5  A    between atoms: C_20  and  C_21
REMARK                            x       y       z     vdW  Elec       q    Type
REMARK                         _______ _______ _______ _____ _____    ______ ____
ROOT
ATOM      1  S   UNL     1       9.685   5.613   6.752  0.00  0.00    +0.000 S 
ATOM      2  N   UNL     1      11.501   6.453   5.140  0.00  0.00    +0.000 N 
ATOM      3  N   UNL     1      10.370   4.798   4.157  0.00  0.00    +0.000 NA
ATOM      4  C   UNL     1      12.070   6.339   3.899  0.00  0.00    +0.000 A 
ATOM      5  C   UNL     1      11.367   5.275   3.320  0.00  0.00    +0.000 A 
ATOM      6  C   UNL     1      10.506   5.524   5.224  0.00  0.00    +0.000 A 
ATOM      7  C   UNL     1      11.645   7.260   6.251  0.00  0.00    +0.000 A 
ATOM      8  C   UNL     1      10.755   6.947   7.209  0.00  0.00    +0.000 A 
ENDROOT
BRANCH   5  10
ATOM      9 CL   UNL     1      12.312   2.919  -2.095  0.00  0.00    +0.000 Cl
ATOM     10  C   UNL     1      11.604   4.687   2.008  0.00  0.00    +0.000 A 
ATOM     11  C   UNL     1      10.715   4.953   0.957  0.00  0.00    +0.000 A 
ATOM     12  C   UNL     1      12.689   3.828   1.774  0.00  0.00    +0.000 A 
ATOM     13  C   UNL     1      10.932   4.408  -0.312  0.00  0.00    +0.000 A 
ATOM     14  C   UNL     1      12.914   3.291   0.505  0.00  0.00    +0.000 A 
ATOM     15  C   UNL     1      12.036   3.587  -0.533  0.00  0.00    +0.000 A 
ENDBRANCH   5  10
BRANCH   4  17
ATOM     16  N   UNL     1      14.307   6.714   3.171  0.00  0.00    +0.000 NA
ATOM     17  C   UNL     1      13.109   7.168   3.364  0.00  0.00    +0.000 C 
BRANCH  16  18
ATOM     18  O   UNL     1      15.097   7.742   2.616  0.00  0.00    +0.000 OA
BRANCH  18  19
ATOM     19  C   UNL     1      15.199   8.811   3.561  0.00  0.00    +0.000 C 
BRANCH  19  22
ATOM     20 CL   UNL     1      15.406   9.926   6.490  0.00  0.00    +0.000 Cl
ATOM     21 CL   UNL     1      20.537   8.377   6.362  0.00  0.00    +0.000 Cl
ATOM     22  C   UNL     1      16.520   8.724   4.291  0.00  0.00    +0.000 A 
ATOM     23  C   UNL     1      16.698   9.198   5.601  0.00  0.00    +0.000 A 
ATOM     24  C   UNL     1      17.619   8.128   3.643  0.00  0.00    +0.000 A 
ATOM     25  C   UNL     1      17.940   9.098   6.238  0.00  0.00    +0.000 A 
ATOM     26  C   UNL     1      18.857   8.020   4.283  0.00  0.00    +0.000 A 
ATOM     27  C   UNL     1      19.012   8.508   5.576  0.00  0.00    +0.000 A 
ENDBRANCH  19  22
ENDBRANCH  18  19
ENDBRANCH  16  18
ENDBRANCH   4  17
TORSDOF 5
ENDMDL
MODEL 2
REMARK VINA RESULT:      -5.6     18.761     21.926
REMARK  Name = 9628790
REMARK  5 active torsions:
REMARK  status: ('A' for Active; 'I' for Inactive)
REMARK    1  A    between atoms: O_5  and  N_8
REMARK    2  A    between atoms: O_5  and  C_21
REMARK    3  A    between atoms: C_9  and  C_14
REMARK    4  A    between atoms: C_10  and  C_12
REMARK    5  A    between atoms: C_20  and  C_21
REMARK                            x       y       z     vdW  Elec       q    Type
REMARK                         _______ _______ _______ _____ _____    ______ ____
ROOT
ATOM      1  S   UNL     1      12.449  18.119  21.120  0.00  0.00    +0.000 S 
ATOM      2  N   UNL     1      11.434  16.321  22.649  0.00  0.00    +0.000 N 
ATOM      3  N   UNL     1       9.798  17.644  21.906  0.00  0.00    +0.000 NA
ATOM      4  C   UNL     1      10.293  15.795  23.195  0.00  0.00    +0.000 A 
ATOM      5  C   UNL     1       9.291  16.662  22.743  0.00  0.00    +0.000 A 
ATOM      6  C   UNL     1      11.073  17.400  21.899  0.00  0.00    +0.000 A 
ATOM      7  C   UNL     1      12.782  16.020  22.632  0.00  0.00    +0.000 A 
ATOM      8  C   UNL     1      13.472  16.882  21.865  0.00  0.00    +0.000 A 
ENDROOT
BRANCH   5  10
ATOM      9 CL   UNL     1       3.476  16.347  24.102  0.00  0.00    +0.000 Cl
ATOM     10  C   UNL     1       7.873  16.603  23.074  0.00  0.00    +0.000 A 
ATOM     11  C   UNL     1       7.089  15.550  22.579  0.00  0.00    +0.000 A 
ATOM     12  C   UNL     1       7.260  17.594  23.854  0.00  0.00    +0.000 A 
ATOM     13  C   UNL     1       5.729  15.470  22.896  0.00  0.00    +0.000 A 
ATOM     14  C   UNL     1       5.906  17.510  24.180  0.00  0.00    +0.000 A 
ATOM     15  C   UNL     1       5.147  16.446  23.702  0.00  0.00    +0.000 A 
ENDBRANCH   5  10
BRANCH   4  17
ATOM     16  N   UNL     1      10.146  13.433  23.468  0.00  0.00    +0.000 NA
ATOM     17  C   UNL     1      10.206  14.612  24.000  0.00  0.00    +0.000 C 
BRANCH  16  18
ATOM     18  O   UNL     1      10.095  12.473  24.500  0.00  0.00    +0.000 OA
BRANCH  18  19
ATOM     19  C   UNL     1      11.338  11.765  24.538  0.00  0.00    +0.000 C 
BRANCH  19  22
ATOM     20 CL   UNL     1      13.623  12.452  22.496  0.00  0.00    +0.000 Cl
ATOM     21 CL   UNL     1      11.827   8.312  19.602  0.00  0.00    +0.000 Cl
ATOM     22  C   UNL     1      11.486  10.926  23.290  0.00  0.00    +0.000 A 
ATOM     23  C   UNL     1      12.481  11.165  22.327  0.00  0.00    +0.000 A 
ATOM     24  C   UNL     1      10.607   9.846  23.085  0.00  0.00    +0.000 A 
ATOM     25  C   UNL     1      12.582  10.364  21.184  0.00  0.00    +0.000 A 
ATOM     26  C   UNL     1      10.713   9.040  21.948  0.00  0.00    +0.000 A 
ATOM     27  C   UNL     1      11.698   9.304  21.002  0.00  0.00    +0.000 A 
ENDBRANCH  19  22
ENDBRANCH  18  19
ENDBRANCH  16  18
ENDBRANCH   4  17
TORSDOF 5
ENDMDL
MODEL 3
REMARK VINA RESULT:      -5.6     29.915     33.417
REMARK  Name = 9628790
REMARK  5 active torsions:
REMARK  status: ('A' for Active; 'I' for Inactive)
REMARK    1  A    between atoms: O_5  and  N_8
REMARK    2  A    between atoms: O_5  and  C_21
REMARK    3  A    between atoms: C_9  and  C_14
REMARK    4  A    between atoms: C_10  and  C_12
REMARK    5  A    between atoms: C_20  and  C_21
REMARK                            x       y       z     vdW  Elec       q    Type
REMARK                         _______ _______ _______ _____ _____    ______ ____
ROOT
ATOM      1  S   UNL     1     -17.069   5.481  22.504  0.00  0.00    +0.000 S 
ATOM      2  N   UNL     1     -15.527   7.535  22.406  0.00  0.00    +0.000 N 
ATOM      3  N   UNL     1     -15.215   6.308  20.567  0.00  0.00    +0.000 NA
ATOM      4  C   UNL     1     -14.595   8.231  21.682  0.00  0.00    +0.000 A 
ATOM      5  C   UNL     1     -14.394   7.424  20.556  0.00  0.00    +0.000 A 
ATOM      6  C   UNL     1     -15.853   6.419  21.692  0.00  0.00    +0.000 A 
ATOM      7  C   UNL     1     -16.216   7.693  23.591  0.00  0.00    +0.000 A 
ATOM      8  C   UNL     1     -17.080   6.685  23.801  0.00  0.00    +0.000 A 
ENDROOT
BRANCH   5  10
ATOM      9 CL   UNL     1     -10.490   8.348  16.120  0.00  0.00    +0.000 Cl
ATOM     10  C   UNL     1     -13.451   7.664  19.471  0.00  0.00    +0.000 A 
ATOM     11  C   UNL     1     -12.107   7.293  19.624  0.00  0.00    +0.000 A 
ATOM     12  C   UNL     1     -13.848   8.289  18.279  0.00  0.00    +0.000 A 
ATOM     13  C   UNL     1     -11.190   7.504  18.589  0.00  0.00    +0.000 A 
ATOM     14  C   UNL     1     -12.937   8.491  17.241  0.00  0.00    +0.000 A 
ATOM     15  C   UNL     1     -11.613   8.094  17.400  0.00  0.00    +0.000 A 
ENDBRANCH   5  10
BRANCH   4  17
ATOM     16  N   UNL     1     -12.772   9.622  22.328  0.00  0.00    +0.000 NA
ATOM     17  C   UNL     1     -14.027   9.500  22.032  0.00  0.00    +0.000 C 
BRANCH  16  18
ATOM     18  O   UNL     1     -12.502  10.980  22.600  0.00  0.00    +0.000 OA
BRANCH  18  19
ATOM     19  C   UNL     1     -13.434  11.452  23.577  0.00  0.00    +0.000 C 
BRANCH  19  22
ATOM     20 CL   UNL     1     -15.559  10.650  25.746  0.00  0.00    +0.000 Cl
ATOM     21 CL   UNL     1     -11.410   9.911  29.059  0.00  0.00    +0.000 Cl
ATOM     22  C   UNL     1     -12.964  11.066  24.960  0.00  0.00    +0.000 A 
ATOM     23  C   UNL     1     -13.848  10.694  25.987  0.00  0.00    +0.000 A 
ATOM     24  C   UNL     1     -11.583  11.058  25.234  0.00  0.00    +0.000 A 
ATOM     25  C   UNL     1     -13.369  10.346  27.255  0.00  0.00    +0.000 A 
ATOM     26  C   UNL     1     -11.105  10.701  26.498  0.00  0.00    +0.000 A 
ATOM     27  C   UNL     1     -12.000  10.349  27.503  0.00  0.00    +0.000 A 
ENDBRANCH  19  22
ENDBRANCH  18  19
ENDBRANCH  16  18
ENDBRANCH   4  17
TORSDOF 5
ENDMDL
MODEL 4
REMARK VINA RESULT:      -5.6     27.799     30.911
REMARK  Name = 9628790
REMARK  5 active torsions:
REMARK  status: ('A' for Active; 'I' for Inactive)
REMARK    1  A    between atoms: O_5  and  N_8
REMARK    2  A    between atoms: O_5  and  C_21
REMARK    3  A    between atoms: C_9  and  C_14
REMARK    4  A    between atoms: C_10  and  C_12
REMARK    5  A    between atoms: C_20  and  C_21
REMARK                            x       y       z     vdW  Elec       q    Type
REMARK                         _______ _______ _______ _____ _____    ______ ____
ROOT
ATOM      1  S   UNL     1     -12.705 -10.126  20.441  0.00  0.00    +0.000 S 
ATOM      2  N   UNL     1     -11.149 -10.105  18.396  0.00  0.00    +0.000 N 
ATOM      3  N   UNL     1      -9.996 -10.805  20.174  0.00  0.00    +0.000 NA
ATOM      4  C   UNL     1      -9.897 -10.370  17.909  0.00  0.00    +0.000 A 
ATOM      5  C   UNL     1      -9.188 -10.773  19.048  0.00  0.00    +0.000 A 
ATOM      6  C   UNL     1     -11.142 -10.387  19.730  0.00  0.00    +0.000 A 
ATOM      7  C   UNL     1     -12.366  -9.689  17.892  0.00  0.00    +0.000 A 
ATOM      8  C   UNL     1     -13.309  -9.642  18.850  0.00  0.00    +0.000 A 
ENDROOT
BRANCH   5  10
ATOM      9 CL   UNL     1      -3.382 -12.164  19.379  0.00  0.00    +0.000 Cl
ATOM     10  C   UNL     1      -7.775 -11.123  19.116  0.00  0.00    +0.000 A 
ATOM     11  C   UNL     1      -6.834 -10.145  19.468  0.00  0.00    +0.000 A 
ATOM     12  C   UNL     1      -7.324 -12.414  18.804  0.00  0.00    +0.000 A 
ATOM     13  C   UNL     1      -5.475 -10.465  19.550  0.00  0.00    +0.000 A 
ATOM     14  C   UNL     1      -5.970 -12.739  18.896  0.00  0.00    +0.000 A 
ATOM     15  C   UNL     1      -5.052 -11.763  19.272  0.00  0.00    +0.000 A 
ENDBRANCH   5  10
BRANCH   4  17
ATOM     16  N   UNL     1      -9.082 -11.316  15.880  0.00  0.00    +0.000 NA
ATOM     17  C   UNL     1      -9.482 -10.276  16.541  0.00  0.00    +0.000 C 
BRANCH  16  18
ATOM     18  O   UNL     1      -8.768 -10.922  14.563  0.00  0.00    +0.000 OA
BRANCH  18  19
ATOM     19  C   UNL     1      -7.962  -9.740  14.612  0.00  0.00    +0.000 C 
BRANCH  19  22
ATOM     20 CL   UNL     1      -5.231 -10.614  15.894  0.00  0.00    +0.000 Cl
ATOM     21 CL   UNL     1      -3.213 -10.400  10.931  0.00  0.00    +0.000 Cl
ATOM     22  C   UNL     1      -6.752  -9.910  13.722  0.00  0.00    +0.000 A 
ATOM     23  C   UNL     1      -5.495 -10.299  14.214  0.00  0.00    +0.000 A 
ATOM     24  C   UNL     1      -6.886  -9.690  12.338  0.00  0.00    +0.000 A 
ATOM     25  C   UNL     1      -4.400 -10.442  13.355  0.00  0.00    +0.000 A 
ATOM     26  C   UNL     1      -5.795  -9.842  11.478  0.00  0.00    +0.000 A 
ATOM     27  C   UNL     1      -4.556 -10.215  11.991  0.00  0.00    +0.000 A 
ENDBRANCH  19  22
ENDBRANCH  18  19
ENDBRANCH  16  18
ENDBRANCH   4  17
TORSDOF 5
ENDMDL
MODEL 5
REMARK VINA RESULT:      -5.5     31.057     34.397
REMARK  Name = 9628790
REMARK  5 active torsions:
REMARK  status: ('A' for Active; 'I' for Inactive)
REMARK    1  A    between atoms: O_5  and  N_8
REMARK    2  A    between atoms: O_5  and  C_21
REMARK    3  A    between atoms: C_9  and  C_14
REMARK    4  A    between atoms: C_10  and  C_12
REMARK    5  A    between atoms: C_20  and  C_21
REMARK                            x       y       z     vdW  Elec       q    Type
REMARK                         _______ _______ _______ _____ _____    ______ ____
ROOT
ATOM      1  S   UNL     1     -19.339   3.080  25.218  0.00  0.00    +0.000 S 
ATOM      2  N   UNL     1     -17.346   4.131  23.981  0.00  0.00    +0.000 N 
ATOM      3  N   UNL     1     -19.140   4.203  22.654  0.00  0.00    +0.000 NA
ATOM      4  C   UNL     1     -16.907   4.756  22.844  0.00  0.00    +0.000 A 
ATOM      5  C   UNL     1     -18.039   4.755  22.019  0.00  0.00    +0.000 A 
ATOM      6  C   UNL     1     -18.667   3.838  23.807  0.00  0.00    +0.000 A 
ATOM      7  C   UNL     1     -16.827   3.783  25.212  0.00  0.00    +0.000 A 
ATOM      8  C   UNL     1     -17.754   3.208  25.997  0.00  0.00    +0.000 A 
ENDROOT
BRANCH   5  10
ATOM      9 CL   UNL     1     -18.364   6.861  16.432  0.00  0.00    +0.000 Cl
ATOM     10  C   UNL     1     -18.120   5.252  20.652  0.00  0.00    +0.000 A 
ATOM     11  C   UNL     1     -18.717   6.496  20.400  0.00  0.00    +0.000 A 
ATOM     12  C   UNL     1     -17.642   4.500  19.568  0.00  0.00    +0.000 A 
ATOM     13  C   UNL     1     -18.794   6.995  19.096  0.00  0.00    +0.000 A 
ATOM     14  C   UNL     1     -17.707   5.001  18.267  0.00  0.00    +0.000 A 
ATOM     15  C   UNL     1     -18.280   6.248  18.038  0.00  0.00    +0.000 A 
ENDBRANCH   5  10
BRANCH   4  17
ATOM     16  N   UNL     1     -14.753   4.720  21.827  0.00  0.00    +0.000 NA
ATOM     17  C   UNL     1     -15.597   5.294  22.625  0.00  0.00    +0.000 C 
BRANCH  16  18
ATOM     18  O   UNL     1     -13.570   5.487  21.794  0.00  0.00    +0.000 OA
BRANCH  18  19
ATOM     19  C   UNL     1     -13.903   6.844  21.487  0.00  0.00    +0.000 C 
BRANCH  19  22
ATOM     20 CL   UNL     1     -15.210   7.746  18.778  0.00  0.00    +0.000 Cl
ATOM     21 CL   UNL     1     -10.231   8.864  17.132  0.00  0.00    +0.000 Cl
ATOM     22  C   UNL     1     -13.015   7.350  20.374  0.00  0.00    +0.000 A 
ATOM     23  C   UNL     1     -13.518   7.773  19.132  0.00  0.00    +0.000 A 
ATOM     24  C   UNL     1     -11.625   7.421  20.589  0.00  0.00    +0.000 A 
ATOM     25  C   UNL     1     -12.659   8.233  18.128  0.00  0.00    +0.000 A 
ATOM     26  C   UNL     1     -10.767   7.889  19.589  0.00  0.00    +0.000 A 
ATOM     27  C   UNL     1     -11.288   8.290  18.363  0.00  0.00    +0.000 A 
ENDBRANCH  19  22
ENDBRANCH  18  19
ENDBRANCH  16  18
ENDBRANCH   4  17
TORSDOF 5
ENDMDL
MODEL 6
REMARK VINA RESULT:      -5.3     34.433     37.196
REMARK  Name = 9628790
REMARK  5 active torsions:
REMARK  status: ('A' for Active; 'I' for Inactive)
REMARK    1  A    between atoms: O_5  and  N_8
REMARK    2  A    between atoms: O_5  and  C_21
REMARK    3  A    between atoms: C_9  and  C_14
REMARK    4  A    between atoms: C_10  and  C_12
REMARK    5  A    between atoms: C_20  and  C_21
REMARK                            x       y       z     vdW  Elec       q    Type
REMARK                         _______ _______ _______ _____ _____    ______ ____
ROOT
ATOM      1  S   UNL     1      -6.390  12.642  33.781  0.00  0.00    +0.000 S 
ATOM      2  N   UNL     1      -8.341  12.468  32.118  0.00  0.00    +0.000 N 
ATOM      3  N   UNL     1      -8.652  10.981  33.754  0.00  0.00    +0.000 NA
ATOM      4  C   UNL     1      -9.531  11.862  31.810  0.00  0.00    +0.000 A 
ATOM      5  C   UNL     1      -9.682  10.914  32.830  0.00  0.00    +0.000 A 
ATOM      6  C   UNL     1      -7.881  11.909  33.274  0.00  0.00    +0.000 A 
ATOM      7  C   UNL     1      -7.556  13.480  31.604  0.00  0.00    +0.000 A 
ATOM      8  C   UNL     1      -6.472  13.703  32.367  0.00  0.00    +0.000 A 
ENDROOT
BRANCH   5  10
ATOM      9 CL   UNL     1     -14.143   6.975  33.414  0.00  0.00    +0.000 Cl
ATOM     10  C   UNL     1     -10.760   9.943  32.963  0.00  0.00    +0.000 A 
ATOM     11  C   UNL     1     -11.510   9.896  34.147  0.00  0.00    +0.000 A 
ATOM     12  C   UNL     1     -11.051   9.025  31.942  0.00  0.00    +0.000 A 
ATOM     13  C   UNL     1     -12.556   8.979  34.288  0.00  0.00    +0.000 A 
ATOM     14  C   UNL     1     -12.101   8.116  32.077  0.00  0.00    +0.000 A 
ATOM     15  C   UNL     1     -12.852   8.100  33.248  0.00  0.00    +0.000 A 
ENDBRANCH   5  10
BRANCH   4  17
ATOM     16  N   UNL     1     -10.841  13.394  30.541  0.00  0.00    +0.000 NA
ATOM     17  C   UNL     1     -10.390  12.192  30.712  0.00  0.00    +0.000 C 
BRANCH  16  18
ATOM     18  O   UNL     1     -11.631  13.418  29.372  0.00  0.00    +0.000 OA
BRANCH  18  19
ATOM     19  C   UNL     1     -11.973  12.076  29.014  0.00  0.00    +0.000 C 
BRANCH  19  22
ATOM     20 CL   UNL     1     -10.522   9.701  27.558  0.00  0.00    +0.000 Cl
ATOM     21 CL   UNL     1     -12.502  11.722  23.004  0.00  0.00    +0.000 Cl
ATOM     22  C   UNL     1     -12.079  11.959  27.511  0.00  0.00    +0.000 A 
ATOM     23  C   UNL     1     -11.462  10.928  26.783  0.00  0.00    +0.000 A 
ATOM     24  C   UNL     1     -12.842  12.908  26.805  0.00  0.00    +0.000 A 
ATOM     25  C   UNL     1     -11.585  10.859  25.391  0.00  0.00    +0.000 A 
ATOM     26  C   UNL     1     -12.973  12.834  25.415  0.00  0.00    +0.000 A 
ATOM     27  C   UNL     1     -12.342  11.811  24.714  0.00  0.00    +0.000 A 
ENDBRANCH  19  22
ENDBRANCH  18  19
ENDBRANCH  16  18
ENDBRANCH   4  17
TORSDOF 5
ENDMDL
MODEL 7
REMARK VINA RESULT:      -5.3     38.569     40.531
REMARK  Name = 9628790
REMARK  5 active torsions:
REMARK  status: ('A' for Active; 'I' for Inactive)
REMARK    1  A    between atoms: O_5  and  N_8
REMARK    2  A    between atoms: O_5  and  C_21
REMARK    3  A    between atoms: C_9  and  C_14
REMARK    4  A    between atoms: C_10  and  C_12
REMARK    5  A    between atoms: C_20  and  C_21
REMARK                            x       y       z     vdW  Elec       q    Type
REMARK                         _______ _______ _______ _____ _____    ______ ____
ROOT
ATOM      1  S   UNL     1     -20.007   6.365  32.637  0.00  0.00    +0.000 S 
ATOM      2  N   UNL     1     -17.447   6.292  32.855  0.00  0.00    +0.000 N 
ATOM      3  N   UNL     1     -18.136   4.445  31.807  0.00  0.00    +0.000 NA
ATOM      4  C   UNL     1     -16.295   5.606  32.574  0.00  0.00    +0.000 A 
ATOM      5  C   UNL     1     -16.758   4.441  31.952  0.00  0.00    +0.000 A 
ATOM      6  C   UNL     1     -18.491   5.559  32.372  0.00  0.00    +0.000 A 
ATOM      7  C   UNL     1     -17.795   7.497  33.431  0.00  0.00    +0.000 A 
ATOM      8  C   UNL     1     -19.125   7.695  33.402  0.00  0.00    +0.000 A 
ENDROOT
BRANCH   5  10
ATOM      9 CL   UNL     1     -13.420  -0.124  30.005  0.00  0.00    +0.000 Cl
ATOM     10  C   UNL     1     -15.949   3.319  31.492  0.00  0.00    +0.000 A 
ATOM     11  C   UNL     1     -15.840   3.060  30.118  0.00  0.00    +0.000 A 
ATOM     12  C   UNL     1     -15.297   2.466  32.394  0.00  0.00    +0.000 A 
ATOM     13  C   UNL     1     -15.059   1.996  29.656  0.00  0.00    +0.000 A 
ATOM     14  C   UNL     1     -14.508   1.410  31.936  0.00  0.00    +0.000 A 
ATOM     15  C   UNL     1     -14.390   1.182  30.568  0.00  0.00    +0.000 A 
ENDBRANCH   5  10
BRANCH   4  17
ATOM     16  N   UNL     1     -14.426   7.033  32.195  0.00  0.00    +0.000 NA
ATOM     17  C   UNL     1     -14.959   6.048  32.846  0.00  0.00    +0.000 C 
BRANCH  16  18
ATOM     18  O   UNL     1     -13.125   7.254  32.696  0.00  0.00    +0.000 OA
BRANCH  18  19
ATOM     19  C   UNL     1     -13.206   8.117  33.834  0.00  0.00    +0.000 C 
BRANCH  19  22
ATOM     20 CL   UNL     1     -12.121   8.594  36.743  0.00  0.00    +0.000 Cl
ATOM     21 CL   UNL     1      -7.929  11.005  34.428  0.00  0.00    +0.000 Cl
ATOM     22  C   UNL     1     -11.892   8.841  34.020  0.00  0.00    +0.000 A 
ATOM     23  C   UNL     1     -11.336   9.094  35.286  0.00  0.00    +0.000 A 
ATOM     24  C   UNL     1     -11.179   9.265  32.883  0.00  0.00    +0.000 A 
ATOM     25  C   UNL     1     -10.117   9.769  35.413  0.00  0.00    +0.000 A 
ATOM     26  C   UNL     1      -9.957   9.932  33.009  0.00  0.00    +0.000 A 
ATOM     27  C   UNL     1      -9.433  10.183  34.274  0.00  0.00    +0.000 A 
ENDBRANCH  19  22
ENDBRANCH  18  19
ENDBRANCH  16  18
ENDBRANCH   4  17
TORSDOF 5
ENDMDL
MODEL 8
REMARK VINA RESULT:      -5.3     17.531     21.152
REMARK  Name = 9628790
REMARK  5 active torsions:
REMARK  status: ('A' for Active; 'I' for Inactive)
REMARK    1  A    between atoms: O_5  and  N_8
REMARK    2  A    between atoms: O_5  and  C_21
REMARK    3  A    between atoms: C_9  and  C_14
REMARK    4  A    between atoms: C_10  and  C_12
REMARK    5  A    between atoms: C_20  and  C_21
REMARK                            x       y       z     vdW  Elec       q    Type
REMARK                         _______ _______ _______ _____ _____    ______ ____
ROOT
ATOM      1  S   UNL     1      13.169  18.411  22.231  0.00  0.00    +0.000 S 
ATOM      2  N   UNL     1      12.041  16.153  22.712  0.00  0.00    +0.000 N 
ATOM      3  N   UNL     1      10.464  17.719  22.503  0.00  0.00    +0.000 NA
ATOM      4  C   UNL     1      10.862  15.475  22.871  0.00  0.00    +0.000 A 
ATOM      5  C   UNL     1       9.896  16.483  22.771  0.00  0.00    +0.000 A 
ATOM      6  C   UNL     1      11.737  17.464  22.493  0.00  0.00    +0.000 A 
ATOM      7  C   UNL     1      13.388  15.850  22.673  0.00  0.00    +0.000 A 
ATOM      8  C   UNL     1      14.135  16.940  22.429  0.00  0.00    +0.000 A 
ENDROOT
BRANCH   5  10
ATOM      9 CL   UNL     1       3.976  15.912  23.400  0.00  0.00    +0.000 Cl
ATOM     10  C   UNL     1       8.455  16.327  22.923  0.00  0.00    +0.000 A 
ATOM     11  C   UNL     1       7.739  17.232  23.721  0.00  0.00    +0.000 A 
ATOM     12  C   UNL     1       7.763  15.268  22.315  0.00  0.00    +0.000 A 
ATOM     13  C   UNL     1       6.354  17.105  23.869  0.00  0.00    +0.000 A 
ATOM     14  C   UNL     1       6.380  15.146  22.453  0.00  0.00    +0.000 A 
ATOM     15  C   UNL     1       5.681  16.067  23.227  0.00  0.00    +0.000 A 
ENDBRANCH   5  10
BRANCH   4  17
ATOM     16  N   UNL     1      10.977  13.222  22.104  0.00  0.00    +0.000 NA
ATOM     17  C   UNL     1      10.715  14.061  23.056  0.00  0.00    +0.000 C 
BRANCH  16  18
ATOM     18  O   UNL     1      10.768  11.913  22.585  0.00  0.00    +0.000 OA
BRANCH  18  19
ATOM     19  C   UNL     1      12.010  11.202  22.552  0.00  0.00    +0.000 C 
BRANCH  19  22
ATOM     20 CL   UNL     1      10.453   8.474  22.591  0.00  0.00    +0.000 Cl
ATOM     21 CL   UNL     1      12.266   7.749  17.598  0.00  0.00    +0.000 Cl
ATOM     22  C   UNL     1      12.056  10.311  21.332  0.00  0.00    +0.000 A 
ATOM     23  C   UNL     1      11.388   9.076  21.267  0.00  0.00    +0.000 A 
ATOM     24  C   UNL     1      12.781  10.736  20.203  0.00  0.00    +0.000 A 
ATOM     25  C   UNL     1      11.459   8.281  20.117  0.00  0.00    +0.000 A 
ATOM     26  C   UNL     1      12.845   9.946  19.051  0.00  0.00    +0.000 A 
ATOM     27  C   UNL     1      12.185   8.721  19.015  0.00  0.00    +0.000 A 
ENDBRANCH  19  22
ENDBRANCH  18  19
ENDBRANCH  16  18
ENDBRANCH   4  17
TORSDOF 5
ENDMDL
MODEL 9
REMARK VINA RESULT:      -5.2     39.033     40.637
REMARK  Name = 9628790
REMARK  5 active torsions:
REMARK  status: ('A' for Active; 'I' for Inactive)
REMARK    1  A    between atoms: O_5  and  N_8
REMARK    2  A    between atoms: O_5  and  C_21
REMARK    3  A    between atoms: C_9  and  C_14
REMARK    4  A    between atoms: C_10  and  C_12
REMARK    5  A    between atoms: C_20  and  C_21
REMARK                            x       y       z     vdW  Elec       q    Type
REMARK                         _______ _______ _______ _____ _____    ______ ____
ROOT
ATOM      1  S   UNL     1     -19.286   7.500  32.504  0.00  0.00    +0.000 S 
ATOM      2  N   UNL     1     -16.741   7.176  32.647  0.00  0.00    +0.000 N 
ATOM      3  N   UNL     1     -17.651   5.357  31.726  0.00  0.00    +0.000 NA
ATOM      4  C   UNL     1     -15.675   6.361  32.370  0.00  0.00    +0.000 A 
ATOM      5  C   UNL     1     -16.276   5.219  31.828  0.00  0.00    +0.000 A 
ATOM      6  C   UNL     1     -17.871   6.529  32.239  0.00  0.00    +0.000 A 
ATOM      7  C   UNL     1     -16.944   8.439  33.166  0.00  0.00    +0.000 A 
ATOM      8  C   UNL     1     -18.247   8.771  33.166  0.00  0.00    +0.000 A 
ENDROOT
BRANCH   5  10
ATOM      9 CL   UNL     1     -13.543   0.171  30.151  0.00  0.00    +0.000 Cl
ATOM     10  C   UNL     1     -15.602   3.997  31.407  0.00  0.00    +0.000 A 
ATOM     11  C   UNL     1     -15.242   3.038  32.364  0.00  0.00    +0.000 A 
ATOM     12  C   UNL     1     -15.272   3.768  30.063  0.00  0.00    +0.000 A 
ATOM     13  C   UNL     1     -14.605   1.854  31.978  0.00  0.00    +0.000 A 
ATOM     14  C   UNL     1     -14.646   2.583  29.673  0.00  0.00    +0.000 A 
ATOM     15  C   UNL     1     -14.319   1.629  30.633  0.00  0.00    +0.000 A 
ENDBRANCH   5  10
BRANCH   4  17
ATOM     16  N   UNL     1     -13.772   7.771  32.119  0.00  0.00    +0.000 NA
ATOM     17  C   UNL     1     -14.292   6.677  32.576  0.00  0.00    +0.000 C 
BRANCH  16  18
ATOM     18  O   UNL     1     -12.414   7.818  32.496  0.00  0.00    +0.000 OA
BRANCH  18  19
ATOM     19  C   UNL     1     -12.120   9.118  33.016  0.00  0.00    +0.000 C 
BRANCH  19  22
ATOM     20 CL   UNL     1      -9.284  10.199  33.825  0.00  0.00    +0.000 Cl
ATOM     21 CL   UNL     1     -10.469   8.617  38.808  0.00  0.00    +0.000 Cl
ATOM     22  C   UNL     1     -11.672   9.005  34.455  0.00  0.00    +0.000 A 
ATOM     23  C   UNL     1     -10.421   9.463  34.900  0.00  0.00    +0.000 A 
ATOM     24  C   UNL     1     -12.547   8.434  35.399  0.00  0.00    +0.000 A 
ATOM     25  C   UNL     1     -10.046   9.336  36.242  0.00  0.00    +0.000 A 
ATOM     26  C   UNL     1     -12.176   8.315  36.741  0.00  0.00    +0.000 A 
ATOM     27  C   UNL     1     -10.926   8.765  37.156  0.00  0.00    +0.000 A 
ENDBRANCH  19  22
ENDBRANCH  18  19
ENDBRANCH  16  18
ENDBRANCH   4  17
TORSDOF 5
ENDMDL
MODEL 10
REMARK VINA RESULT:      -5.2     26.857     28.723
REMARK  Name = 9628790
REMARK  5 active torsions:
REMARK  status: ('A' for Active; 'I' for Inactive)
REMARK    1  A    between atoms: O_5  and  N_8
REMARK    2  A    between atoms: O_5  and  C_21
REMARK    3  A    between atoms: C_9  and  C_14
REMARK    4  A    between atoms: C_10  and  C_12
REMARK    5  A    between atoms: C_20  and  C_21
REMARK                            x       y       z     vdW  Elec       q    Type
REMARK                         _______ _______ _______ _____ _____    ______ ____
ROOT
ATOM      1  S   UNL     1     -13.212   9.375  12.198  0.00  0.00    +0.000 S 
ATOM      2  N   UNL     1     -12.139  10.432  14.280  0.00  0.00    +0.000 N 
ATOM      3  N   UNL     1     -12.978   8.438  14.832  0.00  0.00    +0.000 NA
ATOM      4  C   UNL     1     -11.829  10.284  15.606  0.00  0.00    +0.000 A 
ATOM      5  C   UNL     1     -12.395   9.046  15.933  0.00  0.00    +0.000 A 
ATOM      6  C   UNL     1     -12.808   9.310  13.886  0.00  0.00    +0.000 A 
ATOM      7  C   UNL     1     -11.917  11.361  13.284  0.00  0.00    +0.000 A 
ATOM      8  C   UNL     1     -12.426  10.958  12.107  0.00  0.00    +0.000 A 
ENDROOT
BRANCH   5  10
ATOM      9 CL   UNL     1     -12.397   6.478  21.334  0.00  0.00    +0.000 Cl
ATOM     10  C   UNL     1     -12.412   8.415  17.247  0.00  0.00    +0.000 A 
ATOM     11  C   UNL     1     -11.252   7.796  17.734  0.00  0.00    +0.000 A 
ATOM     12  C   UNL     1     -13.576   8.383  18.030  0.00  0.00    +0.000 A 
ATOM     13  C   UNL     1     -11.245   7.197  18.998  0.00  0.00    +0.000 A 
ATOM     14  C   UNL     1     -13.569   7.794  19.295  0.00  0.00    +0.000 A 
ATOM     15  C   UNL     1     -12.402   7.207  19.775  0.00  0.00    +0.000 A 
ENDBRANCH   5  10
BRANCH   4  17
ATOM     16  N   UNL     1      -9.797  11.039  16.594  0.00  0.00    +0.000 NA
ATOM     17  C   UNL     1     -11.069  11.199  16.405  0.00  0.00    +0.000 C 
BRANCH  16  18
ATOM     18  O   UNL     1      -9.322  12.100  17.393  0.00  0.00    +0.000 OA
BRANCH  18  19
ATOM     19  C   UNL     1      -8.559  12.991  16.574  0.00  0.00    +0.000 C 
BRANCH  19  22
ATOM     20 CL   UNL     1      -5.886  14.465  17.314  0.00  0.00    +0.000 Cl
ATOM     21 CL   UNL     1      -8.963  18.586  18.826  0.00  0.00    +0.000 Cl
ATOM     22  C   UNL     1      -8.622  14.390  17.145  0.00  0.00    +0.000 A 
ATOM     23  C   UNL     1      -7.475  15.119  17.501  0.00  0.00    +0.000 A 
ATOM     24  C   UNL     1      -9.879  15.002  17.312  0.00  0.00    +0.000 A 
ATOM     25  C   UNL     1      -7.580  16.411  18.027  0.00  0.00    +0.000 A 
ATOM     26  C   UNL     1      -9.983  16.297  17.829  0.00  0.00    +0.000 A 
ATOM     27  C   UNL     1      -8.834  16.994  18.187  0.00  0.00    +0.000 A 
ENDBRANCH  19  22
ENDBRANCH  18  19
ENDBRANCH  16  18
ENDBRANCH   4  17
TORSDOF 5
ENDMDL
