MODEL 1
REMARK VINA RESULT:      -5.6      0.000      0.000
REMARK  Name = 9628525
REMARK  5 active torsions:
REMARK  status: ('A' for Active; 'I' for Inactive)
REMARK    1  A    between atoms: O_5  and  N_8
REMARK    2  A    between atoms: O_5  and  C_21
REMARK    3  A    between atoms: C_9  and  C_14
REMARK    4  A    between atoms: C_10  and  C_12
REMARK    5  A    between atoms: C_20  and  C_21
REMARK                            x       y       z     vdW  Elec       q    Type
REMARK                         _______ _______ _______ _____ _____    ______ ____
ROOT
ATOM      1  S   UNL     1      -6.910  10.841 -28.340  0.00  0.00    +0.000 S 
ATOM      2  N   UNL     1      -8.171   9.917 -30.376  0.00  0.00    +0.000 N 
ATOM      3  N   UNL     1      -8.159  12.143 -30.492  0.00  0.00    +0.000 NA
ATOM      4  C   UNL     1      -8.879  10.204 -31.515  0.00  0.00    +0.000 A 
ATOM      5  C   UNL     1      -8.839  11.603 -31.582  0.00  0.00    +0.000 A 
ATOM      6  C   UNL     1      -7.786  11.096 -29.817  0.00  0.00    +0.000 A 
ATOM      7  C   UNL     1      -7.804   8.787 -29.673  0.00  0.00    +0.000 A 
ATOM      8  C   UNL     1      -7.122   9.096 -28.557  0.00  0.00    +0.000 A 
ENDROOT
BRANCH   5  10
ATOM      9 CL   UNL     1     -11.001  15.190 -35.862  0.00  0.00    +0.000 Cl
ATOM     10  C   UNL     1      -9.399  12.466 -32.617  0.00  0.00    +0.000 A 
ATOM     11  C   UNL     1     -10.518  13.279 -32.388  0.00  0.00    +0.000 A 
ATOM     12  C   UNL     1      -8.826  12.466 -33.895  0.00  0.00    +0.000 A 
ATOM     13  C   UNL     1     -11.006  14.128 -33.385  0.00  0.00    +0.000 A 
ATOM     14  C   UNL     1      -9.322  13.301 -34.905  0.00  0.00    +0.000 A 
ATOM     15  C   UNL     1     -10.405  14.137 -34.639  0.00  0.00    +0.000 A 
ENDBRANCH   5  10
BRANCH   4  17
ATOM     16  N   UNL     1      -8.795   8.332 -32.970  0.00  0.00    +0.000 NA
ATOM     17  C   UNL     1      -9.503   9.206 -32.335  0.00  0.00    +0.000 C 
BRANCH  16  18
ATOM     18  O   UNL     1      -9.645   7.464 -33.671  0.00  0.00    +0.000 OA
BRANCH  18  19
ATOM     19  C   UNL     1      -9.528   7.751 -35.069  0.00  0.00    +0.000 C 
BRANCH  19  22
ATOM     20 CL   UNL     1     -12.504   7.445 -35.986  0.00  0.00    +0.000 Cl
ATOM     21 CL   UNL     1      -7.306   5.671 -35.659  0.00  0.00    +0.000 Cl
ATOM     22  C   UNL     1      -9.916   6.517 -35.841  0.00  0.00    +0.000 A 
ATOM     23  C   UNL     1     -11.229   6.321 -36.308  0.00  0.00    +0.000 A 
ATOM     24  C   UNL     1      -8.954   5.543 -36.171  0.00  0.00    +0.000 A 
ATOM     25  C   UNL     1     -11.564   5.193 -37.069  0.00  0.00    +0.000 A 
ATOM     26  C   UNL     1      -9.292   4.421 -36.937  0.00  0.00    +0.000 A 
ATOM     27  C   UNL     1     -10.596   4.245 -37.388  0.00  0.00    +0.000 A 
ENDBRANCH  19  22
ENDBRANCH  18  19
ENDBRANCH  16  18
ENDBRANCH   4  17
TORSDOF 5
ENDMDL
MODEL 2
REMARK VINA RESULT:      -5.3     15.023     17.194
REMARK  Name = 9628525
REMARK  5 active torsions:
REMARK  status: ('A' for Active; 'I' for Inactive)
REMARK    1  A    between atoms: O_5  and  N_8
REMARK    2  A    between atoms: O_5  and  C_21
REMARK    3  A    between atoms: C_9  and  C_14
REMARK    4  A    between atoms: C_10  and  C_12
REMARK    5  A    between atoms: C_20  and  C_21
REMARK                            x       y       z     vdW  Elec       q    Type
REMARK                         _______ _______ _______ _____ _____    ______ ____
ROOT
ATOM      1  S   UNL     1     -15.819  15.674 -51.713  0.00  0.00    +0.000 S 
ATOM      2  N   UNL     1     -16.413  15.566 -49.218  0.00  0.00    +0.000 N 
ATOM      3  N   UNL     1     -14.251  16.070 -49.417  0.00  0.00    +0.000 NA
ATOM      4  C   UNL     1     -15.963  15.658 -47.925  0.00  0.00    +0.000 A 
ATOM      5  C   UNL     1     -14.612  15.999 -48.073  0.00  0.00    +0.000 A 
ATOM      6  C   UNL     1     -15.359  15.806 -50.044  0.00  0.00    +0.000 A 
ATOM      7  C   UNL     1     -17.601  15.266 -49.854  0.00  0.00    +0.000 A 
ATOM      8  C   UNL     1     -17.466  15.280 -51.192  0.00  0.00    +0.000 A 
ENDROOT
BRANCH   5  10
ATOM      9 CL   UNL     1     -10.722  17.103 -43.657  0.00  0.00    +0.000 Cl
ATOM     10  C   UNL     1     -13.637  16.268 -47.021  0.00  0.00    +0.000 A 
ATOM     11  C   UNL     1     -12.634  17.239 -47.160  0.00  0.00    +0.000 A 
ATOM     12  C   UNL     1     -13.676  15.515 -45.841  0.00  0.00    +0.000 A 
ATOM     13  C   UNL     1     -11.742  17.505 -46.118  0.00  0.00    +0.000 A 
ATOM     14  C   UNL     1     -12.771  15.764 -44.800  0.00  0.00    +0.000 A 
ATOM     15  C   UNL     1     -11.815  16.767 -44.941  0.00  0.00    +0.000 A 
ENDBRANCH   5  10
BRANCH   4  17
ATOM     16  N   UNL     1     -17.928  15.978 -46.637  0.00  0.00    +0.000 NA
ATOM     17  C   UNL     1     -16.783  15.399 -46.778  0.00  0.00    +0.000 C 
BRANCH  16  18
ATOM     18  O   UNL     1     -18.533  15.533 -45.451  0.00  0.00    +0.000 OA
BRANCH  18  19
ATOM     19  C   UNL     1     -17.505  15.281 -44.488  0.00  0.00    +0.000 C 
BRANCH  19  22
ATOM     20 CL   UNL     1     -15.669  17.762 -43.970  0.00  0.00    +0.000 Cl
ATOM     21 CL   UNL     1     -19.866  14.455 -42.656  0.00  0.00    +0.000 Cl
ATOM     22  C   UNL     1     -17.773  16.130 -43.273  0.00  0.00    +0.000 A 
ATOM     23  C   UNL     1     -17.006  17.274 -42.987  0.00  0.00    +0.000 A 
ATOM     24  C   UNL     1     -18.846  15.832 -42.411  0.00  0.00    +0.000 A 
ATOM     25  C   UNL     1     -17.299  18.083 -41.880  0.00  0.00    +0.000 A 
ATOM     26  C   UNL     1     -19.140  16.646 -41.310  0.00  0.00    +0.000 A 
ATOM     27  C   UNL     1     -18.368  17.772 -41.045  0.00  0.00    +0.000 A 
ENDBRANCH  19  22
ENDBRANCH  18  19
ENDBRANCH  16  18
ENDBRANCH   4  17
TORSDOF 5
ENDMDL
MODEL 3
REMARK VINA RESULT:      -5.3     11.503     13.774
REMARK  Name = 9628525
REMARK  5 active torsions:
REMARK  status: ('A' for Active; 'I' for Inactive)
REMARK    1  A    between atoms: O_5  and  N_8
REMARK    2  A    between atoms: O_5  and  C_21
REMARK    3  A    between atoms: C_9  and  C_14
REMARK    4  A    between atoms: C_10  and  C_12
REMARK    5  A    between atoms: C_20  and  C_21
REMARK                            x       y       z     vdW  Elec       q    Type
REMARK                         _______ _______ _______ _____ _____    ______ ____
ROOT
ATOM      1  S   UNL     1       2.343  12.418 -40.148  0.00  0.00    +0.000 S 
ATOM      2  N   UNL     1      -0.004  11.793 -40.976  0.00  0.00    +0.000 N 
ATOM      3  N   UNL     1       1.235   9.943 -40.879  0.00  0.00    +0.000 NA
ATOM      4  C   UNL     1      -0.838  10.799 -41.421  0.00  0.00    +0.000 A 
ATOM      5  C   UNL     1      -0.049   9.644 -41.329  0.00  0.00    +0.000 A 
ATOM      6  C   UNL     1       1.199  11.229 -40.686  0.00  0.00    +0.000 A 
ATOM      7  C   UNL     1      -0.070  13.160 -40.798  0.00  0.00    +0.000 A 
ATOM      8  C   UNL     1       1.097  13.660 -40.357  0.00  0.00    +0.000 A 
ENDROOT
BRANCH   5  10
ATOM      9 CL   UNL     1      -1.639   4.044 -42.728  0.00  0.00    +0.000 Cl
ATOM     10  C   UNL     1      -0.434   8.271 -41.635  0.00  0.00    +0.000 A 
ATOM     11  C   UNL     1      -1.389   7.575 -40.879  0.00  0.00    +0.000 A 
ATOM     12  C   UNL     1       0.188   7.604 -42.698  0.00  0.00    +0.000 A 
ATOM     13  C   UNL     1      -1.770   6.275 -41.223  0.00  0.00    +0.000 A 
ATOM     14  C   UNL     1      -0.175   6.294 -43.035  0.00  0.00    +0.000 A 
ATOM     15  C   UNL     1      -1.162   5.640 -42.301  0.00  0.00    +0.000 A 
ENDBRANCH   5  10
BRANCH   4  17
ATOM     16  N   UNL     1      -2.422  11.190 -43.142  0.00  0.00    +0.000 NA
ATOM     17  C   UNL     1      -2.175  11.031 -41.886  0.00  0.00    +0.000 C 
BRANCH  16  18
ATOM     18  O   UNL     1      -3.801  11.374 -43.328  0.00  0.00    +0.000 OA
BRANCH  18  19
ATOM     19  C   UNL     1      -3.991  12.383 -44.325  0.00  0.00    +0.000 C 
BRANCH  19  22
ATOM     20 CL   UNL     1      -4.911  13.825 -41.705  0.00  0.00    +0.000 Cl
ATOM     21 CL   UNL     1      -1.635  13.342 -46.099  0.00  0.00    +0.000 Cl
ATOM     22  C   UNL     1      -3.253  13.624 -43.893  0.00  0.00    +0.000 A 
ATOM     23  C   UNL     1      -3.594  14.312 -42.714  0.00  0.00    +0.000 A 
ATOM     24  C   UNL     1      -2.155  14.102 -44.633  0.00  0.00    +0.000 A 
ATOM     25  C   UNL     1      -2.866  15.436 -42.298  0.00  0.00    +0.000 A 
ATOM     26  C   UNL     1      -1.427  15.221 -44.211  0.00  0.00    +0.000 A 
ATOM     27  C   UNL     1      -1.781  15.888 -43.043  0.00  0.00    +0.000 A 
ENDBRANCH  19  22
ENDBRANCH  18  19
ENDBRANCH  16  18
ENDBRANCH   4  17
TORSDOF 5
ENDMDL
MODEL 4
REMARK VINA RESULT:      -5.2     21.810     25.238
REMARK  Name = 9628525
REMARK  5 active torsions:
REMARK  status: ('A' for Active; 'I' for Inactive)
REMARK    1  A    between atoms: O_5  and  N_8
REMARK    2  A    between atoms: O_5  and  C_21
REMARK    3  A    between atoms: C_9  and  C_14
REMARK    4  A    between atoms: C_10  and  C_12
REMARK    5  A    between atoms: C_20  and  C_21
REMARK                            x       y       z     vdW  Elec       q    Type
REMARK                         _______ _______ _______ _____ _____    ______ ____
ROOT
ATOM      1  S   UNL     1      -6.328  -3.816 -59.887  0.00  0.00    +0.000 S 
ATOM      2  N   UNL     1      -5.582  -1.932 -58.312  0.00  0.00    +0.000 N 
ATOM      3  N   UNL     1      -6.930  -3.310 -57.191  0.00  0.00    +0.000 NA
ATOM      4  C   UNL     1      -5.675  -1.377 -57.060  0.00  0.00    +0.000 A 
ATOM      5  C   UNL     1      -6.505  -2.269 -56.368  0.00  0.00    +0.000 A 
ATOM      6  C   UNL     1      -6.348  -3.056 -58.327  0.00  0.00    +0.000 A 
ATOM      7  C   UNL     1      -4.965  -1.626 -59.508  0.00  0.00    +0.000 A 
ATOM      8  C   UNL     1      -5.254  -2.529 -60.461  0.00  0.00    +0.000 A 
ENDROOT
BRANCH   5  10
ATOM      9 CL   UNL     1      -8.172  -1.857 -50.632  0.00  0.00    +0.000 Cl
ATOM     10  C   UNL     1      -6.919  -2.204 -54.970  0.00  0.00    +0.000 A 
ATOM     11  C   UNL     1      -6.516  -3.158 -54.025  0.00  0.00    +0.000 A 
ATOM     12  C   UNL     1      -7.773  -1.175 -54.555  0.00  0.00    +0.000 A 
ATOM     13  C   UNL     1      -6.893  -3.046 -52.684  0.00  0.00    +0.000 A 
ATOM     14  C   UNL     1      -8.171  -1.067 -53.216  0.00  0.00    +0.000 A 
ATOM     15  C   UNL     1      -7.717  -1.999 -52.284  0.00  0.00    +0.000 A 
ENDBRANCH   5  10
BRANCH   4  17
ATOM     16  N   UNL     1      -4.163  -0.098 -55.756  0.00  0.00    +0.000 NA
ATOM     17  C   UNL     1      -5.051  -0.140 -56.691  0.00  0.00    +0.000 C 
BRANCH  16  18
ATOM     18  O   UNL     1      -3.696   1.217 -55.612  0.00  0.00    +0.000 OA
BRANCH  18  19
ATOM     19  C   UNL     1      -2.921   1.292 -54.411  0.00  0.00    +0.000 C 
BRANCH  19  22
ATOM     20 CL   UNL     1      -2.691  -1.459 -52.937  0.00  0.00    +0.000 Cl
ATOM     21 CL   UNL     1      -4.910   3.531 -53.608  0.00  0.00    +0.000 Cl
ATOM     22  C   UNL     1      -3.832   1.027 -53.241  0.00  0.00    +0.000 A 
ATOM     23  C   UNL     1      -3.770  -0.176 -52.514  0.00  0.00    +0.000 A 
ATOM     24  C   UNL     1      -4.741   2.009 -52.801  0.00  0.00    +0.000 A 
ATOM     25  C   UNL     1      -4.589  -0.388 -51.396  0.00  0.00    +0.000 A 
ATOM     26  C   UNL     1      -5.553   1.796 -51.680  0.00  0.00    +0.000 A 
ATOM     27  C   UNL     1      -5.476   0.599 -50.976  0.00  0.00    +0.000 A 
ENDBRANCH  19  22
ENDBRANCH  18  19
ENDBRANCH  16  18
ENDBRANCH   4  17
TORSDOF 5
ENDMDL
MODEL 5
REMARK VINA RESULT:      -5.2     14.554     17.056
REMARK  Name = 9628525
REMARK  5 active torsions:
REMARK  status: ('A' for Active; 'I' for Inactive)
REMARK    1  A    between atoms: O_5  and  N_8
REMARK    2  A    between atoms: O_5  and  C_21
REMARK    3  A    between atoms: C_9  and  C_14
REMARK    4  A    between atoms: C_10  and  C_12
REMARK    5  A    between atoms: C_20  and  C_21
REMARK                            x       y       z     vdW  Elec       q    Type
REMARK                         _______ _______ _______ _____ _____    ______ ____
ROOT
ATOM      1  S   UNL     1     -15.961  15.543 -51.121  0.00  0.00    +0.000 S 
ATOM      2  N   UNL     1     -16.382  15.614 -48.590  0.00  0.00    +0.000 N 
ATOM      3  N   UNL     1     -14.227  16.041 -48.968  0.00  0.00    +0.000 NA
ATOM      4  C   UNL     1     -15.842  15.777 -47.340  0.00  0.00    +0.000 A 
ATOM      5  C   UNL     1     -14.496  16.068 -47.601  0.00  0.00    +0.000 A 
ATOM      6  C   UNL     1     -15.383  15.770 -49.499  0.00  0.00    +0.000 A 
ATOM      7  C   UNL     1     -17.618  15.308 -49.123  0.00  0.00    +0.000 A 
ATOM      8  C   UNL     1     -17.576  15.232 -50.464  0.00  0.00    +0.000 A 
ENDROOT
BRANCH   5  10
ATOM      9 CL   UNL     1     -10.283  17.364 -43.548  0.00  0.00    +0.000 Cl
ATOM     10  C   UNL     1     -13.444  16.375 -46.638  0.00  0.00    +0.000 A 
ATOM     11  C   UNL     1     -12.328  17.157 -46.972  0.00  0.00    +0.000 A 
ATOM     12  C   UNL     1     -13.525  15.852 -45.341  0.00  0.00    +0.000 A 
ATOM     13  C   UNL     1     -11.359  17.472 -46.016  0.00  0.00    +0.000 A 
ATOM     14  C   UNL     1     -12.546  16.148 -44.384  0.00  0.00    +0.000 A 
ATOM     15  C   UNL     1     -11.473  16.968 -44.725  0.00  0.00    +0.000 A 
ENDBRANCH   5  10
BRANCH   4  17
ATOM     16  N   UNL     1     -16.740  14.452 -45.590  0.00  0.00    +0.000 NA
ATOM     17  C   UNL     1     -16.586  15.616 -46.125  0.00  0.00    +0.000 C 
BRANCH  16  18
ATOM     18  O   UNL     1     -17.480  14.576 -44.404  0.00  0.00    +0.000 OA
BRANCH  18  19
ATOM     19  C   UNL     1     -18.398  15.664 -44.559  0.00  0.00    +0.000 C 
BRANCH  19  22
ATOM     20 CL   UNL     1     -19.096  15.776 -41.511  0.00  0.00    +0.000 Cl
ATOM     21 CL   UNL     1     -20.349  14.664 -46.752  0.00  0.00    +0.000 Cl
ATOM     22  C   UNL     1     -19.762  15.201 -44.119  0.00  0.00    +0.000 A 
ATOM     23  C   UNL     1     -20.157  15.244 -42.769  0.00  0.00    +0.000 A 
ATOM     24  C   UNL     1     -20.711  14.760 -45.062  0.00  0.00    +0.000 A 
ATOM     25  C   UNL     1     -21.447  14.857 -42.380  0.00  0.00    +0.000 A 
ATOM     26  C   UNL     1     -22.000  14.380 -44.670  0.00  0.00    +0.000 A 
ATOM     27  C   UNL     1     -22.370  14.430 -43.330  0.00  0.00    +0.000 A 
ENDBRANCH  19  22
ENDBRANCH  18  19
ENDBRANCH  16  18
ENDBRANCH   4  17
TORSDOF 5
ENDMDL
MODEL 6
REMARK VINA RESULT:      -5.2     22.331     23.758
REMARK  Name = 9628525
REMARK  5 active torsions:
REMARK  status: ('A' for Active; 'I' for Inactive)
REMARK    1  A    between atoms: O_5  and  N_8
REMARK    2  A    between atoms: O_5  and  C_21
REMARK    3  A    between atoms: C_9  and  C_14
REMARK    4  A    between atoms: C_10  and  C_12
REMARK    5  A    between atoms: C_20  and  C_21
REMARK                            x       y       z     vdW  Elec       q    Type
REMARK                         _______ _______ _______ _____ _____    ______ ____
ROOT
ATOM      1  S   UNL     1     -24.568  11.119 -50.353  0.00  0.00    +0.000 S 
ATOM      2  N   UNL     1     -24.059   8.604 -50.370  0.00  0.00    +0.000 N 
ATOM      3  N   UNL     1     -23.606   9.438 -52.387  0.00  0.00    +0.000 NA
ATOM      4  C   UNL     1     -23.646   7.520 -51.104  0.00  0.00    +0.000 A 
ATOM      5  C   UNL     1     -23.344   8.070 -52.357  0.00  0.00    +0.000 A 
ATOM      6  C   UNL     1     -24.023   9.694 -51.182  0.00  0.00    +0.000 A 
ATOM      7  C   UNL     1     -24.515   8.840 -49.089  0.00  0.00    +0.000 A 
ATOM      8  C   UNL     1     -24.831  10.133 -48.905  0.00  0.00    +0.000 A 
ENDROOT
BRANCH   5  10
ATOM      9 CL   UNL     1     -21.207   5.122 -57.110  0.00  0.00    +0.000 Cl
ATOM     10  C   UNL     1     -22.816   7.383 -53.531  0.00  0.00    +0.000 A 
ATOM     11  C   UNL     1     -21.616   7.768 -54.147  0.00  0.00    +0.000 A 
ATOM     12  C   UNL     1     -23.541   6.323 -54.089  0.00  0.00    +0.000 A 
ATOM     13  C   UNL     1     -21.113   7.064 -55.244  0.00  0.00    +0.000 A 
ATOM     14  C   UNL     1     -23.051   5.625 -55.201  0.00  0.00    +0.000 A 
ATOM     15  C   UNL     1     -21.832   5.993 -55.766  0.00  0.00    +0.000 A 
ENDBRANCH   5  10
BRANCH   4  17
ATOM     16  N   UNL     1     -24.697   5.474 -50.525  0.00  0.00    +0.000 NA
ATOM     17  C   UNL     1     -23.618   6.180 -50.595  0.00  0.00    +0.000 C 
BRANCH  16  18
ATOM     18  O   UNL     1     -24.391   4.202 -50.020  0.00  0.00    +0.000 OA
BRANCH  18  19
ATOM     19  C   UNL     1     -25.605   3.450 -49.928  0.00  0.00    +0.000 C 
BRANCH  19  22
ATOM     20 CL   UNL     1     -26.868   4.814 -47.410  0.00  0.00    +0.000 Cl
ATOM     21 CL   UNL     1     -24.342   0.618 -49.919  0.00  0.00    +0.000 Cl
ATOM     22  C   UNL     1     -25.599   2.694 -48.625  0.00  0.00    +0.000 A 
ATOM     23  C   UNL     1     -26.170   3.232 -47.456  0.00  0.00    +0.000 A 
ATOM     24  C   UNL     1     -25.068   1.392 -48.551  0.00  0.00    +0.000 A 
ATOM     25  C   UNL     1     -26.202   2.497 -46.263  0.00  0.00    +0.000 A 
ATOM     26  C   UNL     1     -25.108   0.659 -47.359  0.00  0.00    +0.000 A 
ATOM     27  C   UNL     1     -25.676   1.209 -46.215  0.00  0.00    +0.000 A 
ENDBRANCH  19  22
ENDBRANCH  18  19
ENDBRANCH  16  18
ENDBRANCH   4  17
TORSDOF 5
ENDMDL
MODEL 7
REMARK VINA RESULT:      -5.1      6.085      7.871
REMARK  Name = 9628525
REMARK  5 active torsions:
REMARK  status: ('A' for Active; 'I' for Inactive)
REMARK    1  A    between atoms: O_5  and  N_8
REMARK    2  A    between atoms: O_5  and  C_21
REMARK    3  A    between atoms: C_9  and  C_14
REMARK    4  A    between atoms: C_10  and  C_12
REMARK    5  A    between atoms: C_20  and  C_21
REMARK                            x       y       z     vdW  Elec       q    Type
REMARK                         _______ _______ _______ _____ _____    ______ ____
ROOT
ATOM      1  S   UNL     1     -10.535  -1.083 -30.169  0.00  0.00    +0.000 S 
ATOM      2  N   UNL     1      -9.490   0.630 -31.769  0.00  0.00    +0.000 N 
ATOM      3  N   UNL     1     -11.589   1.244 -31.336  0.00  0.00    +0.000 NA
ATOM      4  C   UNL     1      -9.673   1.769 -32.512  0.00  0.00    +0.000 A 
ATOM      5  C   UNL     1     -10.987   2.150 -32.206  0.00  0.00    +0.000 A 
ATOM      6  C   UNL     1     -10.653   0.369 -31.112  0.00  0.00    +0.000 A 
ATOM      7  C   UNL     1      -8.482  -0.291 -31.566  0.00  0.00    +0.000 A 
ATOM      8  C   UNL     1      -8.867  -1.275 -30.735  0.00  0.00    +0.000 A 
ENDROOT
BRANCH   5  10
ATOM      9 CL   UNL     1     -13.981   6.899 -34.289  0.00  0.00    +0.000 Cl
ATOM     10  C   UNL     1     -11.711   3.324 -32.682  0.00  0.00    +0.000 A 
ATOM     11  C   UNL     1     -11.228   4.628 -32.497  0.00  0.00    +0.000 A 
ATOM     12  C   UNL     1     -12.947   3.157 -33.319  0.00  0.00    +0.000 A 
ATOM     13  C   UNL     1     -11.922   5.730 -33.003  0.00  0.00    +0.000 A 
ATOM     14  C   UNL     1     -13.657   4.259 -33.811  0.00  0.00    +0.000 A 
ATOM     15  C   UNL     1     -13.133   5.542 -33.660  0.00  0.00    +0.000 A 
ENDBRANCH   5  10
BRANCH   4  17
ATOM     16  N   UNL     1      -8.764   2.151 -34.669  0.00  0.00    +0.000 NA
ATOM     17  C   UNL     1      -8.680   2.313 -33.391  0.00  0.00    +0.000 C 
BRANCH  16  18
ATOM     18  O   UNL     1      -7.688   2.799 -35.294  0.00  0.00    +0.000 OA
BRANCH  18  19
ATOM     19  C   UNL     1      -8.138   3.300 -36.557  0.00  0.00    +0.000 C 
BRANCH  19  22
ATOM     20 CL   UNL     1     -11.229   3.777 -36.623  0.00  0.00    +0.000 Cl
ATOM     21 CL   UNL     1      -6.044   5.540 -36.093  0.00  0.00    +0.000 Cl
ATOM     22  C   UNL     1      -8.651   4.702 -36.357  0.00  0.00    +0.000 A 
ATOM     23  C   UNL     1     -10.028   4.991 -36.350  0.00  0.00    +0.000 A 
ATOM     24  C   UNL     1      -7.760   5.766 -36.113  0.00  0.00    +0.000 A 
ATOM     25  C   UNL     1     -10.493   6.292 -36.112  0.00  0.00    +0.000 A 
ATOM     26  C   UNL     1      -8.229   7.063 -35.870  0.00  0.00    +0.000 A 
ATOM     27  C   UNL     1      -9.594   7.326 -35.867  0.00  0.00    +0.000 A 
ENDBRANCH  19  22
ENDBRANCH  18  19
ENDBRANCH  16  18
ENDBRANCH   4  17
TORSDOF 5
ENDMDL
MODEL 8
REMARK VINA RESULT:      -5.1     22.062     24.347
REMARK  Name = 9628525
REMARK  5 active torsions:
REMARK  status: ('A' for Active; 'I' for Inactive)
REMARK    1  A    between atoms: O_5  and  N_8
REMARK    2  A    between atoms: O_5  and  C_21
REMARK    3  A    between atoms: C_9  and  C_14
REMARK    4  A    between atoms: C_10  and  C_12
REMARK    5  A    between atoms: C_20  and  C_21
REMARK                            x       y       z     vdW  Elec       q    Type
REMARK                         _______ _______ _______ _____ _____    ______ ____
ROOT
ATOM      1  S   UNL     1      -7.144  15.805 -60.348  0.00  0.00    +0.000 S 
ATOM      2  N   UNL     1      -7.592  14.250 -58.356  0.00  0.00    +0.000 N 
ATOM      3  N   UNL     1      -9.261  14.036 -59.819  0.00  0.00    +0.000 NA
ATOM      4  C   UNL     1      -8.444  13.345 -57.774  0.00  0.00    +0.000 A 
ATOM      5  C   UNL     1      -9.470  13.207 -58.719  0.00  0.00    +0.000 A 
ATOM      6  C   UNL     1      -8.133  14.625 -59.546  0.00  0.00    +0.000 A 
ATOM      7  C   UNL     1      -6.403  14.870 -58.030  0.00  0.00    +0.000 A 
ATOM      8  C   UNL     1      -6.015  15.734 -58.984  0.00  0.00    +0.000 A 
ENDROOT
BRANCH   5  10
ATOM      9 CL   UNL     1     -14.306   9.680 -58.571  0.00  0.00    +0.000 Cl
ATOM     10  C   UNL     1     -10.637  12.336 -58.650  0.00  0.00    +0.000 A 
ATOM     11  C   UNL     1     -11.432  12.237 -57.498  0.00  0.00    +0.000 A 
ATOM     12  C   UNL     1     -10.968  11.542 -59.756  0.00  0.00    +0.000 A 
ATOM     13  C   UNL     1     -12.570  11.427 -57.477  0.00  0.00    +0.000 A 
ATOM     14  C   UNL     1     -12.097  10.713 -59.734  0.00  0.00    +0.000 A 
ATOM     15  C   UNL     1     -12.899  10.669 -58.596  0.00  0.00    +0.000 A 
ENDBRANCH   5  10
BRANCH   4  17
ATOM     16  N   UNL     1      -8.735  13.331 -55.420  0.00  0.00    +0.000 NA
ATOM     17  C   UNL     1      -8.233  12.778 -56.474  0.00  0.00    +0.000 C 
BRANCH  16  18
ATOM     18  O   UNL     1      -8.404  12.568 -54.290  0.00  0.00    +0.000 OA
BRANCH  18  19
ATOM     19  C   UNL     1      -8.467  13.418 -53.140  0.00  0.00    +0.000 C 
BRANCH  19  22
ATOM     20 CL   UNL     1      -7.498  16.182 -54.242  0.00  0.00    +0.000 Cl
ATOM     21 CL   UNL     1      -6.730  11.542 -51.385  0.00  0.00    +0.000 Cl
ATOM     22  C   UNL     1      -7.070  13.872 -52.807  0.00  0.00    +0.000 A 
ATOM     23  C   UNL     1      -6.572  15.112 -53.247  0.00  0.00    +0.000 A 
ATOM     24  C   UNL     1      -6.233  13.086 -51.992  0.00  0.00    +0.000 A 
ATOM     25  C   UNL     1      -5.287  15.544 -52.887  0.00  0.00    +0.000 A 
ATOM     26  C   UNL     1      -4.953  13.523 -51.630  0.00  0.00    +0.000 A 
ATOM     27  C   UNL     1      -4.480  14.753 -52.076  0.00  0.00    +0.000 A 
ENDBRANCH  19  22
ENDBRANCH  18  19
ENDBRANCH  16  18
ENDBRANCH   4  17
TORSDOF 5
ENDMDL
MODEL 9
REMARK VINA RESULT:      -5.0     13.058     14.295
REMARK  Name = 9628525
REMARK  5 active torsions:
REMARK  status: ('A' for Active; 'I' for Inactive)
REMARK    1  A    between atoms: O_5  and  N_8
REMARK    2  A    between atoms: O_5  and  C_21
REMARK    3  A    between atoms: C_9  and  C_14
REMARK    4  A    between atoms: C_10  and  C_12
REMARK    5  A    between atoms: C_20  and  C_21
REMARK                            x       y       z     vdW  Elec       q    Type
REMARK                         _______ _______ _______ _____ _____    ______ ____
ROOT
ATOM      1  S   UNL     1     -11.705  20.558 -40.456  0.00  0.00    +0.000 S 
ATOM      2  N   UNL     1     -10.833  19.151 -42.417  0.00  0.00    +0.000 N 
ATOM      3  N   UNL     1     -13.011  18.750 -42.163  0.00  0.00    +0.000 NA
ATOM      4  C   UNL     1     -11.124  18.218 -43.381  0.00  0.00    +0.000 A 
ATOM      5  C   UNL     1     -12.499  18.000 -43.219  0.00  0.00    +0.000 A 
ATOM      6  C   UNL     1     -11.978  19.412 -41.731  0.00  0.00    +0.000 A 
ATOM      7  C   UNL     1      -9.714  19.824 -41.971  0.00  0.00    +0.000 A 
ATOM      8  C   UNL     1      -9.998  20.623 -40.928  0.00  0.00    +0.000 A 
ENDROOT
BRANCH   5  10
ATOM      9 CL   UNL     1     -16.142  14.408 -46.330  0.00  0.00    +0.000 Cl
ATOM     10  C   UNL     1     -13.365  17.128 -44.006  0.00  0.00    +0.000 A 
ATOM     11  C   UNL     1     -12.859  16.084 -44.794  0.00  0.00    +0.000 A 
ATOM     12  C   UNL     1     -14.748  17.352 -44.006  0.00  0.00    +0.000 A 
ATOM     13  C   UNL     1     -13.716  15.237 -45.502  0.00  0.00    +0.000 A 
ATOM     14  C   UNL     1     -15.610  16.519 -44.730  0.00  0.00    +0.000 A 
ATOM     15  C   UNL     1     -15.089  15.457 -45.466  0.00  0.00    +0.000 A 
ENDBRANCH   5  10
BRANCH   4  17
ATOM     16  N   UNL     1      -9.693  18.312 -45.269  0.00  0.00    +0.000 NA
ATOM     17  C   UNL     1     -10.143  17.649 -44.258  0.00  0.00    +0.000 C 
BRANCH  16  18
ATOM     18  O   UNL     1      -8.732  17.543 -45.943  0.00  0.00    +0.000 OA
BRANCH  18  19
ATOM     19  C   UNL     1      -7.435  17.959 -45.506  0.00  0.00    +0.000 C 
BRANCH  19  22
ATOM     20 CL   UNL     1      -7.026  17.113 -42.521  0.00  0.00    +0.000 Cl
ATOM     21 CL   UNL     1      -6.260  16.416 -47.925  0.00  0.00    +0.000 Cl
ATOM     22  C   UNL     1      -6.613  16.730 -45.215  0.00  0.00    +0.000 A 
ATOM     23  C   UNL     1      -6.406  16.274 -43.901  0.00  0.00    +0.000 A 
ATOM     24  C   UNL     1      -6.072  15.963 -46.265  0.00  0.00    +0.000 A 
ATOM     25  C   UNL     1      -5.682  15.101 -43.648  0.00  0.00    +0.000 A 
ATOM     26  C   UNL     1      -5.354  14.788 -46.009  0.00  0.00    +0.000 A 
ATOM     27  C   UNL     1      -5.160  14.355 -44.702  0.00  0.00    +0.000 A 
ENDBRANCH  19  22
ENDBRANCH  18  19
ENDBRANCH  16  18
ENDBRANCH   4  17
TORSDOF 5
ENDMDL
MODEL 10
REMARK VINA RESULT:      -5.0     25.705     28.322
REMARK  Name = 9628525
REMARK  5 active torsions:
REMARK  status: ('A' for Active; 'I' for Inactive)
REMARK    1  A    between atoms: O_5  and  N_8
REMARK    2  A    between atoms: O_5  and  C_21
REMARK    3  A    between atoms: C_9  and  C_14
REMARK    4  A    between atoms: C_10  and  C_12
REMARK    5  A    between atoms: C_20  and  C_21
REMARK                            x       y       z     vdW  Elec       q    Type
REMARK                         _______ _______ _______ _____ _____    ______ ____
ROOT
ATOM      1  S   UNL     1     -28.763   3.614 -58.395  0.00  0.00    +0.000 S 
ATOM      2  N   UNL     1     -26.542   4.154 -57.227  0.00  0.00    +0.000 N 
ATOM      3  N   UNL     1     -27.215   2.129 -56.581  0.00  0.00    +0.000 NA
ATOM      4  C   UNL     1     -25.582   3.742 -56.338  0.00  0.00    +0.000 A 
ATOM      5  C   UNL     1     -26.011   2.461 -55.965  0.00  0.00    +0.000 A 
ATOM      6  C   UNL     1     -27.477   3.169 -57.317  0.00  0.00    +0.000 A 
ATOM      7  C   UNL     1     -26.801   5.279 -57.983  0.00  0.00    +0.000 A 
ATOM      8  C   UNL     1     -27.948   5.162 -58.673  0.00  0.00    +0.000 A 
ENDROOT
BRANCH   5  10
ATOM      9 CL   UNL     1     -23.321  -1.493 -52.361  0.00  0.00    +0.000 Cl
ATOM     10  C   UNL     1     -25.350   1.524 -55.062  0.00  0.00    +0.000 A 
ATOM     11  C   UNL     1     -25.636   1.478 -53.690  0.00  0.00    +0.000 A 
ATOM     12  C   UNL     1     -24.372   0.658 -55.568  0.00  0.00    +0.000 A 
ATOM     13  C   UNL     1     -25.019   0.540 -52.858  0.00  0.00    +0.000 A 
ATOM     14  C   UNL     1     -23.735  -0.271 -54.735  0.00  0.00    +0.000 A 
ATOM     15  C   UNL     1     -24.072  -0.333 -53.384  0.00  0.00    +0.000 A 
ENDBRANCH   5  10
BRANCH   4  17
ATOM     16  N   UNL     1     -24.410   5.062 -54.754  0.00  0.00    +0.000 NA
ATOM     17  C   UNL     1     -24.469   4.552 -55.938  0.00  0.00    +0.000 C 
BRANCH  16  18
ATOM     18  O   UNL     1     -23.215   5.783 -54.614  0.00  0.00    +0.000 OA
BRANCH  18  19
ATOM     19  C   UNL     1     -22.955   6.466 -55.845  0.00  0.00    +0.000 C 
BRANCH  19  22
ATOM     20 CL   UNL     1     -21.045   4.044 -56.367  0.00  0.00    +0.000 Cl
ATOM     21 CL   UNL     1     -21.996   9.396 -55.518  0.00  0.00    +0.000 Cl
ATOM     22  C   UNL     1     -21.475   6.729 -55.940  0.00  0.00    +0.000 A 
ATOM     23  C   UNL     1     -20.557   5.694 -56.196  0.00  0.00    +0.000 A 
ATOM     24  C   UNL     1     -20.969   8.038 -55.830  0.00  0.00    +0.000 A 
ATOM     25  C   UNL     1     -19.187   5.961 -56.332  0.00  0.00    +0.000 A 
ATOM     26  C   UNL     1     -19.601   8.301 -55.972  0.00  0.00    +0.000 A 
ATOM     27  C   UNL     1     -18.709   7.264 -56.225  0.00  0.00    +0.000 A 
ENDBRANCH  19  22
ENDBRANCH  18  19
ENDBRANCH  16  18
ENDBRANCH   4  17
TORSDOF 5
ENDMDL
