MODEL 1
REMARK VINA RESULT:      -5.3      0.000      0.000
REMARK  Name = 9628790
REMARK  5 active torsions:
REMARK  status: ('A' for Active; 'I' for Inactive)
REMARK    1  A    between atoms: O_5  and  N_8
REMARK    2  A    between atoms: O_5  and  C_21
REMARK    3  A    between atoms: C_9  and  C_14
REMARK    4  A    between atoms: C_10  and  C_12
REMARK    5  A    between atoms: C_20  and  C_21
REMARK                            x       y       z     vdW  Elec       q    Type
REMARK                         _______ _______ _______ _____ _____    ______ ____
ROOT
ATOM      1  S   UNL     1     -20.889  14.754 -43.446  0.00  0.00    +0.000 S 
ATOM      2  N   UNL     1     -19.341  15.282 -45.427  0.00  0.00    +0.000 N 
ATOM      3  N   UNL     1     -18.141  15.311 -43.545  0.00  0.00    +0.000 NA
ATOM      4  C   UNL     1     -18.063  15.553 -45.840  0.00  0.00    +0.000 A 
ATOM      5  C   UNL     1     -17.342  15.599 -44.640  0.00  0.00    +0.000 A 
ATOM      6  C   UNL     1     -19.317  15.146 -44.071  0.00  0.00    +0.000 A 
ATOM      7  C   UNL     1     -20.574  15.079 -46.014  0.00  0.00    +0.000 A 
ATOM      8  C   UNL     1     -21.516  14.788 -45.100  0.00  0.00    +0.000 A 
ENDROOT
BRANCH   5  10
ATOM      9 CL   UNL     1     -11.546  16.898 -43.944  0.00  0.00    +0.000 Cl
ATOM     10  C   UNL     1     -15.926  15.911 -44.487  0.00  0.00    +0.000 A 
ATOM     11  C   UNL     1     -15.536  16.975 -43.661  0.00  0.00    +0.000 A 
ATOM     12  C   UNL     1     -14.938  15.190 -45.174  0.00  0.00    +0.000 A 
ATOM     13  C   UNL     1     -14.182  17.282 -43.492  0.00  0.00    +0.000 A 
ATOM     14  C   UNL     1     -13.586  15.488 -44.998  0.00  0.00    +0.000 A 
ATOM     15  C   UNL     1     -13.214  16.530 -44.155  0.00  0.00    +0.000 A 
ENDBRANCH   5  10
BRANCH   4  17
ATOM     16  N   UNL     1     -17.504  16.871 -47.743  0.00  0.00    +0.000 NA
ATOM     17  C   UNL     1     -17.624  15.703 -47.196  0.00  0.00    +0.000 C 
BRANCH  16  18
ATOM     18  O   UNL     1     -17.033  16.705 -49.062  0.00  0.00    +0.000 OA
BRANCH  18  19
ATOM     19  C   UNL     1     -16.083  15.636 -49.085  0.00  0.00    +0.000 C 
BRANCH  19  22
ATOM     20 CL   UNL     1     -13.125  16.452 -48.415  0.00  0.00    +0.000 Cl
ATOM     21 CL   UNL     1     -12.269  16.423 -53.708  0.00  0.00    +0.000 Cl
ATOM     22  C   UNL     1     -15.103  15.846 -50.216  0.00  0.00    +0.000 A 
ATOM     23  C   UNL     1     -13.763  16.211 -50.004  0.00  0.00    +0.000 A 
ATOM     24  C   UNL     1     -15.538  15.652 -51.541  0.00  0.00    +0.000 A 
ATOM     25  C   UNL     1     -12.890  16.398 -51.082  0.00  0.00    +0.000 A 
ATOM     26  C   UNL     1     -14.664  15.829 -52.617  0.00  0.00    +0.000 A 
ATOM     27  C   UNL     1     -13.345  16.203 -52.383  0.00  0.00    +0.000 A 
ENDBRANCH  19  22
ENDBRANCH  18  19
ENDBRANCH  16  18
ENDBRANCH   4  17
TORSDOF 5
ENDMDL
MODEL 2
REMARK VINA RESULT:      -5.2      2.201      4.548
REMARK  Name = 9628790
REMARK  5 active torsions:
REMARK  status: ('A' for Active; 'I' for Inactive)
REMARK    1  A    between atoms: O_5  and  N_8
REMARK    2  A    between atoms: O_5  and  C_21
REMARK    3  A    between atoms: C_9  and  C_14
REMARK    4  A    between atoms: C_10  and  C_12
REMARK    5  A    between atoms: C_20  and  C_21
REMARK                            x       y       z     vdW  Elec       q    Type
REMARK                         _______ _______ _______ _____ _____    ______ ____
ROOT
ATOM      1  S   UNL     1     -21.535  15.699 -44.929  0.00  0.00    +0.000 S 
ATOM      2  N   UNL     1     -18.971  15.642 -44.777  0.00  0.00    +0.000 N 
ATOM      3  N   UNL     1     -19.559  16.217 -46.852  0.00  0.00    +0.000 NA
ATOM      4  C   UNL     1     -17.782  15.844 -45.427  0.00  0.00    +0.000 A 
ATOM      5  C   UNL     1     -18.180  16.168 -46.730  0.00  0.00    +0.000 A 
ATOM      6  C   UNL     1     -19.975  15.884 -45.668  0.00  0.00    +0.000 A 
ATOM      7  C   UNL     1     -19.386  15.317 -43.501  0.00  0.00    +0.000 A 
ATOM      8  C   UNL     1     -20.727  15.300 -43.405  0.00  0.00    +0.000 A 
ENDROOT
BRANCH   5  10
ATOM      9 CL   UNL     1     -14.626  17.181 -51.432  0.00  0.00    +0.000 Cl
ATOM     10  C   UNL     1     -17.306  16.428 -47.867  0.00  0.00    +0.000 A 
ATOM     11  C   UNL     1     -16.864  15.359 -48.661  0.00  0.00    +0.000 A 
ATOM     12  C   UNL     1     -16.867  17.724 -48.173  0.00  0.00    +0.000 A 
ATOM     13  C   UNL     1     -16.035  15.590 -49.764  0.00  0.00    +0.000 A 
ATOM     14  C   UNL     1     -16.048  17.959 -49.279  0.00  0.00    +0.000 A 
ATOM     15  C   UNL     1     -15.639  16.890 -50.072  0.00  0.00    +0.000 A 
ENDBRANCH   5  10
BRANCH   4  17
ATOM     16  N   UNL     1     -15.713  16.807 -44.745  0.00  0.00    +0.000 NA
ATOM     17  C   UNL     1     -16.474  15.765 -44.846  0.00  0.00    +0.000 C 
BRANCH  16  18
ATOM     18  O   UNL     1     -14.510  16.429 -44.114  0.00  0.00    +0.000 OA
BRANCH  18  19
ATOM     19  C   UNL     1     -13.852  15.446 -44.918  0.00  0.00    +0.000 C 
BRANCH  19  22
ATOM     20 CL   UNL     1     -11.283  16.912 -43.862  0.00  0.00    +0.000 Cl
ATOM     21 CL   UNL     1     -10.258  18.101 -48.988  0.00  0.00    +0.000 Cl
ATOM     22  C   UNL     1     -12.933  16.125 -45.907  0.00  0.00    +0.000 A 
ATOM     23  C   UNL     1     -11.764  16.802 -45.518  0.00  0.00    +0.000 A 
ATOM     24  C   UNL     1     -13.244  16.067 -47.279  0.00  0.00    +0.000 A 
ATOM     25  C   UNL     1     -10.943  17.419 -46.468  0.00  0.00    +0.000 A 
ATOM     26  C   UNL     1     -12.418  16.675 -48.228  0.00  0.00    +0.000 A 
ATOM     27  C   UNL     1     -11.272  17.351 -47.818  0.00  0.00    +0.000 A 
ENDBRANCH  19  22
ENDBRANCH  18  19
ENDBRANCH  16  18
ENDBRANCH   4  17
TORSDOF 5
ENDMDL
MODEL 3
REMARK VINA RESULT:      -5.2     20.191     22.485
REMARK  Name = 9628790
REMARK  5 active torsions:
REMARK  status: ('A' for Active; 'I' for Inactive)
REMARK    1  A    between atoms: O_5  and  N_8
REMARK    2  A    between atoms: O_5  and  C_21
REMARK    3  A    between atoms: C_9  and  C_14
REMARK    4  A    between atoms: C_10  and  C_12
REMARK    5  A    between atoms: C_20  and  C_21
REMARK                            x       y       z     vdW  Elec       q    Type
REMARK                         _______ _______ _______ _____ _____    ______ ____
ROOT
ATOM      1  S   UNL     1      -7.649  -0.319 -64.491  0.00  0.00    +0.000 S 
ATOM      2  N   UNL     1      -7.395  -0.599 -61.950  0.00  0.00    +0.000 N 
ATOM      3  N   UNL     1      -6.611   1.407 -62.537  0.00  0.00    +0.000 NA
ATOM      4  C   UNL     1      -7.003  -0.025 -60.769  0.00  0.00    +0.000 A 
ATOM      5  C   UNL     1      -6.486   1.213 -61.171  0.00  0.00    +0.000 A 
ATOM      6  C   UNL     1      -7.144   0.296 -62.947  0.00  0.00    +0.000 A 
ATOM      7  C   UNL     1      -7.992  -1.776 -62.355  0.00  0.00    +0.000 A 
ATOM      8  C   UNL     1      -8.198  -1.795 -63.684  0.00  0.00    +0.000 A 
ENDROOT
BRANCH   5  10
ATOM      9 CL   UNL     1      -4.029   5.366 -57.638  0.00  0.00    +0.000 Cl
ATOM     10  C   UNL     1      -5.871   2.219 -60.314  0.00  0.00    +0.000 A 
ATOM     11  C   UNL     1      -6.462   3.485 -60.197  0.00  0.00    +0.000 A 
ATOM     12  C   UNL     1      -4.678   1.964 -59.622  0.00  0.00    +0.000 A 
ATOM     13  C   UNL     1      -5.894   4.460 -59.370  0.00  0.00    +0.000 A 
ATOM     14  C   UNL     1      -4.115   2.931 -58.788  0.00  0.00    +0.000 A 
ATOM     15  C   UNL     1      -4.728   4.173 -58.663  0.00  0.00    +0.000 A 
ENDBRANCH   5  10
BRANCH   4  17
ATOM     16  N   UNL     1      -6.282  -1.426 -58.983  0.00  0.00    +0.000 NA
ATOM     17  C   UNL     1      -7.150  -0.592 -59.461  0.00  0.00    +0.000 C 
BRANCH  16  18
ATOM     18  O   UNL     1      -6.675  -1.789 -57.678  0.00  0.00    +0.000 OA
BRANCH  18  19
ATOM     19  C   UNL     1      -5.524  -1.782 -56.828  0.00  0.00    +0.000 C 
BRANCH  19  22
ATOM     20 CL   UNL     1      -7.494  -1.793 -54.382  0.00  0.00    +0.000 Cl
ATOM     21 CL   UNL     1      -5.587   3.088 -53.248  0.00  0.00    +0.000 Cl
ATOM     22  C   UNL     1      -5.570  -0.579 -55.915  0.00  0.00    +0.000 A 
ATOM     23  C   UNL     1      -6.422  -0.503 -54.799  0.00  0.00    +0.000 A 
ATOM     24  C   UNL     1      -4.714   0.508 -56.174  0.00  0.00    +0.000 A 
ATOM     25  C   UNL     1      -6.433   0.632 -53.981  0.00  0.00    +0.000 A 
ATOM     26  C   UNL     1      -4.719   1.638 -55.351  0.00  0.00    +0.000 A 
ATOM     27  C   UNL     1      -5.580   1.696 -54.260  0.00  0.00    +0.000 A 
ENDBRANCH  19  22
ENDBRANCH  18  19
ENDBRANCH  16  18
ENDBRANCH   4  17
TORSDOF 5
ENDMDL
MODEL 4
REMARK VINA RESULT:      -5.2     13.563     15.434
REMARK  Name = 9628790
REMARK  5 active torsions:
REMARK  status: ('A' for Active; 'I' for Inactive)
REMARK    1  A    between atoms: O_5  and  N_8
REMARK    2  A    between atoms: O_5  and  C_21
REMARK    3  A    between atoms: C_9  and  C_14
REMARK    4  A    between atoms: C_10  and  C_12
REMARK    5  A    between atoms: C_20  and  C_21
REMARK                            x       y       z     vdW  Elec       q    Type
REMARK                         _______ _______ _______ _____ _____    ______ ____
ROOT
ATOM      1  S   UNL     1     -28.302   5.241 -47.907  0.00  0.00    +0.000 S 
ATOM      2  N   UNL     1     -26.353   5.385 -49.576  0.00  0.00    +0.000 N 
ATOM      3  N   UNL     1     -26.883   3.238 -49.266  0.00  0.00    +0.000 NA
ATOM      4  C   UNL     1     -25.498   4.698 -50.397  0.00  0.00    +0.000 A 
ATOM      5  C   UNL     1     -25.828   3.359 -50.157  0.00  0.00    +0.000 A 
ATOM      6  C   UNL     1     -27.144   4.469 -48.946  0.00  0.00    +0.000 A 
ATOM      7  C   UNL     1     -26.632   6.703 -49.277  0.00  0.00    +0.000 A 
ATOM      8  C   UNL     1     -27.645   6.809 -48.399  0.00  0.00    +0.000 A 
ENDROOT
BRANCH   5  10
ATOM      9 CL   UNL     1     -23.167  -1.479 -52.453  0.00  0.00    +0.000 Cl
ATOM     10  C   UNL     1     -25.182   2.186 -50.732  0.00  0.00    +0.000 A 
ATOM     11  C   UNL     1     -24.147   1.550 -50.031  0.00  0.00    +0.000 A 
ATOM     12  C   UNL     1     -25.548   1.692 -51.993  0.00  0.00    +0.000 A 
ATOM     13  C   UNL     1     -23.522   0.417 -50.562  0.00  0.00    +0.000 A 
ATOM     14  C   UNL     1     -24.934   0.554 -52.520  0.00  0.00    +0.000 A 
ATOM     15  C   UNL     1     -23.926  -0.080 -51.799  0.00  0.00    +0.000 A 
ENDBRANCH   5  10
BRANCH   4  17
ATOM     16  N   UNL     1     -24.839   5.537 -52.527  0.00  0.00    +0.000 NA
ATOM     17  C   UNL     1     -24.540   5.274 -51.294  0.00  0.00    +0.000 C 
BRANCH  16  18
ATOM     18  O   UNL     1     -23.715   6.117 -53.151  0.00  0.00    +0.000 OA
BRANCH  18  19
ATOM     19  C   UNL     1     -23.668   5.688 -54.515  0.00  0.00    +0.000 C 
BRANCH  19  22
ATOM     20 CL   UNL     1     -22.200   3.655 -56.406  0.00  0.00    +0.000 Cl
ATOM     21 CL   UNL     1     -18.386   7.388 -56.911  0.00  0.00    +0.000 Cl
ATOM     22  C   UNL     1     -22.342   6.077 -55.128  0.00  0.00    +0.000 A 
ATOM     23  C   UNL     1     -21.621   5.228 -55.984  0.00  0.00    +0.000 A 
ATOM     24  C   UNL     1     -21.809   7.350 -54.849  0.00  0.00    +0.000 A 
ATOM     25  C   UNL     1     -20.396   5.629 -56.528  0.00  0.00    +0.000 A 
ATOM     26  C   UNL     1     -20.590   7.754 -55.400  0.00  0.00    +0.000 A 
ATOM     27  C   UNL     1     -19.888   6.891 -56.235  0.00  0.00    +0.000 A 
ENDBRANCH  19  22
ENDBRANCH  18  19
ENDBRANCH  16  18
ENDBRANCH   4  17
TORSDOF 5
ENDMDL
MODEL 5
REMARK VINA RESULT:      -5.1     16.094     17.890
REMARK  Name = 9628790
REMARK  5 active torsions:
REMARK  status: ('A' for Active; 'I' for Inactive)
REMARK    1  A    between atoms: O_5  and  N_8
REMARK    2  A    between atoms: O_5  and  C_21
REMARK    3  A    between atoms: C_9  and  C_14
REMARK    4  A    between atoms: C_10  and  C_12
REMARK    5  A    between atoms: C_20  and  C_21
REMARK                            x       y       z     vdW  Elec       q    Type
REMARK                         _______ _______ _______ _____ _____    ______ ____
ROOT
ATOM      1  S   UNL     1     -26.422   0.787 -59.834  0.00  0.00    +0.000 S 
ATOM      2  N   UNL     1     -24.896   2.064 -58.208  0.00  0.00    +0.000 N 
ATOM      3  N   UNL     1     -25.817   0.339 -57.131  0.00  0.00    +0.000 NA
ATOM      4  C   UNL     1     -24.370   2.128 -56.945  0.00  0.00    +0.000 A 
ATOM      5  C   UNL     1     -24.989   1.060 -56.284  0.00  0.00    +0.000 A 
ATOM      6  C   UNL     1     -25.732   0.988 -58.252  0.00  0.00    +0.000 A 
ATOM      7  C   UNL     1     -24.763   2.752 -59.398  0.00  0.00    +0.000 A 
ATOM      8  C   UNL     1     -25.512   2.206 -60.372  0.00  0.00    +0.000 A 
ENDROOT
BRANCH   5  10
ATOM      9 CL   UNL     1     -24.420  -0.416 -50.517  0.00  0.00    +0.000 Cl
ATOM     10  C   UNL     1     -24.834   0.696 -54.882  0.00  0.00    +0.000 A 
ATOM     11  C   UNL     1     -25.548   1.398 -53.900  0.00  0.00    +0.000 A 
ATOM     12  C   UNL     1     -23.958  -0.323 -54.481  0.00  0.00    +0.000 A 
ATOM     13  C   UNL     1     -25.422   1.055 -52.550  0.00  0.00    +0.000 A 
ATOM     14  C   UNL     1     -23.838  -0.674 -53.136  0.00  0.00    +0.000 A 
ATOM     15  C   UNL     1     -24.573   0.015 -52.176  0.00  0.00    +0.000 A 
ENDBRANCH   5  10
BRANCH   4  17
ATOM     16  N   UNL     1     -23.718   4.071 -55.730  0.00  0.00    +0.000 NA
ATOM     17  C   UNL     1     -23.392   3.068 -56.482  0.00  0.00    +0.000 C 
BRANCH  16  18
ATOM     18  O   UNL     1     -22.551   4.798 -55.415  0.00  0.00    +0.000 OA
BRANCH  18  19
ATOM     19  C   UNL     1     -22.733   6.161 -55.808  0.00  0.00    +0.000 C 
BRANCH  19  22
ATOM     20 CL   UNL     1     -21.931   5.820 -58.825  0.00  0.00    +0.000 Cl
ATOM     21 CL   UNL     1     -17.465   8.520 -57.599  0.00  0.00    +0.000 Cl
ATOM     22  C   UNL     1     -21.420   6.734 -56.290  0.00  0.00    +0.000 A 
ATOM     23  C   UNL     1     -20.987   6.626 -57.622  0.00  0.00    +0.000 A 
ATOM     24  C   UNL     1     -20.600   7.423 -55.376  0.00  0.00    +0.000 A 
ATOM     25  C   UNL     1     -19.762   7.170 -58.025  0.00  0.00    +0.000 A 
ATOM     26  C   UNL     1     -19.381   7.974 -55.781  0.00  0.00    +0.000 A 
ATOM     27  C   UNL     1     -18.966   7.843 -57.103  0.00  0.00    +0.000 A 
ENDBRANCH  19  22
ENDBRANCH  18  19
ENDBRANCH  16  18
ENDBRANCH   4  17
TORSDOF 5
ENDMDL
MODEL 6
REMARK VINA RESULT:      -4.9     12.862     15.465
REMARK  Name = 9628790
REMARK  5 active torsions:
REMARK  status: ('A' for Active; 'I' for Inactive)
REMARK    1  A    between atoms: O_5  and  N_8
REMARK    2  A    between atoms: O_5  and  C_21
REMARK    3  A    between atoms: C_9  and  C_14
REMARK    4  A    between atoms: C_10  and  C_12
REMARK    5  A    between atoms: C_20  and  C_21
REMARK                            x       y       z     vdW  Elec       q    Type
REMARK                         _______ _______ _______ _____ _____    ______ ____
ROOT
ATOM      1  S   UNL     1      -7.573  14.009 -55.953  0.00  0.00    +0.000 S 
ATOM      2  N   UNL     1      -8.564  13.292 -58.213  0.00  0.00    +0.000 N 
ATOM      3  N   UNL     1     -10.152  13.152 -56.650  0.00  0.00    +0.000 NA
ATOM      4  C   UNL     1      -9.679  12.878 -58.893  0.00  0.00    +0.000 A 
ATOM      5  C   UNL     1     -10.646  12.766 -57.886  0.00  0.00    +0.000 A 
ATOM      6  C   UNL     1      -8.912  13.440 -56.902  0.00  0.00    +0.000 A 
ATOM      7  C   UNL     1      -7.258  13.623 -58.513  0.00  0.00    +0.000 A 
ATOM      8  C   UNL     1      -6.585  14.025 -57.421  0.00  0.00    +0.000 A 
ENDROOT
BRANCH   5  10
ATOM      9 CL   UNL     1     -16.292  10.921 -58.580  0.00  0.00    +0.000 Cl
ATOM     10  C   UNL     1     -12.018  12.302 -58.046  0.00  0.00    +0.000 A 
ATOM     11  C   UNL     1     -13.059  13.237 -58.145  0.00  0.00    +0.000 A 
ATOM     12  C   UNL     1     -12.333  10.935 -58.071  0.00  0.00    +0.000 A 
ATOM     13  C   UNL     1     -14.381  12.811 -58.310  0.00  0.00    +0.000 A 
ATOM     14  C   UNL     1     -13.650  10.508 -58.246  0.00  0.00    +0.000 A 
ATOM     15  C   UNL     1     -14.668  11.449 -58.368  0.00  0.00    +0.000 A 
ENDBRANCH   5  10
BRANCH   4  17
ATOM     16  N   UNL     1     -10.559  13.384 -61.047  0.00  0.00    +0.000 NA
ATOM     17  C   UNL     1      -9.778  12.664 -60.306  0.00  0.00    +0.000 C 
BRANCH  16  18
ATOM     18  O   UNL     1     -10.426  12.963 -62.387  0.00  0.00    +0.000 OA
BRANCH  18  19
ATOM     19  C   UNL     1     -10.978  11.650 -62.519  0.00  0.00    +0.000 C 
BRANCH  19  22
ATOM     20 CL   UNL     1     -14.014  11.682 -61.715  0.00  0.00    +0.000 Cl
ATOM     21 CL   UNL     1     -15.066  11.645 -66.972  0.00  0.00    +0.000 Cl
ATOM     22  C   UNL     1     -12.028  11.644 -63.606  0.00  0.00    +0.000 A 
ATOM     23  C   UNL     1     -13.406  11.658 -63.333  0.00  0.00    +0.000 A 
ATOM     24  C   UNL     1     -11.616  11.643 -64.953  0.00  0.00    +0.000 A 
ATOM     25  C   UNL     1     -14.344  11.650 -64.371  0.00  0.00    +0.000 A 
ATOM     26  C   UNL     1     -12.553  11.645 -65.990  0.00  0.00    +0.000 A 
ATOM     27  C   UNL     1     -13.913  11.646 -65.694  0.00  0.00    +0.000 A 
ENDBRANCH  19  22
ENDBRANCH  18  19
ENDBRANCH  16  18
ENDBRANCH   4  17
TORSDOF 5
ENDMDL
MODEL 7
REMARK VINA RESULT:      -4.9     19.551     22.674
REMARK  Name = 9628790
REMARK  5 active torsions:
REMARK  status: ('A' for Active; 'I' for Inactive)
REMARK    1  A    between atoms: O_5  and  N_8
REMARK    2  A    between atoms: O_5  and  C_21
REMARK    3  A    between atoms: C_9  and  C_14
REMARK    4  A    between atoms: C_10  and  C_12
REMARK    5  A    between atoms: C_20  and  C_21
REMARK                            x       y       z     vdW  Elec       q    Type
REMARK                         _______ _______ _______ _____ _____    ______ ____
ROOT
ATOM      1  S   UNL     1     -26.365  -0.921 -48.240  0.00  0.00    +0.000 S 
ATOM      2  N   UNL     1     -26.790  -0.062 -45.856  0.00  0.00    +0.000 N 
ATOM      3  N   UNL     1     -28.266  -1.671 -46.318  0.00  0.00    +0.000 NA
ATOM      4  C   UNL     1     -27.530  -0.187 -44.710  0.00  0.00    +0.000 A 
ATOM      5  C   UNL     1     -28.467  -1.175 -45.039  0.00  0.00    +0.000 A 
ATOM      6  C   UNL     1     -27.269  -0.966 -46.758  0.00  0.00    +0.000 A 
ATOM      7  C   UNL     1     -25.708   0.679 -46.288  0.00  0.00    +0.000 A 
ATOM      8  C   UNL     1     -25.350   0.350 -47.541  0.00  0.00    +0.000 A 
ENDROOT
BRANCH   5  10
ATOM      9 CL   UNL     1     -32.953  -3.165 -41.622  0.00  0.00    +0.000 Cl
ATOM     10  C   UNL     1     -29.548  -1.665 -44.195  0.00  0.00    +0.000 A 
ATOM     11  C   UNL     1     -30.777  -0.989 -44.178  0.00  0.00    +0.000 A 
ATOM     12  C   UNL     1     -29.382  -2.785 -43.367  0.00  0.00    +0.000 A 
ATOM     13  C   UNL     1     -31.831  -1.451 -43.384  0.00  0.00    +0.000 A 
ATOM     14  C   UNL     1     -30.436  -3.255 -42.581  0.00  0.00    +0.000 A 
ATOM     15  C   UNL     1     -31.657  -2.587 -42.596  0.00  0.00    +0.000 A 
ENDBRANCH   5  10
BRANCH   4  17
ATOM     16  N   UNL     1     -26.869  -0.066 -42.425  0.00  0.00    +0.000 NA
ATOM     17  C   UNL     1     -27.322   0.526 -43.484  0.00  0.00    +0.000 C 
BRANCH  16  18
ATOM     18  O   UNL     1     -26.745   0.888 -41.393  0.00  0.00    +0.000 OA
BRANCH  18  19
ATOM     19  C   UNL     1     -27.243   0.324 -40.176  0.00  0.00    +0.000 C 
BRANCH  19  22
ATOM     20 CL   UNL     1     -28.830  -2.248 -39.321  0.00  0.00    +0.000 Cl
ATOM     21 CL   UNL     1     -33.280   0.607 -40.210  0.00  0.00    +0.000 Cl
ATOM     22  C   UNL     1     -28.754   0.357 -40.178  0.00  0.00    +0.000 A 
ATOM     23  C   UNL     1     -29.539  -0.748 -39.809  0.00  0.00    +0.000 A 
ATOM     24  C   UNL     1     -29.410   1.547 -40.545  0.00  0.00    +0.000 A 
ATOM     25  C   UNL     1     -30.936  -0.674 -39.827  0.00  0.00    +0.000 A 
ATOM     26  C   UNL     1     -30.805   1.624 -40.554  0.00  0.00    +0.000 A 
ATOM     27  C   UNL     1     -31.562   0.512 -40.197  0.00  0.00    +0.000 A 
ENDBRANCH  19  22
ENDBRANCH  18  19
ENDBRANCH  16  18
ENDBRANCH   4  17
TORSDOF 5
ENDMDL
MODEL 8
REMARK VINA RESULT:      -4.9      3.682      6.865
REMARK  Name = 9628790
REMARK  5 active torsions:
REMARK  status: ('A' for Active; 'I' for Inactive)
REMARK    1  A    between atoms: O_5  and  N_8
REMARK    2  A    between atoms: O_5  and  C_21
REMARK    3  A    between atoms: C_9  and  C_14
REMARK    4  A    between atoms: C_10  and  C_12
REMARK    5  A    between atoms: C_20  and  C_21
REMARK                            x       y       z     vdW  Elec       q    Type
REMARK                         _______ _______ _______ _____ _____    ______ ____
ROOT
ATOM      1  S   UNL     1     -14.307  16.462 -52.333  0.00  0.00    +0.000 S 
ATOM      2  N   UNL     1     -15.259  15.796 -50.041  0.00  0.00    +0.000 N 
ATOM      3  N   UNL     1     -13.324  16.868 -49.736  0.00  0.00    +0.000 NA
ATOM      4  C   UNL     1     -15.101  15.840 -48.681  0.00  0.00    +0.000 A 
ATOM      5  C   UNL     1     -13.869  16.484 -48.520  0.00  0.00    +0.000 A 
ATOM      6  C   UNL     1     -14.184  16.422 -50.601  0.00  0.00    +0.000 A 
ATOM      7  C   UNL     1     -16.204  15.341 -50.938  0.00  0.00    +0.000 A 
ATOM      8  C   UNL     1     -15.854  15.612 -52.207  0.00  0.00    +0.000 A 
ENDROOT
BRANCH   5  10
ATOM      9 CL   UNL     1     -11.071  17.629 -43.360  0.00  0.00    +0.000 Cl
ATOM     10  C   UNL     1     -13.181  16.747 -47.263  0.00  0.00    +0.000 A 
ATOM     11  C   UNL     1     -12.677  18.030 -47.002  0.00  0.00    +0.000 A 
ATOM     12  C   UNL     1     -12.978  15.736 -46.312  0.00  0.00    +0.000 A 
ATOM     13  C   UNL     1     -12.025  18.304 -45.796  0.00  0.00    +0.000 A 
ATOM     14  C   UNL     1     -12.337  16.010 -45.103  0.00  0.00    +0.000 A 
ATOM     15  C   UNL     1     -11.866  17.294 -44.849  0.00  0.00    +0.000 A 
ENDBRANCH   5  10
BRANCH   4  17
ATOM     16  N   UNL     1     -17.137  15.985 -47.453  0.00  0.00    +0.000 NA
ATOM     17  C   UNL     1     -16.033  15.357 -47.704  0.00  0.00    +0.000 C 
BRANCH  16  18
ATOM     18  O   UNL     1     -17.855  15.264 -46.475  0.00  0.00    +0.000 OA
BRANCH  18  19
ATOM     19  C   UNL     1     -16.956  14.874 -45.433  0.00  0.00    +0.000 C 
BRANCH  19  22
ATOM     20 CL   UNL     1     -19.363  14.997 -43.419  0.00  0.00    +0.000 Cl
ATOM     21 CL   UNL     1     -16.794  19.099 -41.114  0.00  0.00    +0.000 Cl
ATOM     22  C   UNL     1     -16.951  15.921 -44.343  0.00  0.00    +0.000 A 
ATOM     23  C   UNL     1     -17.987  16.044 -43.402  0.00  0.00    +0.000 A 
ATOM     24  C   UNL     1     -15.858  16.803 -44.248  0.00  0.00    +0.000 A 
ATOM     25  C   UNL     1     -17.943  17.030 -42.410  0.00  0.00    +0.000 A 
ATOM     26  C   UNL     1     -15.809  17.782 -43.252  0.00  0.00    +0.000 A 
ATOM     27  C   UNL     1     -16.853  17.893 -42.339  0.00  0.00    +0.000 A 
ENDBRANCH  19  22
ENDBRANCH  18  19
ENDBRANCH  16  18
ENDBRANCH   4  17
TORSDOF 5
ENDMDL
MODEL 9
REMARK VINA RESULT:      -4.9     15.336     17.761
REMARK  Name = 9628790
REMARK  5 active torsions:
REMARK  status: ('A' for Active; 'I' for Inactive)
REMARK    1  A    between atoms: O_5  and  N_8
REMARK    2  A    between atoms: O_5  and  C_21
REMARK    3  A    between atoms: C_9  and  C_14
REMARK    4  A    between atoms: C_10  and  C_12
REMARK    5  A    between atoms: C_20  and  C_21
REMARK                            x       y       z     vdW  Elec       q    Type
REMARK                         _______ _______ _______ _____ _____    ______ ____
ROOT
ATOM      1  S   UNL     1     -24.179  -2.597 -53.002  0.00  0.00    +0.000 S 
ATOM      2  N   UNL     1     -24.828  -0.230 -52.243  0.00  0.00    +0.000 N 
ATOM      3  N   UNL     1     -25.000  -1.619 -50.504  0.00  0.00    +0.000 NA
ATOM      4  C   UNL     1     -25.216   0.571 -51.201  0.00  0.00    +0.000 A 
ATOM      5  C   UNL     1     -25.349  -0.329 -50.137  0.00  0.00    +0.000 A 
ATOM      6  C   UNL     1     -24.713  -1.502 -51.765  0.00  0.00    +0.000 A 
ATOM      7  C   UNL     1     -24.497  -0.072 -53.574  0.00  0.00    +0.000 A 
ATOM      8  C   UNL     1     -24.129  -1.237 -54.134  0.00  0.00    +0.000 A 
ENDROOT
BRANCH   5  10
ATOM      9 CL   UNL     1     -27.167   1.007 -44.598  0.00  0.00    +0.000 Cl
ATOM     10  C   UNL     1     -25.800  -0.019 -48.786  0.00  0.00    +0.000 A 
ATOM     11  C   UNL     1     -25.009   0.793 -47.960  0.00  0.00    +0.000 A 
ATOM     12  C   UNL     1     -26.996  -0.542 -48.273  0.00  0.00    +0.000 A 
ATOM     13  C   UNL     1     -25.430   1.111 -46.665  0.00  0.00    +0.000 A 
ATOM     14  C   UNL     1     -27.424  -0.217 -46.985  0.00  0.00    +0.000 A 
ATOM     15  C   UNL     1     -26.640   0.611 -46.188  0.00  0.00    +0.000 A 
ENDBRANCH   5  10
BRANCH   4  17
ATOM     16  N   UNL     1     -26.558   2.537 -51.111  0.00  0.00    +0.000 NA
ATOM     17  C   UNL     1     -25.390   1.993 -51.244  0.00  0.00    +0.000 C 
BRANCH  16  18
ATOM     18  O   UNL     1     -26.413   3.938 -51.170  0.00  0.00    +0.000 OA
BRANCH  18  19
ATOM     19  C   UNL     1     -25.021   4.264 -51.126  0.00  0.00    +0.000 C 
BRANCH  19  22
ATOM     20 CL   UNL     1     -23.165   6.787 -51.369  0.00  0.00    +0.000 Cl
ATOM     21 CL   UNL     1     -23.943   7.455 -46.107  0.00  0.00    +0.000 Cl
ATOM     22  C   UNL     1     -24.725   5.082 -49.891  0.00  0.00    +0.000 A 
ATOM     23  C   UNL     1     -23.907   6.224 -49.912  0.00  0.00    +0.000 A 
ATOM     24  C   UNL     1     -25.305   4.703 -48.665  0.00  0.00    +0.000 A 
ATOM     25  C   UNL     1     -23.658   6.952 -48.743  0.00  0.00    +0.000 A 
ATOM     26  C   UNL     1     -25.065   5.435 -47.499  0.00  0.00    +0.000 A 
ATOM     27  C   UNL     1     -24.240   6.555 -47.543  0.00  0.00    +0.000 A 
ENDBRANCH  19  22
ENDBRANCH  18  19
ENDBRANCH  16  18
ENDBRANCH   4  17
TORSDOF 5
ENDMDL
MODEL 10
REMARK VINA RESULT:      -4.9     18.606     20.866
REMARK  Name = 9628790
REMARK  5 active torsions:
REMARK  status: ('A' for Active; 'I' for Inactive)
REMARK    1  A    between atoms: O_5  and  N_8
REMARK    2  A    between atoms: O_5  and  C_21
REMARK    3  A    between atoms: C_9  and  C_14
REMARK    4  A    between atoms: C_10  and  C_12
REMARK    5  A    between atoms: C_20  and  C_21
REMARK                            x       y       z     vdW  Elec       q    Type
REMARK                         _______ _______ _______ _____ _____    ______ ____
ROOT
ATOM      1  S   UNL     1      -4.744  -1.913 -53.256  0.00  0.00    +0.000 S 
ATOM      2  N   UNL     1      -4.897  -0.662 -55.495  0.00  0.00    +0.000 N 
ATOM      3  N   UNL     1      -4.273   0.776 -53.905  0.00  0.00    +0.000 NA
ATOM      4  C   UNL     1      -4.730   0.528 -56.154  0.00  0.00    +0.000 A 
ATOM      5  C   UNL     1      -4.374   1.415 -55.130  0.00  0.00    +0.000 A 
ATOM      6  C   UNL     1      -4.607  -0.449 -54.179  0.00  0.00    +0.000 A 
ATOM      7  C   UNL     1      -5.224  -1.963 -55.819  0.00  0.00    +0.000 A 
ATOM      8  C   UNL     1      -5.193  -2.765 -54.741  0.00  0.00    +0.000 A 
ENDROOT
BRANCH   5  10
ATOM      9 CL   UNL     1      -3.355   7.275 -55.746  0.00  0.00    +0.000 Cl
ATOM     10  C   UNL     1      -4.131   2.845 -55.264  0.00  0.00    +0.000 A 
ATOM     11  C   UNL     1      -3.090   3.298 -56.088  0.00  0.00    +0.000 A 
ATOM     12  C   UNL     1      -4.894   3.788 -54.560  0.00  0.00    +0.000 A 
ATOM     13  C   UNL     1      -2.849   4.668 -56.238  0.00  0.00    +0.000 A 
ATOM     14  C   UNL     1      -4.662   5.156 -54.716  0.00  0.00    +0.000 A 
ATOM     15  C   UNL     1      -3.642   5.589 -55.558  0.00  0.00    +0.000 A 
ENDBRANCH   5  10
BRANCH   4  17
ATOM     16  N   UNL     1      -3.908   0.455 -58.388  0.00  0.00    +0.000 NA
ATOM     17  C   UNL     1      -4.866   0.741 -57.564  0.00  0.00    +0.000 C 
BRANCH  16  18
ATOM     18  O   UNL     1      -4.338   0.744 -59.700  0.00  0.00    +0.000 OA
BRANCH  18  19
ATOM     19  C   UNL     1      -5.681   1.236 -59.650  0.00  0.00    +0.000 C 
BRANCH  19  22
ATOM     20 CL   UNL     1      -5.523   4.208 -58.646  0.00  0.00    +0.000 Cl
ATOM     21 CL   UNL     1      -6.356   5.628 -63.748  0.00  0.00    +0.000 Cl
ATOM     22  C   UNL     1      -5.851   2.360 -60.646  0.00  0.00    +0.000 A 
ATOM     23  C   UNL     1      -5.793   3.716 -60.281  0.00  0.00    +0.000 A 
ATOM     24  C   UNL     1      -6.056   2.045 -62.003  0.00  0.00    +0.000 A 
ATOM     25  C   UNL     1      -5.958   4.725 -61.236  0.00  0.00    +0.000 A 
ATOM     26  C   UNL     1      -6.211   3.053 -62.959  0.00  0.00    +0.000 A 
ATOM     27  C   UNL     1      -6.164   4.388 -62.571  0.00  0.00    +0.000 A 
ENDBRANCH  19  22
ENDBRANCH  18  19
ENDBRANCH  16  18
ENDBRANCH   4  17
TORSDOF 5
ENDMDL
