MODEL 1
REMARK VINA RESULT:      -5.7      0.000      0.000
REMARK  Name = 9628525
REMARK  5 active torsions:
REMARK  status: ('A' for Active; 'I' for Inactive)
REMARK    1  A    between atoms: O_5  and  N_8
REMARK    2  A    between atoms: O_5  and  C_21
REMARK    3  A    between atoms: C_9  and  C_14
REMARK    4  A    between atoms: C_10  and  C_12
REMARK    5  A    between atoms: C_20  and  C_21
REMARK                            x       y       z     vdW  Elec       q    Type
REMARK                         _______ _______ _______ _____ _____    ______ ____
ROOT
ATOM      1  S   UNL     1       0.032 -16.288   3.474  0.00  0.00    +0.000 S 
ATOM      2  N   UNL     1       1.154 -15.241   1.417  0.00  0.00    +0.000 N 
ATOM      3  N   UNL     1       2.367 -16.990   2.080  0.00  0.00    +0.000 NA
ATOM      4  C   UNL     1       2.214 -15.274   0.545  0.00  0.00    +0.000 A 
ATOM      5  C   UNL     1       2.947 -16.392   0.964  0.00  0.00    +0.000 A 
ATOM      6  C   UNL     1       1.309 -16.266   2.298  0.00  0.00    +0.000 A 
ATOM      7  C   UNL     1       0.049 -14.443   1.632  0.00  0.00    +0.000 A 
ATOM      8  C   UNL     1      -0.665 -14.860   2.692  0.00  0.00    +0.000 A 
ENDROOT
BRANCH   5  10
ATOM      9 CL   UNL     1       7.864 -18.741  -1.519  0.00  0.00    +0.000 Cl
ATOM     10  C   UNL     1       4.165 -16.936   0.371  0.00  0.00    +0.000 A 
ATOM     11  C   UNL     1       5.375 -17.004   1.076  0.00  0.00    +0.000 A 
ATOM     12  C   UNL     1       4.142 -17.381  -0.957  0.00  0.00    +0.000 A 
ATOM     13  C   UNL     1       6.514 -17.570   0.498  0.00  0.00    +0.000 A 
ATOM     14  C   UNL     1       5.286 -17.932  -1.549  0.00  0.00    +0.000 A 
ATOM     15  C   UNL     1       6.464 -18.035  -0.812  0.00  0.00    +0.000 A 
ENDBRANCH   5  10
BRANCH   4  17
ATOM     16  N   UNL     1       1.946 -14.477  -1.672  0.00  0.00    +0.000 NA
ATOM     17  C   UNL     1       2.424 -14.300  -0.486  0.00  0.00    +0.000 C 
BRANCH  16  18
ATOM     18  O   UNL     1       2.270 -13.373  -2.475  0.00  0.00    +0.000 OA
BRANCH  18  19
ATOM     19  C   UNL     1       1.144 -13.074  -3.306  0.00  0.00    +0.000 C 
BRANCH  19  22
ATOM     20 CL   UNL     1       1.738 -10.205  -4.405  0.00  0.00    +0.000 Cl
ATOM     21 CL   UNL     1       1.491 -15.674  -4.960  0.00  0.00    +0.000 Cl
ATOM     22  C   UNL     1       1.624 -12.937  -4.728  0.00  0.00    +0.000 A 
ATOM     23  C   UNL     1       1.935 -11.682  -5.284  0.00  0.00    +0.000 A 
ATOM     24  C   UNL     1       1.832 -14.075  -5.529  0.00  0.00    +0.000 A 
ATOM     25  C   UNL     1       2.429 -11.574  -6.592  0.00  0.00    +0.000 A 
ATOM     26  C   UNL     1       2.332 -13.963  -6.833  0.00  0.00    +0.000 A 
ATOM     27  C   UNL     1       2.632 -12.714  -7.364  0.00  0.00    +0.000 A 
ENDBRANCH  19  22
ENDBRANCH  18  19
ENDBRANCH  16  18
ENDBRANCH   4  17
TORSDOF 5
ENDMDL
MODEL 2
REMARK VINA RESULT:      -5.7      2.308      3.565
REMARK  Name = 9628525
REMARK  5 active torsions:
REMARK  status: ('A' for Active; 'I' for Inactive)
REMARK    1  A    between atoms: O_5  and  N_8
REMARK    2  A    between atoms: O_5  and  C_21
REMARK    3  A    between atoms: C_9  and  C_14
REMARK    4  A    between atoms: C_10  and  C_12
REMARK    5  A    between atoms: C_20  and  C_21
REMARK                            x       y       z     vdW  Elec       q    Type
REMARK                         _______ _______ _______ _____ _____    ______ ____
ROOT
ATOM      1  S   UNL     1      -3.614 -13.962   2.764  0.00  0.00    +0.000 S 
ATOM      2  N   UNL     1      -2.074 -13.768   0.720  0.00  0.00    +0.000 N 
ATOM      3  N   UNL     1      -0.888 -14.555   2.435  0.00  0.00    +0.000 NA
ATOM      4  C   UNL     1      -0.805 -13.915   0.219  0.00  0.00    +0.000 A 
ATOM      5  C   UNL     1      -0.084 -14.432   1.304  0.00  0.00    +0.000 A 
ATOM      6  C   UNL     1      -2.054 -14.149   2.025  0.00  0.00    +0.000 A 
ATOM      7  C   UNL     1      -3.294 -13.316   0.259  0.00  0.00    +0.000 A 
ATOM      8  C   UNL     1      -4.233 -13.352   1.220  0.00  0.00    +0.000 A 
ENDROOT
BRANCH   5  10
ATOM      9 CL   UNL     1       5.685 -16.036   1.299  0.00  0.00    +0.000 Cl
ATOM     10  C   UNL     1       1.321 -14.824   1.339  0.00  0.00    +0.000 A 
ATOM     11  C   UNL     1       1.785 -15.874   2.145  0.00  0.00    +0.000 A 
ATOM     12  C   UNL     1       2.251 -14.114   0.570  0.00  0.00    +0.000 A 
ATOM     13  C   UNL     1       3.129 -16.256   2.124  0.00  0.00    +0.000 A 
ATOM     14  C   UNL     1       3.604 -14.479   0.560  0.00  0.00    +0.000 A 
ATOM     15  C   UNL     1       4.033 -15.558   1.330  0.00  0.00    +0.000 A 
ENDBRANCH   5  10
BRANCH   4  17
ATOM     16  N   UNL     1      -0.407 -14.420  -2.064  0.00  0.00    +0.000 NA
ATOM     17  C   UNL     1      -0.429 -13.546  -1.114  0.00  0.00    +0.000 C 
BRANCH  16  18
ATOM     18  O   UNL     1      -0.033 -13.797  -3.264  0.00  0.00    +0.000 OA
BRANCH  18  19
ATOM     19  C   UNL     1       1.270 -13.231  -3.090  0.00  0.00    +0.000 C 
BRANCH  19  22
ATOM     20 CL   UNL     1       2.520 -15.882  -4.187  0.00  0.00    +0.000 Cl
ATOM     21 CL   UNL     1       1.345 -10.522  -4.596  0.00  0.00    +0.000 Cl
ATOM     22  C   UNL     1       1.957 -13.198  -4.430  0.00  0.00    +0.000 A 
ATOM     23  C   UNL     1       2.521 -14.355  -4.999  0.00  0.00    +0.000 A 
ATOM     24  C   UNL     1       2.005 -12.010  -5.184  0.00  0.00    +0.000 A 
ATOM     25  C   UNL     1       3.113 -14.320  -6.270  0.00  0.00    +0.000 A 
ATOM     26  C   UNL     1       2.592 -11.981  -6.455  0.00  0.00    +0.000 A 
ATOM     27  C   UNL     1       3.144 -13.136  -7.000  0.00  0.00    +0.000 A 
ENDBRANCH  19  22
ENDBRANCH  18  19
ENDBRANCH  16  18
ENDBRANCH   4  17
TORSDOF 5
ENDMDL
MODEL 3
REMARK VINA RESULT:      -5.7      0.746      2.149
REMARK  Name = 9628525
REMARK  5 active torsions:
REMARK  status: ('A' for Active; 'I' for Inactive)
REMARK    1  A    between atoms: O_5  and  N_8
REMARK    2  A    between atoms: O_5  and  C_21
REMARK    3  A    between atoms: C_9  and  C_14
REMARK    4  A    between atoms: C_10  and  C_12
REMARK    5  A    between atoms: C_20  and  C_21
REMARK                            x       y       z     vdW  Elec       q    Type
REMARK                         _______ _______ _______ _____ _____    ______ ____
ROOT
ATOM      1  S   UNL     1      -0.903 -15.683   3.552  0.00  0.00    +0.000 S 
ATOM      2  N   UNL     1       0.434 -14.782   1.555  0.00  0.00    +0.000 N 
ATOM      3  N   UNL     1       1.589 -16.439   2.499  0.00  0.00    +0.000 NA
ATOM      4  C   UNL     1       1.588 -14.860   0.816  0.00  0.00    +0.000 A 
ATOM      5  C   UNL     1       2.285 -15.921   1.409  0.00  0.00    +0.000 A 
ATOM      6  C   UNL     1       0.502 -15.726   2.532  0.00  0.00    +0.000 A 
ATOM      7  C   UNL     1      -0.700 -13.997   1.574  0.00  0.00    +0.000 A 
ATOM      8  C   UNL     1      -1.526 -14.342   2.577  0.00  0.00    +0.000 A 
ENDROOT
BRANCH   5  10
ATOM      9 CL   UNL     1       7.631 -18.117  -0.158  0.00  0.00    +0.000 Cl
ATOM     10  C   UNL     1       3.571 -16.482   1.008  0.00  0.00    +0.000 A 
ATOM     11  C   UNL     1       3.852 -16.837  -0.320  0.00  0.00    +0.000 A 
ATOM     12  C   UNL     1       4.555 -16.707   1.979  0.00  0.00    +0.000 A 
ATOM     13  C   UNL     1       5.107 -17.331  -0.682  0.00  0.00    +0.000 A 
ATOM     14  C   UNL     1       5.810 -17.220   1.625  0.00  0.00    +0.000 A 
ATOM     15  C   UNL     1       6.082 -17.518   0.292  0.00  0.00    +0.000 A 
ENDBRANCH   5  10
BRANCH   4  17
ATOM     16  N   UNL     1       1.573 -14.259  -1.478  0.00  0.00    +0.000 NA
ATOM     17  C   UNL     1       1.901 -13.970  -0.264  0.00  0.00    +0.000 C 
BRANCH  16  18
ATOM     18  O   UNL     1       1.970 -13.217  -2.330  0.00  0.00    +0.000 OA
BRANCH  18  19
ATOM     19  C   UNL     1       0.935 -13.008  -3.297  0.00  0.00    +0.000 C 
BRANCH  19  22
ATOM     20 CL   UNL     1       1.343 -15.677  -4.878  0.00  0.00    +0.000 Cl
ATOM     21 CL   UNL     1       1.743 -10.213  -4.370  0.00  0.00    +0.000 Cl
ATOM     22  C   UNL     1       1.567 -12.942  -4.663  0.00  0.00    +0.000 A 
ATOM     23  C   UNL     1       1.760 -14.097  -5.443  0.00  0.00    +0.000 A 
ATOM     24  C   UNL     1       1.933 -11.705  -5.227  0.00  0.00    +0.000 A 
ATOM     25  C   UNL     1       2.303 -14.015  -6.733  0.00  0.00    +0.000 A 
ATOM     26  C   UNL     1       2.469 -11.627  -6.518  0.00  0.00    +0.000 A 
ATOM     27  C   UNL     1       2.653 -12.781  -7.273  0.00  0.00    +0.000 A 
ENDBRANCH  19  22
ENDBRANCH  18  19
ENDBRANCH  16  18
ENDBRANCH   4  17
TORSDOF 5
ENDMDL
MODEL 4
REMARK VINA RESULT:      -5.7     42.680     44.484
REMARK  Name = 9628525
REMARK  5 active torsions:
REMARK  status: ('A' for Active; 'I' for Inactive)
REMARK    1  A    between atoms: O_5  and  N_8
REMARK    2  A    between atoms: O_5  and  C_21
REMARK    3  A    between atoms: C_9  and  C_14
REMARK    4  A    between atoms: C_10  and  C_12
REMARK    5  A    between atoms: C_20  and  C_21
REMARK                            x       y       z     vdW  Elec       q    Type
REMARK                         _______ _______ _______ _____ _____    ______ ____
ROOT
ATOM      1  S   UNL     1      -5.829 -11.190  39.750  0.00  0.00    +0.000 S 
ATOM      2  N   UNL     1      -6.441  -8.714  39.462  0.00  0.00    +0.000 N 
ATOM      3  N   UNL     1      -4.397  -8.848  40.342  0.00  0.00    +0.000 NA
ATOM      4  C   UNL     1      -6.061  -7.408  39.643  0.00  0.00    +0.000 A 
ATOM      5  C   UNL     1      -4.768  -7.515  40.173  0.00  0.00    +0.000 A 
ATOM      6  C   UNL     1      -5.428  -9.508  39.902  0.00  0.00    +0.000 A 
ATOM      7  C   UNL     1      -7.557  -9.386  39.004  0.00  0.00    +0.000 A 
ATOM      8  C   UNL     1      -7.402 -10.719  39.085  0.00  0.00    +0.000 A 
ENDROOT
BRANCH   5  10
ATOM      9 CL   UNL     1      -1.133  -2.998  41.667  0.00  0.00    +0.000 Cl
ATOM     10  C   UNL     1      -3.854  -6.434  40.526  0.00  0.00    +0.000 A 
ATOM     11  C   UNL     1      -2.831  -6.007  39.666  0.00  0.00    +0.000 A 
ATOM     12  C   UNL     1      -3.973  -5.815  41.776  0.00  0.00    +0.000 A 
ATOM     13  C   UNL     1      -1.999  -4.940  40.012  0.00  0.00    +0.000 A 
ATOM     14  C   UNL     1      -3.128  -4.757  42.138  0.00  0.00    +0.000 A 
ATOM     15  C   UNL     1      -2.152  -4.318  41.246  0.00  0.00    +0.000 A 
ENDBRANCH   5  10
BRANCH   4  17
ATOM     16  N   UNL     1      -7.870  -5.961  40.151  0.00  0.00    +0.000 NA
ATOM     17  C   UNL     1      -6.907  -6.287  39.355  0.00  0.00    +0.000 C 
BRANCH  16  18
ATOM     18  O   UNL     1      -8.521  -4.822  39.653  0.00  0.00    +0.000 OA
BRANCH  18  19
ATOM     19  C   UNL     1      -8.491  -3.809  40.665  0.00  0.00    +0.000 C 
BRANCH  19  22
ATOM     20 CL   UNL     1     -10.115  -1.708  39.010  0.00  0.00    +0.000 Cl
ATOM     21 CL   UNL     1      -9.619  -5.337  43.116  0.00  0.00    +0.000 Cl
ATOM     22  C   UNL     1      -9.908  -3.510  41.080  0.00  0.00    +0.000 A 
ATOM     23  C   UNL     1     -10.708  -2.596  40.371  0.00  0.00    +0.000 A 
ATOM     24  C   UNL     1     -10.497  -4.187  42.166  0.00  0.00    +0.000 A 
ATOM     25  C   UNL     1     -12.041  -2.365  40.739  0.00  0.00    +0.000 A 
ATOM     26  C   UNL     1     -11.830  -3.958  42.526  0.00  0.00    +0.000 A 
ATOM     27  C   UNL     1     -12.604  -3.049  41.812  0.00  0.00    +0.000 A 
ENDBRANCH  19  22
ENDBRANCH  18  19
ENDBRANCH  16  18
ENDBRANCH   4  17
TORSDOF 5
ENDMDL
MODEL 5
REMARK VINA RESULT:      -5.5      2.567      3.484
REMARK  Name = 9628525
REMARK  5 active torsions:
REMARK  status: ('A' for Active; 'I' for Inactive)
REMARK    1  A    between atoms: O_5  and  N_8
REMARK    2  A    between atoms: O_5  and  C_21
REMARK    3  A    between atoms: C_9  and  C_14
REMARK    4  A    between atoms: C_10  and  C_12
REMARK    5  A    between atoms: C_20  and  C_21
REMARK                            x       y       z     vdW  Elec       q    Type
REMARK                         _______ _______ _______ _____ _____    ______ ____
ROOT
ATOM      1  S   UNL     1      -4.291 -14.357   2.513  0.00  0.00    +0.000 S 
ATOM      2  N   UNL     1      -2.644 -13.973   0.583  0.00  0.00    +0.000 N 
ATOM      3  N   UNL     1      -1.520 -14.775   2.334  0.00  0.00    +0.000 NA
ATOM      4  C   UNL     1      -1.339 -14.022   0.159  0.00  0.00    +0.000 A 
ATOM      5  C   UNL     1      -0.657 -14.550   1.263  0.00  0.00    +0.000 A 
ATOM      6  C   UNL     1      -2.680 -14.417   1.869  0.00  0.00    +0.000 A 
ATOM      7  C   UNL     1      -3.858 -13.569   0.067  0.00  0.00    +0.000 A 
ATOM      8  C   UNL     1      -4.850 -13.707   0.963  0.00  0.00    +0.000 A 
ENDROOT
BRANCH   5  10
ATOM      9 CL   UNL     1       5.152 -15.885   1.839  0.00  0.00    +0.000 Cl
ATOM     10  C   UNL     1       0.765 -14.862   1.370  0.00  0.00    +0.000 A 
ATOM     11  C   UNL     1       1.762 -13.948   1.000  0.00  0.00    +0.000 A 
ATOM     12  C   UNL     1       1.157 -16.127   1.828  0.00  0.00    +0.000 A 
ATOM     13  C   UNL     1       3.115 -14.259   1.155  0.00  0.00    +0.000 A 
ATOM     14  C   UNL     1       2.513 -16.451   1.967  0.00  0.00    +0.000 A 
ATOM     15  C   UNL     1       3.486 -15.508   1.640  0.00  0.00    +0.000 A 
ENDBRANCH   5  10
BRANCH   4  17
ATOM     16  N   UNL     1      -0.301 -14.362  -1.945  0.00  0.00    +0.000 NA
ATOM     17  C   UNL     1      -0.905 -13.566  -1.128  0.00  0.00    +0.000 C 
BRANCH  16  18
ATOM     18  O   UNL     1      -0.009 -13.677  -3.135  0.00  0.00    +0.000 OA
BRANCH  18  19
ATOM     19  C   UNL     1       1.344 -13.213  -3.067  0.00  0.00    +0.000 C 
BRANCH  19  22
ATOM     20 CL   UNL     1       1.431 -10.431  -4.496  0.00  0.00    +0.000 Cl
ATOM     21 CL   UNL     1       2.334 -15.857  -4.349  0.00  0.00    +0.000 Cl
ATOM     22  C   UNL     1       1.894 -13.144  -4.467  0.00  0.00    +0.000 A 
ATOM     23  C   UNL     1       1.987 -11.926  -5.165  0.00  0.00    +0.000 A 
ATOM     24  C   UNL     1       2.388 -14.299  -5.103  0.00  0.00    +0.000 A 
ATOM     25  C   UNL     1       2.548 -11.869  -6.448  0.00  0.00    +0.000 A 
ATOM     26  C   UNL     1       2.954 -14.237  -6.383  0.00  0.00    +0.000 A 
ATOM     27  C   UNL     1       3.036 -13.023  -7.055  0.00  0.00    +0.000 A 
ENDBRANCH  19  22
ENDBRANCH  18  19
ENDBRANCH  16  18
ENDBRANCH   4  17
TORSDOF 5
ENDMDL
MODEL 6
REMARK VINA RESULT:      -5.4     44.676     45.759
REMARK  Name = 9628525
REMARK  5 active torsions:
REMARK  status: ('A' for Active; 'I' for Inactive)
REMARK    1  A    between atoms: O_5  and  N_8
REMARK    2  A    between atoms: O_5  and  C_21
REMARK    3  A    between atoms: C_9  and  C_14
REMARK    4  A    between atoms: C_10  and  C_12
REMARK    5  A    between atoms: C_20  and  C_21
REMARK                            x       y       z     vdW  Elec       q    Type
REMARK                         _______ _______ _______ _____ _____    ______ ____
ROOT
ATOM      1  S   UNL     1      -0.653   9.606  37.212  0.00  0.00    +0.000 S 
ATOM      2  N   UNL     1      -1.798  11.357  35.726  0.00  0.00    +0.000 N 
ATOM      3  N   UNL     1       0.410  11.555  35.492  0.00  0.00    +0.000 NA
ATOM      4  C   UNL     1      -1.639  12.403  34.852  0.00  0.00    +0.000 A 
ATOM      5  C   UNL     1      -0.249  12.494  34.701  0.00  0.00    +0.000 A 
ATOM      6  C   UNL     1      -0.560  10.912  36.072  0.00  0.00    +0.000 A 
ATOM      7  C   UNL     1      -2.849  10.705  36.338  0.00  0.00    +0.000 A 
ATOM      8  C   UNL     1      -2.419   9.737  37.166  0.00  0.00    +0.000 A 
ENDROOT
BRANCH   5  10
ATOM      9 CL   UNL     1       2.736  16.372  31.250  0.00  0.00    +0.000 Cl
ATOM     10  C   UNL     1       0.500  13.412  33.849  0.00  0.00    +0.000 A 
ATOM     11  C   UNL     1       0.841  13.096  32.526  0.00  0.00    +0.000 A 
ATOM     12  C   UNL     1       0.925  14.640  34.371  0.00  0.00    +0.000 A 
ATOM     13  C   UNL     1       1.521  14.013  31.720  0.00  0.00    +0.000 A 
ATOM     14  C   UNL     1       1.624  15.556  33.574  0.00  0.00    +0.000 A 
ATOM     15  C   UNL     1       1.908  15.241  32.247  0.00  0.00    +0.000 A 
ENDBRANCH   5  10
BRANCH   4  17
ATOM     16  N   UNL     1      -3.084  13.053  33.087  0.00  0.00    +0.000 NA
ATOM     17  C   UNL     1      -2.729  13.169  34.323  0.00  0.00    +0.000 C 
BRANCH  16  18
ATOM     18  O   UNL     1      -4.184  13.887  32.837  0.00  0.00    +0.000 OA
BRANCH  18  19
ATOM     19  C   UNL     1      -4.196  14.208  31.442  0.00  0.00    +0.000 C 
BRANCH  19  22
ATOM     20 CL   UNL     1      -1.642  15.977  31.821  0.00  0.00    +0.000 Cl
ATOM     21 CL   UNL     1      -7.007  15.336  30.775  0.00  0.00    +0.000 Cl
ATOM     22  C   UNL     1      -4.331  15.702  31.298  0.00  0.00    +0.000 A 
ATOM     23  C   UNL     1      -3.224  16.559  31.431  0.00  0.00    +0.000 A 
ATOM     24  C   UNL     1      -5.570  16.283  30.968  0.00  0.00    +0.000 A 
ATOM     25  C   UNL     1      -3.355  17.943  31.245  0.00  0.00    +0.000 A 
ATOM     26  C   UNL     1      -5.696  17.665  30.777  0.00  0.00    +0.000 A 
ATOM     27  C   UNL     1      -4.588  18.495  30.914  0.00  0.00    +0.000 A 
ENDBRANCH  19  22
ENDBRANCH  18  19
ENDBRANCH  16  18
ENDBRANCH   4  17
TORSDOF 5
ENDMDL
MODEL 7
REMARK VINA RESULT:      -5.3     45.507     46.366
REMARK  Name = 9628525
REMARK  5 active torsions:
REMARK  status: ('A' for Active; 'I' for Inactive)
REMARK    1  A    between atoms: O_5  and  N_8
REMARK    2  A    between atoms: O_5  and  C_21
REMARK    3  A    between atoms: C_9  and  C_14
REMARK    4  A    between atoms: C_10  and  C_12
REMARK    5  A    between atoms: C_20  and  C_21
REMARK                            x       y       z     vdW  Elec       q    Type
REMARK                         _______ _______ _______ _____ _____    ______ ____
ROOT
ATOM      1  S   UNL     1       0.165  13.248  35.218  0.00  0.00    +0.000 S 
ATOM      2  N   UNL     1      -1.757  11.640  35.775  0.00  0.00    +0.000 N 
ATOM      3  N   UNL     1       0.084  10.942  36.819  0.00  0.00    +0.000 NA
ATOM      4  C   UNL     1      -2.147  10.498  36.427  0.00  0.00    +0.000 A 
ATOM      5  C   UNL     1      -0.984  10.091  37.095  0.00  0.00    +0.000 A 
ATOM      6  C   UNL     1      -0.437  11.839  36.035  0.00  0.00    +0.000 A 
ATOM      7  C   UNL     1      -2.335  12.567  34.931  0.00  0.00    +0.000 A 
ATOM      8  C   UNL     1      -1.452  13.500  34.538  0.00  0.00    +0.000 A 
ENDROOT
BRANCH   5  10
ATOM      9 CL   UNL     1      -0.175   5.453  40.795  0.00  0.00    +0.000 Cl
ATOM     10  C   UNL     1      -0.818   8.946  37.985  0.00  0.00    +0.000 A 
ATOM     11  C   UNL     1      -1.025   7.627  37.555  0.00  0.00    +0.000 A 
ATOM     12  C   UNL     1      -0.472   9.163  39.324  0.00  0.00    +0.000 A 
ATOM     13  C   UNL     1      -0.815   6.548  38.418  0.00  0.00    +0.000 A 
ATOM     14  C   UNL     1      -0.279   8.086  40.200  0.00  0.00    +0.000 A 
ATOM     15  C   UNL     1      -0.441   6.782  39.737  0.00  0.00    +0.000 A 
ENDBRANCH   5  10
BRANCH   4  17
ATOM     16  N   UNL     1      -4.430  10.380  37.059  0.00  0.00    +0.000 NA
ATOM     17  C   UNL     1      -3.462   9.936  36.329  0.00  0.00    +0.000 C 
BRANCH  16  18
ATOM     18  O   UNL     1      -5.607   9.681  36.750  0.00  0.00    +0.000 OA
BRANCH  18  19
ATOM     19  C   UNL     1      -6.718  10.562  36.947  0.00  0.00    +0.000 C 
BRANCH  19  22
ATOM     20 CL   UNL     1      -9.011   8.446  36.711  0.00  0.00    +0.000 Cl
ATOM     21 CL   UNL     1      -6.065  12.666  34.764  0.00  0.00    +0.000 Cl
ATOM     22  C   UNL     1      -7.559  10.553  35.697  0.00  0.00    +0.000 A 
ATOM     23  C   UNL     1      -8.622   9.647  35.529  0.00  0.00    +0.000 A 
ATOM     24  C   UNL     1      -7.339  11.497  34.675  0.00  0.00    +0.000 A 
ATOM     25  C   UNL     1      -9.428   9.684  34.382  0.00  0.00    +0.000 A 
ATOM     26  C   UNL     1      -8.150  11.534  33.534  0.00  0.00    +0.000 A 
ATOM     27  C   UNL     1      -9.196  10.629  33.388  0.00  0.00    +0.000 A 
ENDBRANCH  19  22
ENDBRANCH  18  19
ENDBRANCH  16  18
ENDBRANCH   4  17
TORSDOF 5
ENDMDL
MODEL 8
REMARK VINA RESULT:      -5.3     33.962     35.933
REMARK  Name = 9628525
REMARK  5 active torsions:
REMARK  status: ('A' for Active; 'I' for Inactive)
REMARK    1  A    between atoms: O_5  and  N_8
REMARK    2  A    between atoms: O_5  and  C_21
REMARK    3  A    between atoms: C_9  and  C_14
REMARK    4  A    between atoms: C_10  and  C_12
REMARK    5  A    between atoms: C_20  and  C_21
REMARK                            x       y       z     vdW  Elec       q    Type
REMARK                         _______ _______ _______ _____ _____    ______ ____
ROOT
ATOM      1  S   UNL     1     -11.044  13.863  11.026  0.00  0.00    +0.000 S 
ATOM      2  N   UNL     1     -11.342  13.205  13.489  0.00  0.00    +0.000 N 
ATOM      3  N   UNL     1      -9.383  14.244  13.258  0.00  0.00    +0.000 NA
ATOM      4  C   UNL     1     -10.796  13.190  14.748  0.00  0.00    +0.000 A 
ATOM      5  C   UNL     1      -9.581  13.868  14.585  0.00  0.00    +0.000 A 
ATOM      6  C   UNL     1     -10.460  13.827  12.660  0.00  0.00    +0.000 A 
ATOM      7  C   UNL     1     -12.488  12.736  12.880  0.00  0.00    +0.000 A 
ATOM      8  C   UNL     1     -12.496  13.002  11.563  0.00  0.00    +0.000 A 
ENDROOT
BRANCH   5  10
ATOM      9 CL   UNL     1      -5.542  15.326  18.758  0.00  0.00    +0.000 Cl
ATOM     10  C   UNL     1      -8.591  14.188  15.608  0.00  0.00    +0.000 A 
ATOM     11  C   UNL     1      -7.357  13.527  15.690  0.00  0.00    +0.000 A 
ATOM     12  C   UNL     1      -8.887  15.165  16.567  0.00  0.00    +0.000 A 
ATOM     13  C   UNL     1      -6.411  13.885  16.654  0.00  0.00    +0.000 A 
ATOM     14  C   UNL     1      -7.950  15.516  17.548  0.00  0.00    +0.000 A 
ATOM     15  C   UNL     1      -6.711  14.880  17.578  0.00  0.00    +0.000 A 
ENDBRANCH   5  10
BRANCH   4  17
ATOM     16  N   UNL     1     -11.444  11.268  15.977  0.00  0.00    +0.000 NA
ATOM     17  C   UNL     1     -11.415  12.555  15.874  0.00  0.00    +0.000 C 
BRANCH  16  18
ATOM     18  O   UNL     1     -12.079  10.909  17.176  0.00  0.00    +0.000 OA
BRANCH  18  19
ATOM     19  C   UNL     1     -11.080  10.770  18.191  0.00  0.00    +0.000 C 
BRANCH  19  22
ATOM     20 CL   UNL     1     -10.475   7.900  17.101  0.00  0.00    +0.000 Cl
ATOM     21 CL   UNL     1     -12.368  11.344  20.952  0.00  0.00    +0.000 Cl
ATOM     22  C   UNL     1     -11.438   9.587  19.052  0.00  0.00    +0.000 A 
ATOM     23  C   UNL     1     -11.174   8.268  18.640  0.00  0.00    +0.000 A 
ATOM     24  C   UNL     1     -12.000   9.771  20.330  0.00  0.00    +0.000 A 
ATOM     25  C   UNL     1     -11.467   7.178  19.473  0.00  0.00    +0.000 A 
ATOM     26  C   UNL     1     -12.285   8.681  21.161  0.00  0.00    +0.000 A 
ATOM     27  C   UNL     1     -12.017   7.385  20.734  0.00  0.00    +0.000 A 
ENDBRANCH  19  22
ENDBRANCH  18  19
ENDBRANCH  16  18
ENDBRANCH   4  17
TORSDOF 5
ENDMDL
MODEL 9
REMARK VINA RESULT:      -5.1     23.081     24.660
REMARK  Name = 9628525
REMARK  5 active torsions:
REMARK  status: ('A' for Active; 'I' for Inactive)
REMARK    1  A    between atoms: O_5  and  N_8
REMARK    2  A    between atoms: O_5  and  C_21
REMARK    3  A    between atoms: C_9  and  C_14
REMARK    4  A    between atoms: C_10  and  C_12
REMARK    5  A    between atoms: C_20  and  C_21
REMARK                            x       y       z     vdW  Elec       q    Type
REMARK                         _______ _______ _______ _____ _____    ______ ____
ROOT
ATOM      1  S   UNL     1      13.506  11.562   4.563  0.00  0.00    +0.000 S 
ATOM      2  N   UNL     1      12.558   9.261   3.935  0.00  0.00    +0.000 N 
ATOM      3  N   UNL     1      12.149   9.638   6.094  0.00  0.00    +0.000 NA
ATOM      4  C   UNL     1      11.919   8.126   4.366  0.00  0.00    +0.000 A 
ATOM      5  C   UNL     1      11.650   8.394   5.715  0.00  0.00    +0.000 A 
ATOM      6  C   UNL     1      12.672  10.103   4.998  0.00  0.00    +0.000 A 
ATOM      7  C   UNL     1      13.118   9.719   2.760  0.00  0.00    +0.000 A 
ATOM      8  C   UNL     1      13.669  10.936   2.914  0.00  0.00    +0.000 A 
ENDROOT
BRANCH   5  10
ATOM      9 CL   UNL     1       8.715   5.043   9.716  0.00  0.00    +0.000 Cl
ATOM     10  C   UNL     1      10.945   7.548   6.672  0.00  0.00    +0.000 A 
ATOM     11  C   UNL     1      11.525   6.395   7.222  0.00  0.00    +0.000 A 
ATOM     12  C   UNL     1       9.632   7.871   7.037  0.00  0.00    +0.000 A 
ATOM     13  C   UNL     1      10.842   5.629   8.170  0.00  0.00    +0.000 A 
ATOM     14  C   UNL     1       8.934   7.095   7.972  0.00  0.00    +0.000 A 
ATOM     15  C   UNL     1       9.550   5.983   8.542  0.00  0.00    +0.000 A 
ENDBRANCH   5  10
BRANCH   4  17
ATOM     16  N   UNL     1      10.506   6.741   3.058  0.00  0.00    +0.000 NA
ATOM     17  C   UNL     1      11.681   6.983   3.533  0.00  0.00    +0.000 C 
BRANCH  16  18
ATOM     18  O   UNL     1      10.552   5.588   2.261  0.00  0.00    +0.000 OA
BRANCH  18  19
ATOM     19  C   UNL     1      11.689   5.684   1.396  0.00  0.00    +0.000 C 
BRANCH  19  22
ATOM     20 CL   UNL     1       9.646   6.985  -0.586  0.00  0.00    +0.000 Cl
ATOM     21 CL   UNL     1      13.126   2.985   0.884  0.00  0.00    +0.000 Cl
ATOM     22  C   UNL     1      11.373   4.959   0.113  0.00  0.00    +0.000 A 
ATOM     23  C   UNL     1      10.484   5.493  -0.837  0.00  0.00    +0.000 A 
ATOM     24  C   UNL     1      12.009   3.742  -0.200  0.00  0.00    +0.000 A 
ATOM     25  C   UNL     1      10.238   4.832  -2.049  0.00  0.00    +0.000 A 
ATOM     26  C   UNL     1      11.765   3.088  -1.413  0.00  0.00    +0.000 A 
ATOM     27  C   UNL     1      10.882   3.633  -2.339  0.00  0.00    +0.000 A 
ENDBRANCH  19  22
ENDBRANCH  18  19
ENDBRANCH  16  18
ENDBRANCH   4  17
TORSDOF 5
ENDMDL
MODEL 10
REMARK VINA RESULT:      -5.1     34.647     35.868
REMARK  Name = 9628525
REMARK  5 active torsions:
REMARK  status: ('A' for Active; 'I' for Inactive)
REMARK    1  A    between atoms: O_5  and  N_8
REMARK    2  A    between atoms: O_5  and  C_21
REMARK    3  A    between atoms: C_9  and  C_14
REMARK    4  A    between atoms: C_10  and  C_12
REMARK    5  A    between atoms: C_20  and  C_21
REMARK                            x       y       z     vdW  Elec       q    Type
REMARK                         _______ _______ _______ _____ _____    ______ ____
ROOT
ATOM      1  S   UNL     1      20.451  12.243  22.550  0.00  0.00    +0.000 S 
ATOM      2  N   UNL     1      18.870  10.379  21.770  0.00  0.00    +0.000 N 
ATOM      3  N   UNL     1      20.892   9.504  22.110  0.00  0.00    +0.000 NA
ATOM      4  C   UNL     1      18.730   9.055  21.437  0.00  0.00    +0.000 A 
ATOM      5  C   UNL     1      20.003   8.521  21.681  0.00  0.00    +0.000 A 
ATOM      6  C   UNL     1      20.162  10.580  22.144  0.00  0.00    +0.000 A 
ATOM      7  C   UNL     1      18.073  11.505  21.779  0.00  0.00    +0.000 A 
ATOM      8  C   UNL     1      18.756  12.594  22.173  0.00  0.00    +0.000 A 
ENDROOT
BRANCH   5  10
ATOM      9 CL   UNL     1      21.911   2.874  21.109  0.00  0.00    +0.000 Cl
ATOM     10  C   UNL     1      20.433   7.134  21.539  0.00  0.00    +0.000 A 
ATOM     11  C   UNL     1      19.898   6.280  20.564  0.00  0.00    +0.000 A 
ATOM     12  C   UNL     1      21.391   6.619  22.422  0.00  0.00    +0.000 A 
ATOM     13  C   UNL     1      20.361   4.969  20.423  0.00  0.00    +0.000 A 
ATOM     14  C   UNL     1      21.846   5.299  22.298  0.00  0.00    +0.000 A 
ATOM     15  C   UNL     1      21.336   4.485  21.290  0.00  0.00    +0.000 A 
ENDBRANCH   5  10
BRANCH   4  17
ATOM     16  N   UNL     1      16.507   8.274  21.705  0.00  0.00    +0.000 NA
ATOM     17  C   UNL     1      17.516   8.486  20.929  0.00  0.00    +0.000 C 
BRANCH  16  18
ATOM     18  O   UNL     1      15.446   7.740  20.958  0.00  0.00    +0.000 OA
BRANCH  18  19
ATOM     19  C   UNL     1      14.329   8.629  21.064  0.00  0.00    +0.000 C 
BRANCH  19  22
ATOM     20 CL   UNL     1      12.093   6.617  20.203  0.00  0.00    +0.000 Cl
ATOM     21 CL   UNL     1      15.361  10.946  19.281  0.00  0.00    +0.000 Cl
ATOM     22  C   UNL     1      13.713   8.784  19.698  0.00  0.00    +0.000 A 
ATOM     23  C   UNL     1      12.686   7.933  19.250  0.00  0.00    +0.000 A 
ATOM     24  C   UNL     1      14.111   9.831  18.844  0.00  0.00    +0.000 A 
ATOM     25  C   UNL     1      12.088   8.120  17.997  0.00  0.00    +0.000 A 
ATOM     26  C   UNL     1      13.507  10.018  17.596  0.00  0.00    +0.000 A 
ATOM     27  C   UNL     1      12.493   9.165  17.172  0.00  0.00    +0.000 A 
ENDBRANCH  19  22
ENDBRANCH  18  19
ENDBRANCH  16  18
ENDBRANCH   4  17
TORSDOF 5
ENDMDL
