MODEL 1
REMARK VINA RESULT:      -5.7      0.000      0.000
REMARK  Name = 9632200
REMARK  6 active torsions:
REMARK  status: ('A' for Active; 'I' for Inactive)
REMARK    1  A    between atoms: O_4  and  N_7
REMARK    2  A    between atoms: O_4  and  C_22
REMARK    3  A    between atoms: C_8  and  C_10
REMARK    4  A    between atoms: C_9  and  C_15
REMARK    5  A    between atoms: C_16  and  C_20
REMARK    6  A    between atoms: C_21  and  C_22
REMARK                            x       y       z     vdW  Elec       q    Type
REMARK                         _______ _______ _______ _____ _____    ______ ____
ROOT
ATOM      1  S   UNL     1     -17.734   4.460  24.253  0.00  0.00    +0.000 S 
ATOM      2  N   UNL     1     -16.495   3.324  26.198  0.00  0.00    +0.000 N 
ATOM      3  N   UNL     1     -17.764   4.970  27.019  0.00  0.00    +0.000 NA
ATOM      4  C   UNL     1     -17.053   4.348  28.036  0.00  0.00    +0.000 A 
ATOM      5  C   UNL     1     -16.294   3.278  27.553  0.00  0.00    +0.000 A 
ATOM      6  C   UNL     1     -17.382   4.328  25.952  0.00  0.00    +0.000 A 
ATOM      7  C   UNL     1     -16.067   2.634  25.084  0.00  0.00    +0.000 A 
ATOM      8  C   UNL     1     -16.621   3.108  23.958  0.00  0.00    +0.000 A 
ENDROOT
BRANCH   4   9
ATOM      9  C   UNL     1     -17.098   4.828  29.411  0.00  0.00    +0.000 A 
ATOM     10  C   UNL     1     -17.800   4.106  30.382  0.00  0.00    +0.000 A 
ATOM     11  C   UNL     1     -16.498   6.040  29.787  0.00  0.00    +0.000 A 
ATOM     12  C   UNL     1     -17.226   5.749  32.079  0.00  0.00    +0.000 A 
ATOM     13  C   UNL     1     -17.870   4.564  31.704  0.00  0.00    +0.000 A 
ATOM     14  C   UNL     1     -16.548   6.487  31.106  0.00  0.00    +0.000 A 
ATOM     15  C   UNL     1     -17.331   6.280  33.477  0.00  0.00    +0.000 C 
ENDBRANCH   4   9
BRANCH   5  17
ATOM     16  N   UNL     1     -15.981   1.560  29.143  0.00  0.00    +0.000 NA
ATOM     17  C   UNL     1     -15.472   2.333  28.241  0.00  0.00    +0.000 C 
BRANCH  16  18
ATOM     18  O   UNL     1     -14.988   0.684  29.609  0.00  0.00    +0.000 OA
BRANCH  18  19
ATOM     19  C   UNL     1     -13.838   1.454  29.988  0.00  0.00    +0.000 C 
BRANCH  19  22
ATOM     20 CL   UNL     1     -15.013  -0.046  32.416  0.00  0.00    +0.000 Cl
ATOM     21 CL   UNL     1     -14.509   4.551  35.129  0.00  0.00    +0.000 Cl
ATOM     22  C   UNL     1     -14.086   2.254  31.248  0.00  0.00    +0.000 A 
ATOM     23  C   UNL     1     -14.578   1.629  32.408  0.00  0.00    +0.000 A 
ATOM     24  C   UNL     1     -13.805   3.631  31.307  0.00  0.00    +0.000 A 
ATOM     25  C   UNL     1     -14.726   2.338  33.602  0.00  0.00    +0.000 A 
ATOM     26  C   UNL     1     -13.951   4.342  32.500  0.00  0.00    +0.000 A 
ATOM     27  C   UNL     1     -14.392   3.688  33.646  0.00  0.00    +0.000 A 
ENDBRANCH  19  22
ENDBRANCH  18  19
ENDBRANCH  16  18
ENDBRANCH   5  17
TORSDOF 5
ENDMDL
MODEL 2
REMARK VINA RESULT:      -5.4     18.361     19.948
REMARK  Name = 9632200
REMARK  6 active torsions:
REMARK  status: ('A' for Active; 'I' for Inactive)
REMARK    1  A    between atoms: O_4  and  N_7
REMARK    2  A    between atoms: O_4  and  C_22
REMARK    3  A    between atoms: C_8  and  C_10
REMARK    4  A    between atoms: C_9  and  C_15
REMARK    5  A    between atoms: C_16  and  C_20
REMARK    6  A    between atoms: C_21  and  C_22
REMARK                            x       y       z     vdW  Elec       q    Type
REMARK                         _______ _______ _______ _____ _____    ______ ____
ROOT
ATOM      1  S   UNL     1      -4.697 -12.076  18.966  0.00  0.00    +0.000 S 
ATOM      2  N   UNL     1      -6.494 -10.597  17.877  0.00  0.00    +0.000 N 
ATOM      3  N   UNL     1      -7.448 -11.816  19.489  0.00  0.00    +0.000 NA
ATOM      4  C   UNL     1      -8.392 -11.022  18.854  0.00  0.00    +0.000 A 
ATOM      5  C   UNL     1      -7.809 -10.209  17.877  0.00  0.00    +0.000 A 
ATOM      6  C   UNL     1      -6.345 -11.530  18.858  0.00  0.00    +0.000 A 
ATOM      7  C   UNL     1      -5.344 -10.283  17.186  0.00  0.00    +0.000 A 
ATOM      8  C   UNL     1      -4.287 -10.981  17.631  0.00  0.00    +0.000 A 
ENDROOT
BRANCH   4   9
ATOM      9  C   UNL     1      -9.811 -11.106  19.177  0.00  0.00    +0.000 A 
ATOM     10  C   UNL     1     -10.373 -10.214  20.097  0.00  0.00    +0.000 A 
ATOM     11  C   UNL     1     -10.632 -12.104  18.630  0.00  0.00    +0.000 A 
ATOM     12  C   UNL     1     -12.552 -11.263  19.845  0.00  0.00    +0.000 A 
ATOM     13  C   UNL     1     -11.731 -10.294  20.433  0.00  0.00    +0.000 A 
ATOM     14  C   UNL     1     -11.988 -12.172  18.948  0.00  0.00    +0.000 A 
ATOM     15  C   UNL     1     -13.995 -11.394  20.230  0.00  0.00    +0.000 C 
ENDBRANCH   4   9
BRANCH   5  17
ATOM     16  N   UNL     1      -8.993  -9.540  15.946  0.00  0.00    +0.000 NA
ATOM     17  C   UNL     1      -8.382  -9.207  17.035  0.00  0.00    +0.000 C 
BRANCH  16  18
ATOM     18  O   UNL     1      -9.522  -8.386  15.347  0.00  0.00    +0.000 OA
BRANCH  18  19
ATOM     19  C   UNL     1     -10.116  -7.571  16.366  0.00  0.00    +0.000 C 
BRANCH  19  22
ATOM     20 CL   UNL     1     -11.803  -5.575  14.724  0.00  0.00    +0.000 Cl
ATOM     21 CL   UNL     1     -16.097  -8.400  16.246  0.00  0.00    +0.000 Cl
ATOM     22  C   UNL     1     -11.621  -7.729  16.408  0.00  0.00    +0.000 A 
ATOM     23  C   UNL     1     -12.451  -6.884  15.650  0.00  0.00    +0.000 A 
ATOM     24  C   UNL     1     -12.229  -8.738  17.177  0.00  0.00    +0.000 A 
ATOM     25  C   UNL     1     -13.834  -7.077  15.611  0.00  0.00    +0.000 A 
ATOM     26  C   UNL     1     -13.611  -8.934  17.139  0.00  0.00    +0.000 A 
ATOM     27  C   UNL     1     -14.404  -8.115  16.341  0.00  0.00    +0.000 A 
ENDBRANCH  19  22
ENDBRANCH  18  19
ENDBRANCH  16  18
ENDBRANCH   5  17
TORSDOF 5
ENDMDL
MODEL 3
REMARK VINA RESULT:      -5.2     15.008     17.024
REMARK  Name = 9632200
REMARK  6 active torsions:
REMARK  status: ('A' for Active; 'I' for Inactive)
REMARK    1  A    between atoms: O_4  and  N_7
REMARK    2  A    between atoms: O_4  and  C_22
REMARK    3  A    between atoms: C_8  and  C_10
REMARK    4  A    between atoms: C_9  and  C_15
REMARK    5  A    between atoms: C_16  and  C_20
REMARK    6  A    between atoms: C_21  and  C_22
REMARK                            x       y       z     vdW  Elec       q    Type
REMARK                         _______ _______ _______ _____ _____    ______ ____
ROOT
ATOM      1  S   UNL     1      -1.103  14.044  33.795  0.00  0.00    +0.000 S 
ATOM      2  N   UNL     1      -0.987  12.103  35.474  0.00  0.00    +0.000 N 
ATOM      3  N   UNL     1      -3.133  12.565  35.061  0.00  0.00    +0.000 NA
ATOM      4  C   UNL     1      -3.025  11.538  35.988  0.00  0.00    +0.000 A 
ATOM      5  C   UNL     1      -1.690  11.194  36.221  0.00  0.00    +0.000 A 
ATOM      6  C   UNL     1      -1.892  12.867  34.803  0.00  0.00    +0.000 A 
ATOM      7  C   UNL     1       0.335  12.406  35.227  0.00  0.00    +0.000 A 
ATOM      8  C   UNL     1       0.460  13.422  34.359  0.00  0.00    +0.000 A 
ENDROOT
BRANCH   4   9
ATOM      9  C   UNL     1      -4.196  10.964  36.640  0.00  0.00    +0.000 A 
ATOM     10  C   UNL     1      -5.024  10.081  35.938  0.00  0.00    +0.000 A 
ATOM     11  C   UNL     1      -4.556  11.317  37.949  0.00  0.00    +0.000 A 
ATOM     12  C   UNL     1      -6.486   9.856  37.866  0.00  0.00    +0.000 A 
ATOM     13  C   UNL     1      -6.163   9.535  36.543  0.00  0.00    +0.000 A 
ATOM     14  C   UNL     1      -5.678  10.759  38.560  0.00  0.00    +0.000 A 
ATOM     15  C   UNL     1      -7.729   9.320  38.514  0.00  0.00    +0.000 C 
ENDBRANCH   4   9
BRANCH   5  17
ATOM     16  N   UNL     1      -0.580   9.127  36.495  0.00  0.00    +0.000 NA
ATOM     17  C   UNL     1      -1.122  10.168  37.037  0.00  0.00    +0.000 C 
BRANCH  16  18
ATOM     18  O   UNL     1      -0.038   8.315  37.504  0.00  0.00    +0.000 OA
BRANCH  18  19
ATOM     19  C   UNL     1      -0.722   7.055  37.496  0.00  0.00    +0.000 C 
BRANCH  19  22
ATOM     20 CL   UNL     1      -3.350   7.905  38.871  0.00  0.00    +0.000 Cl
ATOM     21 CL   UNL     1      -1.900   4.739  42.947  0.00  0.00    +0.000 Cl
ATOM     22  C   UNL     1      -0.973   6.541  38.897  0.00  0.00    +0.000 A 
ATOM     23  C   UNL     1      -2.169   6.852  39.569  0.00  0.00    +0.000 A 
ATOM     24  C   UNL     1      -0.039   5.721  39.554  0.00  0.00    +0.000 A 
ATOM     25  C   UNL     1      -2.451   6.311  40.826  0.00  0.00    +0.000 A 
ATOM     26  C   UNL     1      -0.318   5.178  40.810  0.00  0.00    +0.000 A 
ATOM     27  C   UNL     1      -1.531   5.460  41.431  0.00  0.00    +0.000 A 
ENDBRANCH  19  22
ENDBRANCH  18  19
ENDBRANCH  16  18
ENDBRANCH   5  17
TORSDOF 5
ENDMDL
MODEL 4
REMARK VINA RESULT:      -5.1     25.755     28.054
REMARK  Name = 9632200
REMARK  6 active torsions:
REMARK  status: ('A' for Active; 'I' for Inactive)
REMARK    1  A    between atoms: O_4  and  N_7
REMARK    2  A    between atoms: O_4  and  C_22
REMARK    3  A    between atoms: C_8  and  C_10
REMARK    4  A    between atoms: C_9  and  C_15
REMARK    5  A    between atoms: C_16  and  C_20
REMARK    6  A    between atoms: C_21  and  C_22
REMARK                            x       y       z     vdW  Elec       q    Type
REMARK                         _______ _______ _______ _____ _____    ______ ____
ROOT
ATOM      1  S   UNL     1       8.995  -4.885  38.944  0.00  0.00    +0.000 S 
ATOM      2  N   UNL     1       8.186  -5.777  36.674  0.00  0.00    +0.000 N 
ATOM      3  N   UNL     1      10.377  -5.361  36.541  0.00  0.00    +0.000 NA
ATOM      4  C   UNL     1       9.892  -5.819  35.324  0.00  0.00    +0.000 A 
ATOM      5  C   UNL     1       8.533  -6.137  35.398  0.00  0.00    +0.000 A 
ATOM      6  C   UNL     1       9.317  -5.345  37.298  0.00  0.00    +0.000 A 
ATOM      7  C   UNL     1       7.045  -5.761  37.449  0.00  0.00    +0.000 A 
ATOM      8  C   UNL     1       7.290  -5.309  38.689  0.00  0.00    +0.000 A 
ENDROOT
BRANCH   4   9
ATOM      9  C   UNL     1      10.736  -5.889  34.138  0.00  0.00    +0.000 A 
ATOM     10  C   UNL     1      11.429  -7.068  33.840  0.00  0.00    +0.000 A 
ATOM     11  C   UNL     1      10.923  -4.778  33.302  0.00  0.00    +0.000 A 
ATOM     12  C   UNL     1      12.401  -6.046  31.861  0.00  0.00    +0.000 A 
ATOM     13  C   UNL     1      12.259  -7.146  32.715  0.00  0.00    +0.000 A 
ATOM     14  C   UNL     1      11.733  -4.859  32.169  0.00  0.00    +0.000 A 
ATOM     15  C   UNL     1      13.323  -6.096  30.679  0.00  0.00    +0.000 C 
ENDBRANCH   4   9
BRANCH   5  17
ATOM     16  N   UNL     1       7.198  -5.960  33.457  0.00  0.00    +0.000 NA
ATOM     17  C   UNL     1       7.652  -6.693  34.420  0.00  0.00    +0.000 C 
BRANCH  16  18
ATOM     18  O   UNL     1       6.421  -6.757  32.602  0.00  0.00    +0.000 OA
BRANCH  18  19
ATOM     19  C   UNL     1       6.169  -8.013  33.247  0.00  0.00    +0.000 C 
BRANCH  19  22
ATOM     20 CL   UNL     1       6.293 -10.819  34.524  0.00  0.00    +0.000 Cl
ATOM     21 CL   UNL     1       6.942 -12.731  29.558  0.00  0.00    +0.000 Cl
ATOM     22  C   UNL     1       6.449  -9.184  32.331  0.00  0.00    +0.000 A 
ATOM     23  C   UNL     1       6.477 -10.497  32.835  0.00  0.00    +0.000 A 
ATOM     24  C   UNL     1       6.659  -9.000  30.952  0.00  0.00    +0.000 A 
ATOM     25  C   UNL     1       6.646 -11.592  31.984  0.00  0.00    +0.000 A 
ATOM     26  C   UNL     1       6.827 -10.093  30.100  0.00  0.00    +0.000 A 
ATOM     27  C   UNL     1       6.800 -11.385  30.618  0.00  0.00    +0.000 A 
ENDBRANCH  19  22
ENDBRANCH  18  19
ENDBRANCH  16  18
ENDBRANCH   5  17
TORSDOF 5
ENDMDL
MODEL 5
REMARK VINA RESULT:      -5.1      3.622      6.458
REMARK  Name = 9632200
REMARK  6 active torsions:
REMARK  status: ('A' for Active; 'I' for Inactive)
REMARK    1  A    between atoms: O_4  and  N_7
REMARK    2  A    between atoms: O_4  and  C_22
REMARK    3  A    between atoms: C_8  and  C_10
REMARK    4  A    between atoms: C_9  and  C_15
REMARK    5  A    between atoms: C_16  and  C_20
REMARK    6  A    between atoms: C_21  and  C_22
REMARK                            x       y       z     vdW  Elec       q    Type
REMARK                         _______ _______ _______ _____ _____    ______ ____
ROOT
ATOM      1  S   UNL     1     -19.934   2.414  21.211  0.00  0.00    +0.000 S 
ATOM      2  N   UNL     1     -17.996   2.768  22.862  0.00  0.00    +0.000 N 
ATOM      3  N   UNL     1     -17.722   4.149  21.127  0.00  0.00    +0.000 NA
ATOM      4  C   UNL     1     -16.678   4.287  22.031  0.00  0.00    +0.000 A 
ATOM      5  C   UNL     1     -16.857   3.472  23.153  0.00  0.00    +0.000 A 
ATOM      6  C   UNL     1     -18.464   3.225  21.668  0.00  0.00    +0.000 A 
ATOM      7  C   UNL     1     -18.758   1.782  23.453  0.00  0.00    +0.000 A 
ATOM      8  C   UNL     1     -19.829   1.465  22.708  0.00  0.00    +0.000 A 
ENDROOT
BRANCH   4   9
ATOM      9  C   UNL     1     -15.539   5.157  21.764  0.00  0.00    +0.000 A 
ATOM     10  C   UNL     1     -15.719   6.342  21.042  0.00  0.00    +0.000 A 
ATOM     11  C   UNL     1     -14.240   4.812  22.165  0.00  0.00    +0.000 A 
ATOM     12  C   UNL     1     -13.347   6.849  21.206  0.00  0.00    +0.000 A 
ATOM     13  C   UNL     1     -14.632   7.180  20.760  0.00  0.00    +0.000 A 
ATOM     14  C   UNL     1     -13.160   5.654  21.903  0.00  0.00    +0.000 A 
ATOM     15  C   UNL     1     -12.164   7.709  20.871  0.00  0.00    +0.000 C 
ENDBRANCH   4   9
BRANCH   5  17
ATOM     16  N   UNL     1     -16.536   3.761  25.475  0.00  0.00    +0.000 NA
ATOM     17  C   UNL     1     -16.077   3.341  24.343  0.00  0.00    +0.000 C 
BRANCH  16  18
ATOM     18  O   UNL     1     -15.615   3.450  26.487  0.00  0.00    +0.000 OA
BRANCH  18  19
ATOM     19  C   UNL     1     -16.327   2.895  27.602  0.00  0.00    +0.000 C 
BRANCH  19  22
ATOM     20 CL   UNL     1     -16.927   5.665  28.823  0.00  0.00    +0.000 Cl
ATOM     21 CL   UNL     1     -13.965   4.132  33.021  0.00  0.00    +0.000 Cl
ATOM     22  C   UNL     1     -15.663   3.235  28.920  0.00  0.00    +0.000 A 
ATOM     23  C   UNL     1     -15.924   4.461  29.557  0.00  0.00    +0.000 A 
ATOM     24  C   UNL     1     -14.795   2.330  29.556  0.00  0.00    +0.000 A 
ATOM     25  C   UNL     1     -15.388   4.749  30.815  0.00  0.00    +0.000 A 
ATOM     26  C   UNL     1     -14.259   2.614  30.813  0.00  0.00    +0.000 A 
ATOM     27  C   UNL     1     -14.574   3.814  31.445  0.00  0.00    +0.000 A 
ENDBRANCH  19  22
ENDBRANCH  18  19
ENDBRANCH  16  18
ENDBRANCH   5  17
TORSDOF 5
ENDMDL
MODEL 6
REMARK VINA RESULT:      -4.9      4.679      7.019
REMARK  Name = 9632200
REMARK  6 active torsions:
REMARK  status: ('A' for Active; 'I' for Inactive)
REMARK    1  A    between atoms: O_4  and  N_7
REMARK    2  A    between atoms: O_4  and  C_22
REMARK    3  A    between atoms: C_8  and  C_10
REMARK    4  A    between atoms: C_9  and  C_15
REMARK    5  A    between atoms: C_16  and  C_20
REMARK    6  A    between atoms: C_21  and  C_22
REMARK                            x       y       z     vdW  Elec       q    Type
REMARK                         _______ _______ _______ _____ _____    ______ ____
ROOT
ATOM      1  S   UNL     1     -19.810   6.301  32.920  0.00  0.00    +0.000 S 
ATOM      2  N   UNL     1     -17.243   6.183  32.920  0.00  0.00    +0.000 N 
ATOM      3  N   UNL     1     -18.043   4.387  31.859  0.00  0.00    +0.000 NA
ATOM      4  C   UNL     1     -16.657   4.348  31.907  0.00  0.00    +0.000 A 
ATOM      5  C   UNL     1     -16.131   5.489  32.519  0.00  0.00    +0.000 A 
ATOM      6  C   UNL     1     -18.333   5.491  32.486  0.00  0.00    +0.000 A 
ATOM      7  C   UNL     1     -17.520   7.351  33.597  0.00  0.00    +0.000 A 
ATOM      8  C   UNL     1     -18.841   7.570  33.695  0.00  0.00    +0.000 A 
ENDROOT
BRANCH   4   9
ATOM      9  C   UNL     1     -15.902   3.205  31.407  0.00  0.00    +0.000 A 
ATOM     10  C   UNL     1     -15.356   2.281  32.304  0.00  0.00    +0.000 A 
ATOM     11  C   UNL     1     -15.654   3.030  30.037  0.00  0.00    +0.000 A 
ATOM     12  C   UNL     1     -14.411   0.997  30.470  0.00  0.00    +0.000 A 
ATOM     13  C   UNL     1     -14.612   1.189  31.842  0.00  0.00    +0.000 A 
ATOM     14  C   UNL     1     -14.931   1.932  29.573  0.00  0.00    +0.000 A 
ATOM     15  C   UNL     1     -13.576  -0.139  29.959  0.00  0.00    +0.000 C 
ENDBRANCH   4   9
BRANCH   5  17
ATOM     16  N   UNL     1     -14.311   6.945  32.132  0.00  0.00    +0.000 NA
ATOM     17  C   UNL     1     -14.776   5.895  32.725  0.00  0.00    +0.000 C 
BRANCH  16  18
ATOM     18  O   UNL     1     -12.991   7.164  32.556  0.00  0.00    +0.000 OA
BRANCH  18  19
ATOM     19  C   UNL     1     -12.887   8.503  33.058  0.00  0.00    +0.000 C 
BRANCH  19  22
ATOM     20 CL   UNL     1     -10.474  10.369  33.527  0.00  0.00    +0.000 Cl
ATOM     21 CL   UNL     1     -10.721   8.916  38.681  0.00  0.00    +0.000 Cl
ATOM     22  C   UNL     1     -12.292   8.539  34.450  0.00  0.00    +0.000 A 
ATOM     23  C   UNL     1     -11.219   9.398  34.748  0.00  0.00    +0.000 A 
ATOM     24  C   UNL     1     -12.810   7.741  35.486  0.00  0.00    +0.000 A 
ATOM     25  C   UNL     1     -10.721   9.504  36.049  0.00  0.00    +0.000 A 
ATOM     26  C   UNL     1     -12.314   7.846  36.787  0.00  0.00    +0.000 A 
ATOM     27  C   UNL     1     -11.285   8.741  37.066  0.00  0.00    +0.000 A 
ENDBRANCH  19  22
ENDBRANCH  18  19
ENDBRANCH  16  18
ENDBRANCH   5  17
TORSDOF 5
ENDMDL
MODEL 7
REMARK VINA RESULT:      -4.8     38.389     41.440
REMARK  Name = 9632200
REMARK  6 active torsions:
REMARK  status: ('A' for Active; 'I' for Inactive)
REMARK    1  A    between atoms: O_4  and  N_7
REMARK    2  A    between atoms: O_4  and  C_22
REMARK    3  A    between atoms: C_8  and  C_10
REMARK    4  A    between atoms: C_9  and  C_15
REMARK    5  A    between atoms: C_16  and  C_20
REMARK    6  A    between atoms: C_21  and  C_22
REMARK                            x       y       z     vdW  Elec       q    Type
REMARK                         _______ _______ _______ _____ _____    ______ ____
ROOT
ATOM      1  S   UNL     1      16.007   4.498  -0.220  0.00  0.00    +0.000 S 
ATOM      2  N   UNL     1      13.464   4.858  -0.325  0.00  0.00    +0.000 N 
ATOM      3  N   UNL     1      14.128   5.045   1.800  0.00  0.00    +0.000 NA
ATOM      4  C   UNL     1      12.753   5.205   1.703  0.00  0.00    +0.000 A 
ATOM      5  C   UNL     1      12.321   5.146   0.374  0.00  0.00    +0.000 A 
ATOM      6  C   UNL     1      14.492   4.830   0.568  0.00  0.00    +0.000 A 
ATOM      7  C   UNL     1      13.819   4.624  -1.636  0.00  0.00    +0.000 A 
ATOM      8  C   UNL     1      15.138   4.406  -1.765  0.00  0.00    +0.000 A 
ENDROOT
BRANCH   4   9
ATOM      9  C   UNL     1      11.911   5.362   2.883  0.00  0.00    +0.000 A 
ATOM     10  C   UNL     1      12.032   6.504   3.681  0.00  0.00    +0.000 A 
ATOM     11  C   UNL     1      11.010   4.363   3.281  0.00  0.00    +0.000 A 
ATOM     12  C   UNL     1      10.314   5.681   5.190  0.00  0.00    +0.000 A 
ATOM     13  C   UNL     1      11.245   6.662   4.828  0.00  0.00    +0.000 A 
ATOM     14  C   UNL     1      10.210   4.527   4.411  0.00  0.00    +0.000 A 
ATOM     15  C   UNL     1       9.498   5.810   6.442  0.00  0.00    +0.000 C 
ENDBRANCH   4   9
BRANCH   5  17
ATOM     16  N   UNL     1      10.445   4.347  -0.819  0.00  0.00    +0.000 NA
ATOM     17  C   UNL     1      11.020   5.319  -0.190  0.00  0.00    +0.000 C 
BRANCH  16  18
ATOM     18  O   UNL     1       9.158   4.750  -1.208  0.00  0.00    +0.000 OA
BRANCH  18  19
ATOM     19  C   UNL     1       9.271   5.601  -2.356  0.00  0.00    +0.000 C 
BRANCH  19  22
ATOM     20 CL   UNL     1      11.763   6.718  -3.794  0.00  0.00    +0.000 Cl
ATOM     21 CL   UNL     1      11.489   2.418  -6.985  0.00  0.00    +0.000 Cl
ATOM     22  C   UNL     1       9.773   4.847  -3.569  0.00  0.00    +0.000 A 
ATOM     23  C   UNL     1      10.929   5.273  -4.249  0.00  0.00    +0.000 A 
ATOM     24  C   UNL     1       9.121   3.691  -4.032  0.00  0.00    +0.000 A 
ATOM     25  C   UNL     1      11.451   4.535  -5.314  0.00  0.00    +0.000 A 
ATOM     26  C   UNL     1       9.641   2.951  -5.096  0.00  0.00    +0.000 A 
ATOM     27  C   UNL     1      10.815   3.366  -5.719  0.00  0.00    +0.000 A 
ENDBRANCH  19  22
ENDBRANCH  18  19
ENDBRANCH  16  18
ENDBRANCH   5  17
TORSDOF 5
ENDMDL
MODEL 8
REMARK VINA RESULT:      -4.8     33.549     35.690
REMARK  Name = 9632200
REMARK  6 active torsions:
REMARK  status: ('A' for Active; 'I' for Inactive)
REMARK    1  A    between atoms: O_4  and  N_7
REMARK    2  A    between atoms: O_4  and  C_22
REMARK    3  A    between atoms: C_8  and  C_10
REMARK    4  A    between atoms: C_9  and  C_15
REMARK    5  A    between atoms: C_16  and  C_20
REMARK    6  A    between atoms: C_21  and  C_22
REMARK                            x       y       z     vdW  Elec       q    Type
REMARK                         _______ _______ _______ _____ _____    ______ ____
ROOT
ATOM      1  S   UNL     1      22.144  -0.088  28.956  0.00  0.00    +0.000 S 
ATOM      2  N   UNL     1      20.346  -1.415  27.688  0.00  0.00    +0.000 N 
ATOM      3  N   UNL     1      19.757  -1.286  29.839  0.00  0.00    +0.000 NA
ATOM      4  C   UNL     1      18.825  -2.021  29.121  0.00  0.00    +0.000 A 
ATOM      5  C   UNL     1      19.144  -2.070  27.761  0.00  0.00    +0.000 A 
ATOM      6  C   UNL     1      20.641  -0.964  28.938  0.00  0.00    +0.000 A 
ATOM      7  C   UNL     1      21.270  -1.097  26.715  0.00  0.00    +0.000 A 
ATOM      8  C   UNL     1      22.299  -0.394  27.215  0.00  0.00    +0.000 A 
ENDROOT
BRANCH   4   9
ATOM      9  C   UNL     1      17.699  -2.680  29.772  0.00  0.00    +0.000 A 
ATOM     10  C   UNL     1      16.925  -1.982  30.706  0.00  0.00    +0.000 A 
ATOM     11  C   UNL     1      17.396  -4.028  29.530  0.00  0.00    +0.000 A 
ATOM     12  C   UNL     1      15.527  -3.937  31.070  0.00  0.00    +0.000 A 
ATOM     13  C   UNL     1      15.851  -2.605  31.354  0.00  0.00    +0.000 A 
ATOM     14  C   UNL     1      16.315  -4.645  30.159  0.00  0.00    +0.000 A 
ATOM     15  C   UNL     1      14.413  -4.635  31.790  0.00  0.00    +0.000 C 
ENDBRANCH   4   9
BRANCH   5  17
ATOM     16  N   UNL     1      17.380  -2.090  26.190  0.00  0.00    +0.000 NA
ATOM     17  C   UNL     1      18.444  -2.653  26.660  0.00  0.00    +0.000 C 
BRANCH  16  18
ATOM     18  O   UNL     1      16.932  -2.816  25.076  0.00  0.00    +0.000 OA
BRANCH  18  19
ATOM     19  C   UNL     1      17.200  -4.208  25.297  0.00  0.00    +0.000 C 
BRANCH  19  22
ATOM     20 CL   UNL     1      16.869  -7.255  24.938  0.00  0.00    +0.000 Cl
ATOM     21 CL   UNL     1      19.617  -6.720  20.365  0.00  0.00    +0.000 Cl
ATOM     22  C   UNL     1      17.880  -4.847  24.106  0.00  0.00    +0.000 A 
ATOM     23  C   UNL     1      17.737  -6.224  23.854  0.00  0.00    +0.000 A 
ATOM     24  C   UNL     1      18.646  -4.086  23.205  0.00  0.00    +0.000 A 
ATOM     25  C   UNL     1      18.286  -6.808  22.709  0.00  0.00    +0.000 A 
ATOM     26  C   UNL     1      19.194  -4.667  22.060  0.00  0.00    +0.000 A 
ATOM     27  C   UNL     1      18.995  -6.021  21.808  0.00  0.00    +0.000 A 
ENDBRANCH  19  22
ENDBRANCH  18  19
ENDBRANCH  16  18
ENDBRANCH   5  17
TORSDOF 5
ENDMDL
MODEL 9
REMARK VINA RESULT:      -4.7     23.715     24.895
REMARK  Name = 9632200
REMARK  6 active torsions:
REMARK  status: ('A' for Active; 'I' for Inactive)
REMARK    1  A    between atoms: O_4  and  N_7
REMARK    2  A    between atoms: O_4  and  C_22
REMARK    3  A    between atoms: C_8  and  C_10
REMARK    4  A    between atoms: C_9  and  C_15
REMARK    5  A    between atoms: C_16  and  C_20
REMARK    6  A    between atoms: C_21  and  C_22
REMARK                            x       y       z     vdW  Elec       q    Type
REMARK                         _______ _______ _______ _____ _____    ______ ____
ROOT
ATOM      1  S   UNL     1       0.643  20.556  27.507  0.00  0.00    +0.000 S 
ATOM      2  N   UNL     1       2.103  18.898  26.195  0.00  0.00    +0.000 N 
ATOM      3  N   UNL     1       0.100  19.021  25.213  0.00  0.00    +0.000 NA
ATOM      4  C   UNL     1       0.912  18.112  24.552  0.00  0.00    +0.000 A 
ATOM      5  C   UNL     1       2.190  18.058  25.115  0.00  0.00    +0.000 A 
ATOM      6  C   UNL     1       0.856  19.445  26.186  0.00  0.00    +0.000 A 
ATOM      7  C   UNL     1       2.923  19.321  27.220  0.00  0.00    +0.000 A 
ATOM      8  C   UNL     1       2.306  20.204  28.020  0.00  0.00    +0.000 A 
ENDROOT
BRANCH   4   9
ATOM      9  C   UNL     1       0.419  17.306  23.441  0.00  0.00    +0.000 A 
ATOM     10  C   UNL     1      -0.278  17.914  22.391  0.00  0.00    +0.000 A 
ATOM     11  C   UNL     1       0.574  15.912  23.419  0.00  0.00    +0.000 A 
ATOM     12  C   UNL     1      -0.573  15.767  21.290  0.00  0.00    +0.000 A 
ATOM     13  C   UNL     1      -0.775  17.152  21.326  0.00  0.00    +0.000 A 
ATOM     14  C   UNL     1       0.098  15.154  22.350  0.00  0.00    +0.000 A 
ATOM     15  C   UNL     1      -1.141  14.929  20.183  0.00  0.00    +0.000 C 
ENDBRANCH   4   9
BRANCH   5  17
ATOM     16  N   UNL     1       4.351  17.922  24.171  0.00  0.00    +0.000 NA
ATOM     17  C   UNL     1       3.350  17.320  24.725  0.00  0.00    +0.000 C 
BRANCH  16  18
ATOM     18  O   UNL     1       5.381  16.992  23.954  0.00  0.00    +0.000 OA
BRANCH  18  19
ATOM     19  C   UNL     1       4.845  15.874  23.234  0.00  0.00    +0.000 C 
BRANCH  19  22
ATOM     20 CL   UNL     1       2.986  16.881  20.986  0.00  0.00    +0.000 Cl
ATOM     21 CL   UNL     1       7.049  15.961  17.612  0.00  0.00    +0.000 Cl
ATOM     22  C   UNL     1       5.370  15.813  21.815  0.00  0.00    +0.000 A 
ATOM     23  C   UNL     1       4.596  16.295  20.744  0.00  0.00    +0.000 A 
ATOM     24  C   UNL     1       6.650  15.304  21.530  0.00  0.00    +0.000 A 
ATOM     25  C   UNL     1       5.104  16.326  19.444  0.00  0.00    +0.000 A 
ATOM     26  C   UNL     1       7.161  15.335  20.231  0.00  0.00    +0.000 A 
ATOM     27  C   UNL     1       6.393  15.864  19.198  0.00  0.00    +0.000 A 
ENDBRANCH  19  22
ENDBRANCH  18  19
ENDBRANCH  16  18
ENDBRANCH   5  17
TORSDOF 5
ENDMDL
MODEL 10
REMARK VINA RESULT:      -4.6     11.763     14.747
REMARK  Name = 9632200
REMARK  6 active torsions:
REMARK  status: ('A' for Active; 'I' for Inactive)
REMARK    1  A    between atoms: O_4  and  N_7
REMARK    2  A    between atoms: O_4  and  C_22
REMARK    3  A    between atoms: C_8  and  C_10
REMARK    4  A    between atoms: C_9  and  C_15
REMARK    5  A    between atoms: C_16  and  C_20
REMARK    6  A    between atoms: C_21  and  C_22
REMARK                            x       y       z     vdW  Elec       q    Type
REMARK                         _______ _______ _______ _____ _____    ______ ____
ROOT
ATOM      1  S   UNL     1     -12.936  13.039  25.621  0.00  0.00    +0.000 S 
ATOM      2  N   UNL     1     -13.489  12.972  23.113  0.00  0.00    +0.000 N 
ATOM      3  N   UNL     1     -12.485  11.058  23.676  0.00  0.00    +0.000 NA
ATOM      4  C   UNL     1     -12.776  11.076  22.319  0.00  0.00    +0.000 A 
ATOM      5  C   UNL     1     -13.454  12.242  21.954  0.00  0.00    +0.000 A 
ATOM      6  C   UNL     1     -12.920  12.214  24.090  0.00  0.00    +0.000 A 
ATOM      7  C   UNL     1     -13.951  14.206  23.521  0.00  0.00    +0.000 A 
ATOM      8  C   UNL     1     -13.734  14.412  24.829  0.00  0.00    +0.000 A 
ENDROOT
BRANCH   4   9
ATOM      9  C   UNL     1     -12.355  10.001  21.429  0.00  0.00    +0.000 A 
ATOM     10  C   UNL     1     -11.329  10.221  20.503  0.00  0.00    +0.000 A 
ATOM     11  C   UNL     1     -12.993   8.752  21.431  0.00  0.00    +0.000 A 
ATOM     12  C   UNL     1     -11.536   7.947  19.670  0.00  0.00    +0.000 A 
ATOM     13  C   UNL     1     -10.925   9.206  19.627  0.00  0.00    +0.000 A 
ATOM     14  C   UNL     1     -12.579   7.732  20.574  0.00  0.00    +0.000 A 
ATOM     15  C   UNL     1     -11.151   6.864  18.707  0.00  0.00    +0.000 C 
ENDBRANCH   4   9
BRANCH   5  17
ATOM     16  N   UNL     1     -13.319  13.421  19.911  0.00  0.00    +0.000 NA
ATOM     17  C   UNL     1     -13.996  12.649  20.695  0.00  0.00    +0.000 C 
BRANCH  16  18
ATOM     18  O   UNL     1     -14.037  13.608  18.720  0.00  0.00    +0.000 OA
BRANCH  18  19
ATOM     19  C   UNL     1     -13.113  13.935  17.673  0.00  0.00    +0.000 C 
BRANCH  19  22
ATOM     20 CL   UNL     1     -10.043  13.776  17.937  0.00  0.00    +0.000 Cl
ATOM     21 CL   UNL     1     -10.403   8.879  15.786  0.00  0.00    +0.000 Cl
ATOM     22  C   UNL     1     -12.429  12.704  17.120  0.00  0.00    +0.000 A 
ATOM     23  C   UNL     1     -11.037  12.542  17.244  0.00  0.00    +0.000 A 
ATOM     24  C   UNL     1     -13.161  11.677  16.497  0.00  0.00    +0.000 A 
ATOM     25  C   UNL     1     -10.406  11.370  16.818  0.00  0.00    +0.000 A 
ATOM     26  C   UNL     1     -12.534  10.505  16.071  0.00  0.00    +0.000 A 
ATOM     27  C   UNL     1     -11.162  10.349  16.252  0.00  0.00    +0.000 A 
ENDBRANCH  19  22
ENDBRANCH  18  19
ENDBRANCH  16  18
ENDBRANCH   5  17
TORSDOF 5
ENDMDL
