REMARK  Name = 9632200
REMARK  6 active torsions:
REMARK  status: ('A' for Active; 'I' for Inactive)
REMARK    1  A    between atoms: O_4  and  N_7
REMARK    2  A    between atoms: O_4  and  C_22
REMARK    3  A    between atoms: C_8  and  C_10
REMARK    4  A    between atoms: C_9  and  C_15
REMARK    5  A    between atoms: C_16  and  C_20
REMARK    6  A    between atoms: C_21  and  C_22
REMARK                            x       y       z     vdW  Elec       q    Type
REMARK                         _______ _______ _______ _____ _____    ______ ____
ROOT
ATOM      1  S   UNL     1      -3.785  -2.415  -8.372  0.00  0.00    +0.000 S 
ATOM      2  N   UNL     1      -3.363  -2.925  -5.889  0.00  0.00    +0.000 N 
ATOM      3  N   UNL     1      -1.965  -1.307  -6.536  0.00  0.00    +0.000 NA
ATOM      4  C   UNL     1      -1.750  -1.634  -5.205  0.00  0.00    +0.000 A 
ATOM      5  C   UNL     1      -2.651  -2.607  -4.762  0.00  0.00    +0.000 A 
ATOM      6  C   UNL     1      -2.924  -2.114  -6.891  0.00  0.00    +0.000 A 
ATOM      7  C   UNL     1      -4.372  -3.797  -6.239  0.00  0.00    +0.000 A 
ATOM      8  C   UNL     1      -4.719  -3.667  -7.529  0.00  0.00    +0.000 A 
ENDROOT
BRANCH   4   9
ATOM      9  C   UNL     1      -0.669  -1.036  -4.431  0.00  0.00    +0.000 A 
ATOM     10  C   UNL     1      -0.228   0.258  -4.729  0.00  0.00    +0.000 A 
ATOM     11  C   UNL     1      -0.009  -1.748  -3.418  0.00  0.00    +0.000 A 
ATOM     12  C   UNL     1       1.442   0.139  -2.967  0.00  0.00    +0.000 A 
ATOM     13  C   UNL     1       0.822   0.840  -4.008  0.00  0.00    +0.000 A 
ATOM     14  C   UNL     1       1.023  -1.163  -2.685  0.00  0.00    +0.000 A 
ATOM     15  C   UNL     1       2.600   0.727  -2.217  0.00  0.00    +0.000 C 
ENDBRANCH   4   9
BRANCH   5  17
ATOM     16  N   UNL     1      -3.207  -4.419  -3.352  0.00  0.00    +0.000 NA
ATOM     17  C   UNL     1      -2.834  -3.187  -3.469  0.00  0.00    +0.000 C 
BRANCH  16  18
ATOM     18  O   UNL     1      -3.241  -4.760  -1.991  0.00  0.00    +0.000 OA
BRANCH  18  19
ATOM     19  C   UNL     1      -3.011  -6.170  -1.865  0.00  0.00    +0.000 C 
BRANCH  19  22
ATOM     20 CL   UNL     1      -2.377  -9.132  -1.275  0.00  0.00    +0.000 Cl
ATOM     21 CL   UNL     1      -3.045  -7.940   3.909  0.00  0.00    +0.000 Cl
ATOM     22  C   UNL     1      -3.105  -6.630  -0.426  0.00  0.00    +0.000 A 
ATOM     23  C   UNL     1      -2.788  -7.955  -0.076  0.00  0.00    +0.000 A 
ATOM     24  C   UNL     1      -3.481  -5.746   0.601  0.00  0.00    +0.000 A 
ATOM     25  C   UNL     1      -2.785  -8.367   1.259  0.00  0.00    +0.000 A 
ATOM     26  C   UNL     1      -3.478  -6.155   1.936  0.00  0.00    +0.000 A 
ATOM     27  C   UNL     1      -3.111  -7.458   2.260  0.00  0.00    +0.000 A 
ENDBRANCH  19  22
ENDBRANCH  18  19
ENDBRANCH  16  18
ENDBRANCH   5  17
TORSDOF 5
