MODEL 1
REMARK VINA RESULT:      -5.8      0.000      0.000
REMARK  Name = 9632200
REMARK  6 active torsions:
REMARK  status: ('A' for Active; 'I' for Inactive)
REMARK    1  A    between atoms: O_4  and  N_7
REMARK    2  A    between atoms: O_4  and  C_22
REMARK    3  A    between atoms: C_8  and  C_10
REMARK    4  A    between atoms: C_9  and  C_15
REMARK    5  A    between atoms: C_16  and  C_20
REMARK    6  A    between atoms: C_21  and  C_22
REMARK                            x       y       z     vdW  Elec       q    Type
REMARK                         _______ _______ _______ _____ _____    ______ ____
ROOT
ATOM      1  S   UNL     1      -2.233   8.078 -58.676  0.00  0.00    +0.000 S 
ATOM      2  N   UNL     1      -3.853   6.103 -58.955  0.00  0.00    +0.000 N 
ATOM      3  N   UNL     1      -3.292   6.271 -56.799  0.00  0.00    +0.000 NA
ATOM      4  C   UNL     1      -4.146   5.196 -56.998  0.00  0.00    +0.000 A 
ATOM      5  C   UNL     1      -4.554   5.104 -58.332  0.00  0.00    +0.000 A 
ATOM      6  C   UNL     1      -3.145   6.762 -57.996  0.00  0.00    +0.000 A 
ATOM      7  C   UNL     1      -3.708   6.595 -60.234  0.00  0.00    +0.000 A 
ATOM      8  C   UNL     1      -2.875   7.647 -60.273  0.00  0.00    +0.000 A 
ENDROOT
BRANCH   4   9
ATOM      9  C   UNL     1      -4.498   4.283 -55.918  0.00  0.00    +0.000 A 
ATOM     10  C   UNL     1      -4.215   2.918 -56.036  0.00  0.00    +0.000 A 
ATOM     11  C   UNL     1      -5.171   4.727 -54.769  0.00  0.00    +0.000 A 
ATOM     12  C   UNL     1      -5.192   2.484 -53.853  0.00  0.00    +0.000 A 
ATOM     13  C   UNL     1      -4.564   2.024 -55.016  0.00  0.00    +0.000 A 
ATOM     14  C   UNL     1      -5.500   3.842 -53.743  0.00  0.00    +0.000 A 
ATOM     15  C   UNL     1      -5.617   1.535 -52.772  0.00  0.00    +0.000 C 
ENDBRANCH   4   9
BRANCH   5  17
ATOM     16  N   UNL     1      -5.029   3.147 -59.568  0.00  0.00    +0.000 NA
ATOM     17  C   UNL     1      -5.466   4.205 -58.967  0.00  0.00    +0.000 C 
BRANCH  16  18
ATOM     18  O   UNL     1      -6.122   2.403 -60.039  0.00  0.00    +0.000 OA
BRANCH  18  19
ATOM     19  C   UNL     1      -6.816   3.181 -61.024  0.00  0.00    +0.000 C 
BRANCH  19  22
ATOM     20 CL   UNL     1      -4.970   3.311 -63.493  0.00  0.00    +0.000 Cl
ATOM     21 CL   UNL     1      -8.155  -0.390 -65.706  0.00  0.00    +0.000 Cl
ATOM     22  C   UNL     1      -7.203   2.350 -62.228  0.00  0.00    +0.000 A 
ATOM     23  C   UNL     1      -6.387   2.325 -63.373  0.00  0.00    +0.000 A 
ATOM     24  C   UNL     1      -8.366   1.560 -62.228  0.00  0.00    +0.000 A 
ATOM     25  C   UNL     1      -6.686   1.494 -64.455  0.00  0.00    +0.000 A 
ATOM     26  C   UNL     1      -8.668   0.727 -63.307  0.00  0.00    +0.000 A 
ATOM     27  C   UNL     1      -7.816   0.684 -64.407  0.00  0.00    +0.000 A 
ENDBRANCH  19  22
ENDBRANCH  18  19
ENDBRANCH  16  18
ENDBRANCH   5  17
TORSDOF 5
ENDMDL
MODEL 2
REMARK VINA RESULT:      -5.7     18.774     20.920
REMARK  Name = 9632200
REMARK  6 active torsions:
REMARK  status: ('A' for Active; 'I' for Inactive)
REMARK    1  A    between atoms: O_4  and  N_7
REMARK    2  A    between atoms: O_4  and  C_22
REMARK    3  A    between atoms: C_8  and  C_10
REMARK    4  A    between atoms: C_9  and  C_15
REMARK    5  A    between atoms: C_16  and  C_20
REMARK    6  A    between atoms: C_21  and  C_22
REMARK                            x       y       z     vdW  Elec       q    Type
REMARK                         _______ _______ _______ _____ _____    ______ ____
ROOT
ATOM      1  S   UNL     1     -10.128  21.383 -41.594  0.00  0.00    +0.000 S 
ATOM      2  N   UNL     1     -10.656  19.310 -43.017  0.00  0.00    +0.000 N 
ATOM      3  N   UNL     1      -8.461  19.357 -42.607  0.00  0.00    +0.000 NA
ATOM      4  C   UNL     1      -8.785  18.266 -43.399  0.00  0.00    +0.000 A 
ATOM      5  C   UNL     1     -10.163  18.184 -43.624  0.00  0.00    +0.000 A 
ATOM      6  C   UNL     1      -9.608  19.945 -42.423  0.00  0.00    +0.000 A 
ATOM      7  C   UNL     1     -11.883  19.915 -42.847  0.00  0.00    +0.000 A 
ATOM      8  C   UNL     1     -11.789  21.038 -42.118  0.00  0.00    +0.000 A 
ENDROOT
BRANCH   4   9
ATOM      9  C   UNL     1      -7.764  17.377 -43.940  0.00  0.00    +0.000 A 
ATOM     10  C   UNL     1      -7.545  17.322 -45.321  0.00  0.00    +0.000 A 
ATOM     11  C   UNL     1      -7.020  16.522 -43.113  0.00  0.00    +0.000 A 
ATOM     12  C   UNL     1      -5.811  15.646 -45.021  0.00  0.00    +0.000 A 
ATOM     13  C   UNL     1      -6.581  16.461 -45.859  0.00  0.00    +0.000 A 
ATOM     14  C   UNL     1      -6.046  15.678 -43.645  0.00  0.00    +0.000 A 
ATOM     15  C   UNL     1      -4.809  14.681 -45.582  0.00  0.00    +0.000 C 
ENDBRANCH   4   9
BRANCH   5  17
ATOM     16  N   UNL     1     -11.664  16.361 -43.663  0.00  0.00    +0.000 NA
ATOM     17  C   UNL     1     -10.936  17.204 -44.319  0.00  0.00    +0.000 C 
BRANCH  16  18
ATOM     18  O   UNL     1     -12.373  15.563 -44.575  0.00  0.00    +0.000 OA
BRANCH  18  19
ATOM     19  C   UNL     1     -13.708  16.076 -44.692  0.00  0.00    +0.000 C 
BRANCH  19  22
ATOM     20 CL   UNL     1     -16.434  14.655 -44.965  0.00  0.00    +0.000 Cl
ATOM     21 CL   UNL     1     -16.091  15.638 -50.224  0.00  0.00    +0.000 Cl
ATOM     22  C   UNL     1     -14.261  15.891 -46.089  0.00  0.00    +0.000 A 
ATOM     23  C   UNL     1     -15.518  15.292 -46.287  0.00  0.00    +0.000 A 
ATOM     24  C   UNL     1     -13.554  16.336 -47.220  0.00  0.00    +0.000 A 
ATOM     25  C   UNL     1     -16.078  15.197 -47.564  0.00  0.00    +0.000 A 
ATOM     26  C   UNL     1     -14.112  16.243 -48.497  0.00  0.00    +0.000 A 
ATOM     27  C   UNL     1     -15.379  15.692 -48.660  0.00  0.00    +0.000 A 
ENDBRANCH  19  22
ENDBRANCH  18  19
ENDBRANCH  16  18
ENDBRANCH   5  17
TORSDOF 5
ENDMDL
MODEL 3
REMARK VINA RESULT:      -5.7     11.209     12.031
REMARK  Name = 9632200
REMARK  6 active torsions:
REMARK  status: ('A' for Active; 'I' for Inactive)
REMARK    1  A    between atoms: O_4  and  N_7
REMARK    2  A    between atoms: O_4  and  C_22
REMARK    3  A    between atoms: C_8  and  C_10
REMARK    4  A    between atoms: C_9  and  C_15
REMARK    5  A    between atoms: C_16  and  C_20
REMARK    6  A    between atoms: C_21  and  C_22
REMARK                            x       y       z     vdW  Elec       q    Type
REMARK                         _______ _______ _______ _____ _____    ______ ____
ROOT
ATOM      1  S   UNL     1      -9.645  13.096 -54.866  0.00  0.00    +0.000 S 
ATOM      2  N   UNL     1     -10.238  12.633 -57.324  0.00  0.00    +0.000 N 
ATOM      3  N   UNL     1     -12.131  12.896 -56.167  0.00  0.00    +0.000 NA
ATOM      4  C   UNL     1     -12.407  12.614 -57.497  0.00  0.00    +0.000 A 
ATOM      5  C   UNL     1     -11.237  12.500 -58.253  0.00  0.00    +0.000 A 
ATOM      6  C   UNL     1     -10.829  12.881 -56.122  0.00  0.00    +0.000 A 
ATOM      7  C   UNL     1      -8.860  12.602 -57.305  0.00  0.00    +0.000 A 
ATOM      8  C   UNL     1      -8.373  12.824 -56.074  0.00  0.00    +0.000 A 
ENDROOT
BRANCH   4   9
ATOM      9  C   UNL     1     -13.771  12.425 -57.976  0.00  0.00    +0.000 A 
ATOM     10  C   UNL     1     -14.617  13.529 -58.134  0.00  0.00    +0.000 A 
ATOM     11  C   UNL     1     -14.289  11.147 -58.233  0.00  0.00    +0.000 A 
ATOM     12  C   UNL     1     -16.428  12.087 -58.875  0.00  0.00    +0.000 A 
ATOM     13  C   UNL     1     -15.935  13.362 -58.575  0.00  0.00    +0.000 A 
ATOM     14  C   UNL     1     -15.596  10.980 -58.692  0.00  0.00    +0.000 A 
ATOM     15  C   UNL     1     -17.852  11.885 -59.301  0.00  0.00    +0.000 C 
ENDBRANCH   4   9
BRANCH   5  17
ATOM     16  N   UNL     1     -11.126  11.091 -60.145  0.00  0.00    +0.000 NA
ATOM     17  C   UNL     1     -11.050  12.283 -59.653  0.00  0.00    +0.000 C 
BRANCH  16  18
ATOM     18  O   UNL     1     -10.979  11.161 -61.539  0.00  0.00    +0.000 OA
BRANCH  18  19
ATOM     19  C   UNL     1     -11.699  12.304 -62.020  0.00  0.00    +0.000 C 
BRANCH  19  22
ATOM     20 CL   UNL     1     -14.782  12.302 -61.894  0.00  0.00    +0.000 Cl
ATOM     21 CL   UNL     1     -14.708  11.435 -67.184  0.00  0.00    +0.000 Cl
ATOM     22  C   UNL     1     -12.449  12.000 -63.299  0.00  0.00    +0.000 A 
ATOM     23  C   UNL     1     -13.855  12.025 -63.327  0.00  0.00    +0.000 A 
ATOM     24  C   UNL     1     -11.768  11.715 -64.496  0.00  0.00    +0.000 A 
ATOM     25  C   UNL     1     -14.556  11.834 -64.521  0.00  0.00    +0.000 A 
ATOM     26  C   UNL     1     -12.466  11.525 -65.691  0.00  0.00    +0.000 A 
ATOM     27  C   UNL     1     -13.855  11.605 -65.701  0.00  0.00    +0.000 A 
ENDBRANCH  19  22
ENDBRANCH  18  19
ENDBRANCH  16  18
ENDBRANCH   5  17
TORSDOF 5
ENDMDL
MODEL 4
REMARK VINA RESULT:      -5.6     19.552     21.773
REMARK  Name = 9632200
REMARK  6 active torsions:
REMARK  status: ('A' for Active; 'I' for Inactive)
REMARK    1  A    between atoms: O_4  and  N_7
REMARK    2  A    between atoms: O_4  and  C_22
REMARK    3  A    between atoms: C_8  and  C_10
REMARK    4  A    between atoms: C_9  and  C_15
REMARK    5  A    between atoms: C_16  and  C_20
REMARK    6  A    between atoms: C_21  and  C_22
REMARK                            x       y       z     vdW  Elec       q    Type
REMARK                         _______ _______ _______ _____ _____    ______ ____
ROOT
ATOM      1  S   UNL     1     -20.717  15.326 -45.081  0.00  0.00    +0.000 S 
ATOM      2  N   UNL     1     -18.160  15.505 -44.903  0.00  0.00    +0.000 N 
ATOM      3  N   UNL     1     -18.777  16.090 -46.969  0.00  0.00    +0.000 NA
ATOM      4  C   UNL     1     -17.397  16.145 -46.839  0.00  0.00    +0.000 A 
ATOM      5  C   UNL     1     -16.990  15.836 -45.537  0.00  0.00    +0.000 A 
ATOM      6  C   UNL     1     -19.173  15.692 -45.794  0.00  0.00    +0.000 A 
ATOM      7  C   UNL     1     -18.549  15.075 -43.653  0.00  0.00    +0.000 A 
ATOM      8  C   UNL     1     -19.879  14.921 -43.570  0.00  0.00    +0.000 A 
ENDROOT
BRANCH   4   9
ATOM      9  C   UNL     1     -16.529  16.447 -47.970  0.00  0.00    +0.000 A 
ATOM     10  C   UNL     1     -16.144  17.768 -48.224  0.00  0.00    +0.000 A 
ATOM     11  C   UNL     1     -16.105  15.447 -48.859  0.00  0.00    +0.000 A 
ATOM     12  C   UNL     1     -14.870  17.066 -50.171  0.00  0.00    +0.000 A 
ATOM     13  C   UNL     1     -15.326  18.078 -49.318  0.00  0.00    +0.000 A 
ATOM     14  C   UNL     1     -15.274  15.750 -49.937  0.00  0.00    +0.000 A 
ATOM     15  C   UNL     1     -14.034  17.385 -51.375  0.00  0.00    +0.000 C 
ENDBRANCH   4   9
BRANCH   5  17
ATOM     16  N   UNL     1     -15.215  16.903 -44.401  0.00  0.00    +0.000 NA
ATOM     17  C   UNL     1     -15.690  15.831 -44.944  0.00  0.00    +0.000 C 
BRANCH  16  18
ATOM     18  O   UNL     1     -13.965  16.614 -43.833  0.00  0.00    +0.000 OA
BRANCH  18  19
ATOM     19  C   UNL     1     -13.271  15.700 -44.693  0.00  0.00    +0.000 C 
BRANCH  19  22
ATOM     20 CL   UNL     1     -10.809  17.239 -43.648  0.00  0.00    +0.000 Cl
ATOM     21 CL   UNL     1      -9.661  18.301 -48.776  0.00  0.00    +0.000 Cl
ATOM     22  C   UNL     1     -12.417  16.423 -45.712  0.00  0.00    +0.000 A 
ATOM     23  C   UNL     1     -11.255  17.109 -45.314  0.00  0.00    +0.000 A 
ATOM     24  C   UNL     1     -12.740  16.406 -47.080  0.00  0.00    +0.000 A 
ATOM     25  C   UNL     1     -10.411  17.704 -46.256  0.00  0.00    +0.000 A 
ATOM     26  C   UNL     1     -11.898  17.000 -48.023  0.00  0.00    +0.000 A 
ATOM     27  C   UNL     1     -10.728  17.629 -47.608  0.00  0.00    +0.000 A 
ENDBRANCH  19  22
ENDBRANCH  18  19
ENDBRANCH  16  18
ENDBRANCH   5  17
TORSDOF 5
ENDMDL
MODEL 5
REMARK VINA RESULT:      -5.6      2.299      3.091
REMARK  Name = 9632200
REMARK  6 active torsions:
REMARK  status: ('A' for Active; 'I' for Inactive)
REMARK    1  A    between atoms: O_4  and  N_7
REMARK    2  A    between atoms: O_4  and  C_22
REMARK    3  A    between atoms: C_8  and  C_10
REMARK    4  A    between atoms: C_9  and  C_15
REMARK    5  A    between atoms: C_16  and  C_20
REMARK    6  A    between atoms: C_21  and  C_22
REMARK                            x       y       z     vdW  Elec       q    Type
REMARK                         _______ _______ _______ _____ _____    ______ ____
ROOT
ATOM      1  S   UNL     1       1.456   8.035 -58.181  0.00  0.00    +0.000 S 
ATOM      2  N   UNL     1      -1.011   7.600 -58.756  0.00  0.00    +0.000 N 
ATOM      3  N   UNL     1      -0.619   6.869 -56.681  0.00  0.00    +0.000 NA
ATOM      4  C   UNL     1      -1.936   6.626 -57.043  0.00  0.00    +0.000 A 
ATOM      5  C   UNL     1      -2.219   7.125 -58.318  0.00  0.00    +0.000 A 
ATOM      6  C   UNL     1      -0.117   7.436 -57.741  0.00  0.00    +0.000 A 
ATOM      7  C   UNL     1      -0.505   8.190 -59.894  0.00  0.00    +0.000 A 
ATOM      8  C   UNL     1       0.799   8.484 -59.767  0.00  0.00    +0.000 A 
ENDROOT
BRANCH   4   9
ATOM      9  C   UNL     1      -2.849   5.892 -56.176  0.00  0.00    +0.000 A 
ATOM     10  C   UNL     1      -3.027   4.515 -56.351  0.00  0.00    +0.000 A 
ATOM     11  C   UNL     1      -3.609   6.542 -55.191  0.00  0.00    +0.000 A 
ATOM     12  C   UNL     1      -4.633   4.448 -54.528  0.00  0.00    +0.000 A 
ATOM     13  C   UNL     1      -3.915   3.799 -55.539  0.00  0.00    +0.000 A 
ATOM     14  C   UNL     1      -4.479   5.827 -54.368  0.00  0.00    +0.000 A 
ATOM     15  C   UNL     1      -5.624   3.707 -53.682  0.00  0.00    +0.000 C 
ENDBRANCH   4   9
BRANCH   5  17
ATOM     16  N   UNL     1      -3.877   6.089 -59.645  0.00  0.00    +0.000 NA
ATOM     17  C   UNL     1      -3.443   7.154 -59.056  0.00  0.00    +0.000 C 
BRANCH  16  18
ATOM     18  O   UNL     1      -5.122   6.365 -60.231  0.00  0.00    +0.000 OA
BRANCH  18  19
ATOM     19  C   UNL     1      -6.028   5.301 -59.907  0.00  0.00    +0.000 C 
BRANCH  19  22
ATOM     20 CL   UNL     1      -4.928   2.622 -58.841  0.00  0.00    +0.000 Cl
ATOM     21 CL   UNL     1      -5.921   0.612 -63.711  0.00  0.00    +0.000 Cl
ATOM     22  C   UNL     1      -5.922   4.152 -60.886  0.00  0.00    +0.000 A 
ATOM     23  C   UNL     1      -5.470   2.889 -60.462  0.00  0.00    +0.000 A 
ATOM     24  C   UNL     1      -6.296   4.303 -62.233  0.00  0.00    +0.000 A 
ATOM     25  C   UNL     1      -5.453   1.799 -61.335  0.00  0.00    +0.000 A 
ATOM     26  C   UNL     1      -6.280   3.215 -63.108  0.00  0.00    +0.000 A 
ATOM     27  C   UNL     1      -5.877   1.964 -62.649  0.00  0.00    +0.000 A 
ENDBRANCH  19  22
ENDBRANCH  18  19
ENDBRANCH  16  18
ENDBRANCH   5  17
TORSDOF 5
ENDMDL
MODEL 6
REMARK VINA RESULT:      -5.6      8.128     11.703
REMARK  Name = 9632200
REMARK  6 active torsions:
REMARK  status: ('A' for Active; 'I' for Inactive)
REMARK    1  A    between atoms: O_4  and  N_7
REMARK    2  A    between atoms: O_4  and  C_22
REMARK    3  A    between atoms: C_8  and  C_10
REMARK    4  A    between atoms: C_9  and  C_15
REMARK    5  A    between atoms: C_16  and  C_20
REMARK    6  A    between atoms: C_21  and  C_22
REMARK                            x       y       z     vdW  Elec       q    Type
REMARK                         _______ _______ _______ _____ _____    ______ ____
ROOT
ATOM      1  S   UNL     1      -4.435  -8.973 -52.944  0.00  0.00    +0.000 S 
ATOM      2  N   UNL     1      -5.384  -6.716 -52.163  0.00  0.00    +0.000 N 
ATOM      3  N   UNL     1      -4.962  -6.597 -54.354  0.00  0.00    +0.000 NA
ATOM      4  C   UNL     1      -5.450  -5.386 -53.885  0.00  0.00    +0.000 A 
ATOM      5  C   UNL     1      -5.773  -5.453 -52.526  0.00  0.00    +0.000 A 
ATOM      6  C   UNL     1      -4.933  -7.342 -53.286  0.00  0.00    +0.000 A 
ATOM      7  C   UNL     1      -5.356  -7.478 -51.015  0.00  0.00    +0.000 A 
ATOM      8  C   UNL     1      -4.873  -8.709 -51.244  0.00  0.00    +0.000 A 
ENDROOT
BRANCH   4   9
ATOM      9  C   UNL     1      -5.545  -4.211 -54.742  0.00  0.00    +0.000 A 
ATOM     10  C   UNL     1      -4.682  -3.128 -54.543  0.00  0.00    +0.000 A 
ATOM     11  C   UNL     1      -6.526  -4.106 -55.740  0.00  0.00    +0.000 A 
ATOM     12  C   UNL     1      -5.723  -1.909 -56.370  0.00  0.00    +0.000 A 
ATOM     13  C   UNL     1      -4.772  -1.984 -55.345  0.00  0.00    +0.000 A 
ATOM     14  C   UNL     1      -6.604  -2.976 -56.554  0.00  0.00    +0.000 A 
ATOM     15  C   UNL     1      -5.866  -0.672 -57.206  0.00  0.00    +0.000 C 
ENDBRANCH   4   9
BRANCH   5  17
ATOM     16  N   UNL     1      -5.607  -3.649 -51.011  0.00  0.00    +0.000 NA
ATOM     17  C   UNL     1      -6.356  -4.479 -51.659  0.00  0.00    +0.000 C 
BRANCH  16  18
ATOM     18  O   UNL     1      -6.422  -2.759 -50.294  0.00  0.00    +0.000 OA
BRANCH  18  19
ATOM     19  C   UNL     1      -7.356  -2.160 -51.202  0.00  0.00    +0.000 C 
BRANCH  19  22
ATOM     20 CL   UNL     1      -8.479  -1.424 -53.981  0.00  0.00    +0.000 Cl
ATOM     21 CL   UNL     1      -5.289   2.881 -53.807  0.00  0.00    +0.000 Cl
ATOM     22  C   UNL     1      -6.774  -0.944 -51.890  0.00  0.00    +0.000 A 
ATOM     23  C   UNL     1      -7.266  -0.523 -53.138  0.00  0.00    +0.000 A 
ATOM     24  C   UNL     1      -5.750  -0.187 -51.293  0.00  0.00    +0.000 A 
ATOM     25  C   UNL     1      -6.798   0.647 -53.741  0.00  0.00    +0.000 A 
ATOM     26  C   UNL     1      -5.281   0.983 -51.893  0.00  0.00    +0.000 A 
ATOM     27  C   UNL     1      -5.821   1.405 -53.104  0.00  0.00    +0.000 A 
ENDBRANCH  19  22
ENDBRANCH  18  19
ENDBRANCH  16  18
ENDBRANCH   5  17
TORSDOF 5
ENDMDL
MODEL 7
REMARK VINA RESULT:      -5.6     22.188     24.552
REMARK  Name = 9632200
REMARK  6 active torsions:
REMARK  status: ('A' for Active; 'I' for Inactive)
REMARK    1  A    between atoms: O_4  and  N_7
REMARK    2  A    between atoms: O_4  and  C_22
REMARK    3  A    between atoms: C_8  and  C_10
REMARK    4  A    between atoms: C_9  and  C_15
REMARK    5  A    between atoms: C_16  and  C_20
REMARK    6  A    between atoms: C_21  and  C_22
REMARK                            x       y       z     vdW  Elec       q    Type
REMARK                         _______ _______ _______ _____ _____    ______ ____
ROOT
ATOM      1  S   UNL     1     -22.170  -9.668 -44.801  0.00  0.00    +0.000 S 
ATOM      2  N   UNL     1     -23.951  -8.529 -46.262  0.00  0.00    +0.000 N 
ATOM      3  N   UNL     1     -22.195  -9.046 -47.544  0.00  0.00    +0.000 NA
ATOM      4  C   UNL     1     -23.171  -8.401 -48.290  0.00  0.00    +0.000 A 
ATOM      5  C   UNL     1     -24.303  -8.116 -47.521  0.00  0.00    +0.000 A 
ATOM      6  C   UNL     1     -22.709  -9.081 -46.347  0.00  0.00    +0.000 A 
ATOM      7  C   UNL     1     -24.515  -8.543 -45.005  0.00  0.00    +0.000 A 
ATOM      8  C   UNL     1     -23.702  -9.110 -44.099  0.00  0.00    +0.000 A 
ENDROOT
BRANCH   4   9
ATOM      9  C   UNL     1     -22.961  -8.048 -49.689  0.00  0.00    +0.000 A 
ATOM     10  C   UNL     1     -22.687  -9.047 -50.629  0.00  0.00    +0.000 A 
ATOM     11  C   UNL     1     -22.971  -6.713 -50.120  0.00  0.00    +0.000 A 
ATOM     12  C   UNL     1     -22.523  -7.393 -52.402  0.00  0.00    +0.000 A 
ATOM     13  C   UNL     1     -22.464  -8.724 -51.973  0.00  0.00    +0.000 A 
ATOM     14  C   UNL     1     -22.770  -6.390 -51.461  0.00  0.00    +0.000 A 
ATOM     15  C   UNL     1     -22.239  -7.022 -53.827  0.00  0.00    +0.000 C 
ENDBRANCH   4   9
BRANCH   5  17
ATOM     16  N   UNL     1     -25.766  -6.268 -47.683  0.00  0.00    +0.000 NA
ATOM     17  C   UNL     1     -25.553  -7.527 -47.886  0.00  0.00    +0.000 C 
BRANCH  16  18
ATOM     18  O   UNL     1     -27.029  -5.930 -48.192  0.00  0.00    +0.000 OA
BRANCH  18  19
ATOM     19  C   UNL     1     -26.918  -4.695 -48.913  0.00  0.00    +0.000 C 
BRANCH  19  22
ATOM     20 CL   UNL     1     -25.701  -2.344 -50.499  0.00  0.00    +0.000 Cl
ATOM     21 CL   UNL     1     -25.392  -5.697 -54.670  0.00  0.00    +0.000 Cl
ATOM     22  C   UNL     1     -26.617  -4.924 -50.379  0.00  0.00    +0.000 A 
ATOM     23  C   UNL     1     -26.022  -3.912 -51.154  0.00  0.00    +0.000 A 
ATOM     24  C   UNL     1     -26.895  -6.156 -50.999  0.00  0.00    +0.000 A 
ATOM     25  C   UNL     1     -25.658  -4.142 -52.483  0.00  0.00    +0.000 A 
ATOM     26  C   UNL     1     -26.532  -6.388 -52.327  0.00  0.00    +0.000 A 
ATOM     27  C   UNL     1     -25.897  -5.387 -53.056  0.00  0.00    +0.000 A 
ENDBRANCH  19  22
ENDBRANCH  18  19
ENDBRANCH  16  18
ENDBRANCH   5  17
TORSDOF 5
ENDMDL
MODEL 8
REMARK VINA RESULT:      -5.4     20.086     22.472
REMARK  Name = 9632200
REMARK  6 active torsions:
REMARK  status: ('A' for Active; 'I' for Inactive)
REMARK    1  A    between atoms: O_4  and  N_7
REMARK    2  A    between atoms: O_4  and  C_22
REMARK    3  A    between atoms: C_8  and  C_10
REMARK    4  A    between atoms: C_9  and  C_15
REMARK    5  A    between atoms: C_16  and  C_20
REMARK    6  A    between atoms: C_21  and  C_22
REMARK                            x       y       z     vdW  Elec       q    Type
REMARK                         _______ _______ _______ _____ _____    ______ ____
ROOT
ATOM      1  S   UNL     1     -10.494  20.711 -41.868  0.00  0.00    +0.000 S 
ATOM      2  N   UNL     1     -11.415  18.765 -43.270  0.00  0.00    +0.000 N 
ATOM      3  N   UNL     1     -13.121  20.060 -42.634  0.00  0.00    +0.000 NA
ATOM      4  C   UNL     1     -13.579  18.977 -43.371  0.00  0.00    +0.000 A 
ATOM      5  C   UNL     1     -12.524  18.182 -43.827  0.00  0.00    +0.000 A 
ATOM      6  C   UNL     1     -11.832  19.873 -42.597  0.00  0.00    +0.000 A 
ATOM      7  C   UNL     1     -10.056  18.536 -43.240  0.00  0.00    +0.000 A 
ATOM      8  C   UNL     1      -9.408  19.474 -42.531  0.00  0.00    +0.000 A 
ENDROOT
BRANCH   4   9
ATOM      9  C   UNL     1     -15.002  18.729 -43.569  0.00  0.00    +0.000 A 
ATOM     10  C   UNL     1     -15.769  18.189 -42.530  0.00  0.00    +0.000 A 
ATOM     11  C   UNL     1     -15.624  18.964 -44.804  0.00  0.00    +0.000 A 
ATOM     12  C   UNL     1     -17.755  18.210 -43.932  0.00  0.00    +0.000 A 
ATOM     13  C   UNL     1     -17.132  17.926 -42.710  0.00  0.00    +0.000 A 
ATOM     14  C   UNL     1     -16.986  18.723 -44.979  0.00  0.00    +0.000 A 
ATOM     15  C   UNL     1     -19.202  17.889 -44.158  0.00  0.00    +0.000 C 
ENDBRANCH   4   9
BRANCH   5  17
ATOM     16  N   UNL     1     -12.854  15.869 -44.176  0.00  0.00    +0.000 NA
ATOM     17  C   UNL     1     -12.525  17.021 -44.660  0.00  0.00    +0.000 C 
BRANCH  16  18
ATOM     18  O   UNL     1     -12.845  14.918 -45.209  0.00  0.00    +0.000 OA
BRANCH  18  19
ATOM     19  C   UNL     1     -13.517  15.473 -46.348  0.00  0.00    +0.000 C 
BRANCH  19  22
ATOM     20 CL   UNL     1     -15.215  16.325 -48.780  0.00  0.00    +0.000 Cl
ATOM     21 CL   UNL     1     -19.508  14.834 -45.935  0.00  0.00    +0.000 Cl
ATOM     22  C   UNL     1     -15.022  15.393 -46.210  0.00  0.00    +0.000 A 
ATOM     23  C   UNL     1     -15.859  15.723 -47.291  0.00  0.00    +0.000 A 
ATOM     24  C   UNL     1     -15.624  14.961 -45.015  0.00  0.00    +0.000 A 
ATOM     25  C   UNL     1     -17.244  15.568 -47.204  0.00  0.00    +0.000 A 
ATOM     26  C   UNL     1     -17.009  14.804 -44.926  0.00  0.00    +0.000 A 
ATOM     27  C   UNL     1     -17.810  15.090 -46.027  0.00  0.00    +0.000 A 
ENDBRANCH  19  22
ENDBRANCH  18  19
ENDBRANCH  16  18
ENDBRANCH   5  17
TORSDOF 5
ENDMDL
MODEL 9
REMARK VINA RESULT:      -5.4     13.148     15.554
REMARK  Name = 9632200
REMARK  6 active torsions:
REMARK  status: ('A' for Active; 'I' for Inactive)
REMARK    1  A    between atoms: O_4  and  N_7
REMARK    2  A    between atoms: O_4  and  C_22
REMARK    3  A    between atoms: C_8  and  C_10
REMARK    4  A    between atoms: C_9  and  C_15
REMARK    5  A    between atoms: C_16  and  C_20
REMARK    6  A    between atoms: C_21  and  C_22
REMARK                            x       y       z     vdW  Elec       q    Type
REMARK                         _______ _______ _______ _____ _____    ______ ____
ROOT
ATOM      1  S   UNL     1      -7.116  14.091 -56.956  0.00  0.00    +0.000 S 
ATOM      2  N   UNL     1      -9.345  14.168 -55.679  0.00  0.00    +0.000 N 
ATOM      3  N   UNL     1      -9.632  12.987 -57.554  0.00  0.00    +0.000 NA
ATOM      4  C   UNL     1     -10.823  13.078 -56.847  0.00  0.00    +0.000 A 
ATOM      5  C   UNL     1     -10.654  13.766 -55.642  0.00  0.00    +0.000 A 
ATOM      6  C   UNL     1      -8.796  13.663 -56.819  0.00  0.00    +0.000 A 
ATOM      7  C   UNL     1      -8.484  14.897 -54.886  0.00  0.00    +0.000 A 
ATOM      8  C   UNL     1      -7.253  14.964 -55.416  0.00  0.00    +0.000 A 
ENDROOT
BRANCH   4   9
ATOM      9  C   UNL     1     -12.072  12.542 -57.373  0.00  0.00    +0.000 A 
ATOM     10  C   UNL     1     -13.043  13.409 -57.887  0.00  0.00    +0.000 A 
ATOM     11  C   UNL     1     -12.361  11.170 -57.328  0.00  0.00    +0.000 A 
ATOM     12  C   UNL     1     -14.515  11.537 -58.374  0.00  0.00    +0.000 A 
ATOM     13  C   UNL     1     -14.257  12.913 -58.379  0.00  0.00    +0.000 A 
ATOM     14  C   UNL     1     -13.560  10.672 -57.836  0.00  0.00    +0.000 A 
ATOM     15  C   UNL     1     -15.829  10.992 -58.851  0.00  0.00    +0.000 C 
ENDBRANCH   4   9
BRANCH   5  17
ATOM     16  N   UNL     1     -12.504  14.927 -54.741  0.00  0.00    +0.000 NA
ATOM     17  C   UNL     1     -11.579  14.037 -54.587  0.00  0.00    +0.000 C 
BRANCH  16  18
ATOM     18  O   UNL     1     -13.316  14.947 -53.596  0.00  0.00    +0.000 OA
BRANCH  18  19
ATOM     19  C   UNL     1     -13.265  16.259 -53.020  0.00  0.00    +0.000 C 
BRANCH  19  22
ATOM     20 CL   UNL     1     -16.199  15.999 -52.099  0.00  0.00    +0.000 Cl
ATOM     21 CL   UNL     1     -14.304  15.798 -47.088  0.00  0.00    +0.000 Cl
ATOM     22  C   UNL     1     -13.529  16.231 -51.529  0.00  0.00    +0.000 A 
ATOM     23  C   UNL     1     -14.836  16.070 -51.036  0.00  0.00    +0.000 A 
ATOM     24  C   UNL     1     -12.479  16.334 -50.599  0.00  0.00    +0.000 A 
ATOM     25  C   UNL     1     -15.081  15.954 -49.666  0.00  0.00    +0.000 A 
ATOM     26  C   UNL     1     -12.721  16.217 -49.229  0.00  0.00    +0.000 A 
ATOM     27  C   UNL     1     -14.018  16.008 -48.770  0.00  0.00    +0.000 A 
ENDBRANCH  19  22
ENDBRANCH  18  19
ENDBRANCH  16  18
ENDBRANCH   5  17
TORSDOF 5
ENDMDL
MODEL 10
REMARK VINA RESULT:      -5.4     19.083     20.759
REMARK  Name = 9632200
REMARK  6 active torsions:
REMARK  status: ('A' for Active; 'I' for Inactive)
REMARK    1  A    between atoms: O_4  and  N_7
REMARK    2  A    between atoms: O_4  and  C_22
REMARK    3  A    between atoms: C_8  and  C_10
REMARK    4  A    between atoms: C_9  and  C_15
REMARK    5  A    between atoms: C_16  and  C_20
REMARK    6  A    between atoms: C_21  and  C_22
REMARK                            x       y       z     vdW  Elec       q    Type
REMARK                         _______ _______ _______ _____ _____    ______ ____
ROOT
ATOM      1  S   UNL     1      -6.229  21.526 -45.768  0.00  0.00    +0.000 S 
ATOM      2  N   UNL     1      -7.785  19.555 -45.220  0.00  0.00    +0.000 N 
ATOM      3  N   UNL     1      -5.671  18.914 -44.886  0.00  0.00    +0.000 NA
ATOM      4  C   UNL     1      -6.544  17.867 -44.629  0.00  0.00    +0.000 A 
ATOM      5  C   UNL     1      -7.877  18.261 -44.779  0.00  0.00    +0.000 A 
ATOM      6  C   UNL     1      -6.463  19.884 -45.245  0.00  0.00    +0.000 A 
ATOM      7  C   UNL     1      -8.647  20.560 -45.604  0.00  0.00    +0.000 A 
ATOM      8  C   UNL     1      -7.989  21.682 -45.936  0.00  0.00    +0.000 A 
ENDROOT
BRANCH   4   9
ATOM      9  C   UNL     1      -6.066  16.531 -44.296  0.00  0.00    +0.000 A 
ATOM     10  C   UNL     1      -5.827  15.600 -45.312  0.00  0.00    +0.000 A 
ATOM     11  C   UNL     1      -5.889  16.125 -42.965  0.00  0.00    +0.000 A 
ATOM     12  C   UNL     1      -5.166  13.925 -43.679  0.00  0.00    +0.000 A 
ATOM     13  C   UNL     1      -5.386  14.306 -45.008  0.00  0.00    +0.000 A 
ATOM     14  C   UNL     1      -5.430  14.843 -42.660  0.00  0.00    +0.000 A 
ATOM     15  C   UNL     1      -4.742  12.530 -43.332  0.00  0.00    +0.000 C 
ENDBRANCH   4   9
BRANCH   5  17
ATOM     16  N   UNL     1      -9.535  17.361 -43.357  0.00  0.00    +0.000 NA
ATOM     17  C   UNL     1      -9.092  17.541 -44.557  0.00  0.00    +0.000 C 
BRANCH  16  18
ATOM     18  O   UNL     1     -10.769  16.694 -43.419  0.00  0.00    +0.000 OA
BRANCH  18  19
ATOM     19  C   UNL     1     -11.591  17.342 -44.400  0.00  0.00    +0.000 C 
BRANCH  19  22
ATOM     20 CL   UNL     1     -13.961  18.011 -42.539  0.00  0.00    +0.000 Cl
ATOM     21 CL   UNL     1     -16.872  14.631 -45.513  0.00  0.00    +0.000 Cl
ATOM     22  C   UNL     1     -12.889  16.596 -44.627  0.00  0.00    +0.000 A 
ATOM     23  C   UNL     1     -14.024  16.880 -43.847  0.00  0.00    +0.000 A 
ATOM     24  C   UNL     1     -13.007  15.626 -45.638  0.00  0.00    +0.000 A 
ATOM     25  C   UNL     1     -15.250  16.263 -44.106  0.00  0.00    +0.000 A 
ATOM     26  C   UNL     1     -14.231  15.008 -45.900  0.00  0.00    +0.000 A 
ATOM     27  C   UNL     1     -15.352  15.345 -45.146  0.00  0.00    +0.000 A 
ENDBRANCH  19  22
ENDBRANCH  18  19
ENDBRANCH  16  18
ENDBRANCH   5  17
TORSDOF 5
ENDMDL
