MODEL 1
REMARK VINA RESULT:      -5.5      0.000      0.000
REMARK  Name = 9633071
REMARK  5 active torsions:
REMARK  status: ('A' for Active; 'I' for Inactive)
REMARK    1  A    between atoms: O_4  and  N_7
REMARK    2  A    between atoms: O_4  and  C_20
REMARK    3  A    between atoms: C_8  and  C_13
REMARK    4  A    between atoms: C_9  and  C_11
REMARK    5  A    between atoms: C_17  and  C_20
REMARK                            x       y       z     vdW  Elec       q    Type
REMARK                         _______ _______ _______ _____ _____    ______ ____
ROOT
ATOM      1  S   UNL     1      12.836   3.276  -0.786  0.00  0.00    +0.000 S 
ATOM      2  N   UNL     1      13.245   5.036   1.036  0.00  0.00    +0.000 N 
ATOM      3  N   UNL     1      11.155   4.275   1.232  0.00  0.00    +0.000 NA
ATOM      4  C   UNL     1      12.734   5.698   2.123  0.00  0.00    +0.000 A 
ATOM      5  C   UNL     1      11.414   5.239   2.195  0.00  0.00    +0.000 A 
ATOM      6  C   UNL     1      12.273   4.205   0.570  0.00  0.00    +0.000 A 
ATOM      7  C   UNL     1      14.445   4.977   0.362  0.00  0.00    +0.000 A 
ATOM      8  C   UNL     1      14.405   4.086  -0.647  0.00  0.00    +0.000 A 
ENDROOT
BRANCH   5   9
ATOM      9  C   UNL     1      10.394   5.689   3.133  0.00  0.00    +0.000 A 
ATOM     10  C   UNL     1      10.114   4.928   4.274  0.00  0.00    +0.000 A 
ATOM     11  C   UNL     1       9.658   6.864   2.913  0.00  0.00    +0.000 A 
ATOM     12  C   UNL     1       9.154   5.358   5.196  0.00  0.00    +0.000 A 
ATOM     13  C   UNL     1       8.716   7.304   3.843  0.00  0.00    +0.000 A 
ATOM     14  C   UNL     1       8.465   6.552   4.986  0.00  0.00    +0.000 A 
ENDBRANCH   5   9
BRANCH   4  16
ATOM     15  N   UNL     1      13.242   7.896   2.853  0.00  0.00    +0.000 NA
ATOM     16  C   UNL     1      13.439   6.622   2.958  0.00  0.00    +0.000 C 
BRANCH  15  17
ATOM     17  O   UNL     1      14.004   8.556   3.835  0.00  0.00    +0.000 OA
BRANCH  17  18
ATOM     18  C   UNL     1      14.032   7.743   5.014  0.00  0.00    +0.000 C 
BRANCH  18  21
ATOM     19 CL   UNL     1      10.657   5.705   8.443  0.00  0.00    +0.000 Cl
ATOM     20 CL   UNL     1       8.976   8.484   8.262  0.00  0.00    +0.000 Cl
ATOM     21  C   UNL     1      12.752   7.873   5.808  0.00  0.00    +0.000 A 
ATOM     22  C   UNL     1      12.309   6.857   6.669  0.00  0.00    +0.000 A 
ATOM     23  C   UNL     1      12.015   9.065   5.742  0.00  0.00    +0.000 A 
ATOM     24  C   UNL     1      11.143   7.017   7.427  0.00  0.00    +0.000 A 
ATOM     25  C   UNL     1      10.854   9.231   6.502  0.00  0.00    +0.000 A 
ATOM     26  C   UNL     1      10.415   8.208   7.347  0.00  0.00    +0.000 A 
ENDBRANCH  18  21
ENDBRANCH  17  18
ENDBRANCH  15  17
ENDBRANCH   4  16
TORSDOF 5
ENDMDL
MODEL 2
REMARK VINA RESULT:      -5.2     23.119     24.732
REMARK  Name = 9633071
REMARK  5 active torsions:
REMARK  status: ('A' for Active; 'I' for Inactive)
REMARK    1  A    between atoms: O_4  and  N_7
REMARK    2  A    between atoms: O_4  and  C_20
REMARK    3  A    between atoms: C_8  and  C_13
REMARK    4  A    between atoms: C_9  and  C_11
REMARK    5  A    between atoms: C_17  and  C_20
REMARK                            x       y       z     vdW  Elec       q    Type
REMARK                         _______ _______ _______ _____ _____    ______ ____
ROOT
ATOM      1  S   UNL     1       2.686 -19.090  -4.741  0.00  0.00    +0.000 S 
ATOM      2  N   UNL     1       3.423 -17.027  -3.403  0.00  0.00    +0.000 N 
ATOM      3  N   UNL     1       2.273 -16.347  -5.192  0.00  0.00    +0.000 NA
ATOM      4  C   UNL     1       3.384 -15.661  -3.292  0.00  0.00    +0.000 A 
ATOM      5  C   UNL     1       2.700 -15.259  -4.445  0.00  0.00    +0.000 A 
ATOM      6  C   UNL     1       2.740 -17.366  -4.530  0.00  0.00    +0.000 A 
ATOM      7  C   UNL     1       3.922 -18.086  -2.675  0.00  0.00    +0.000 A 
ATOM      8  C   UNL     1       3.622 -19.268  -3.246  0.00  0.00    +0.000 A 
ENDROOT
BRANCH   5   9
ATOM      9  C   UNL     1       2.449 -13.887  -4.865  0.00  0.00    +0.000 A 
ATOM     10  C   UNL     1       1.597 -13.072  -4.110  0.00  0.00    +0.000 A 
ATOM     11  C   UNL     1       3.025 -13.357  -6.031  0.00  0.00    +0.000 A 
ATOM     12  C   UNL     1       1.363 -11.746  -4.487  0.00  0.00    +0.000 A 
ATOM     13  C   UNL     1       2.810 -12.028  -6.395  0.00  0.00    +0.000 A 
ATOM     14  C   UNL     1       1.980 -11.221  -5.623  0.00  0.00    +0.000 A 
ENDBRANCH   5   9
BRANCH   4  16
ATOM     15  N   UNL     1       3.348 -14.866  -1.059  0.00  0.00    +0.000 NA
ATOM     16  C   UNL     1       3.922 -14.885  -2.218  0.00  0.00    +0.000 C 
BRANCH  15  17
ATOM     17  O   UNL     1       4.124 -14.087  -0.180  0.00  0.00    +0.000 OA
BRANCH  17  18
ATOM     18  C   UNL     1       5.378 -14.747   0.029  0.00  0.00    +0.000 C 
BRANCH  18  21
ATOM     19 CL   UNL     1       6.120 -19.860   0.812  0.00  0.00    +0.000 Cl
ATOM     20 CL   UNL     1       4.860 -19.467   3.786  0.00  0.00    +0.000 Cl
ATOM     21  C   UNL     1       5.226 -15.958   0.921  0.00  0.00    +0.000 A 
ATOM     22  C   UNL     1       5.676 -17.228   0.527  0.00  0.00    +0.000 A 
ATOM     23  C   UNL     1       4.685 -15.806   2.207  0.00  0.00    +0.000 A 
ATOM     24  C   UNL     1       5.563 -18.327   1.387  0.00  0.00    +0.000 A 
ATOM     25  C   UNL     1       4.578 -16.900   3.070  0.00  0.00    +0.000 A 
ATOM     26  C   UNL     1       5.017 -18.162   2.663  0.00  0.00    +0.000 A 
ENDBRANCH  18  21
ENDBRANCH  17  18
ENDBRANCH  15  17
ENDBRANCH   4  16
TORSDOF 5
ENDMDL
MODEL 3
REMARK VINA RESULT:      -5.0     31.664     33.907
REMARK  Name = 9633071
REMARK  5 active torsions:
REMARK  status: ('A' for Active; 'I' for Inactive)
REMARK    1  A    between atoms: O_4  and  N_7
REMARK    2  A    between atoms: O_4  and  C_20
REMARK    3  A    between atoms: C_8  and  C_13
REMARK    4  A    between atoms: C_9  and  C_11
REMARK    5  A    between atoms: C_17  and  C_20
REMARK                            x       y       z     vdW  Elec       q    Type
REMARK                         _______ _______ _______ _____ _____    ______ ____
ROOT
ATOM      1  S   UNL     1       3.535  -9.405  37.699  0.00  0.00    +0.000 S 
ATOM      2  N   UNL     1       5.625  -8.345  36.653  0.00  0.00    +0.000 N 
ATOM      3  N   UNL     1       4.549  -9.511  35.081  0.00  0.00    +0.000 NA
ATOM      4  C   UNL     1       6.361  -8.153  35.512  0.00  0.00    +0.000 A 
ATOM      5  C   UNL     1       5.694  -8.928  34.557  0.00  0.00    +0.000 A 
ATOM      6  C   UNL     1       4.567  -9.137  36.328  0.00  0.00    +0.000 A 
ATOM      7  C   UNL     1       5.666  -7.926  37.965  0.00  0.00    +0.000 A 
ATOM      8  C   UNL     1       4.623  -8.401  38.672  0.00  0.00    +0.000 A 
ENDROOT
BRANCH   5   9
ATOM      9  C   UNL     1       6.109  -9.142  33.177  0.00  0.00    +0.000 A 
ATOM     10  C   UNL     1       6.485 -10.422  32.753  0.00  0.00    +0.000 A 
ATOM     11  C   UNL     1       6.166  -8.086  32.253  0.00  0.00    +0.000 A 
ATOM     12  C   UNL     1       6.864 -10.649  31.427  0.00  0.00    +0.000 A 
ATOM     13  C   UNL     1       6.522  -8.315  30.925  0.00  0.00    +0.000 A 
ATOM     14  C   UNL     1       6.870  -9.597  30.510  0.00  0.00    +0.000 A 
ENDBRANCH   5   9
BRANCH   4  16
ATOM     15  N   UNL     1       8.710  -7.827  35.528  0.00  0.00    +0.000 NA
ATOM     16  C   UNL     1       7.524  -7.329  35.387  0.00  0.00    +0.000 C 
BRANCH  15  17
ATOM     17  O   UNL     1       9.659  -6.818  35.282  0.00  0.00    +0.000 OA
BRANCH  17  18
ATOM     18  C   UNL     1       9.385  -6.235  34.003  0.00  0.00    +0.000 C 
BRANCH  18  21
ATOM     19 CL   UNL     1      12.712  -8.536  30.695  0.00  0.00    +0.000 Cl
ATOM     20 CL   UNL     1      14.298  -5.701  30.503  0.00  0.00    +0.000 Cl
ATOM     21  C   UNL     1      10.632  -6.154  33.152  0.00  0.00    +0.000 A 
ATOM     22  C   UNL     1      11.081  -7.246  32.392  0.00  0.00    +0.000 A 
ATOM     23  C   UNL     1      11.327  -4.939  33.058  0.00  0.00    +0.000 A 
ATOM     24  C   UNL     1      12.215  -7.135  31.577  0.00  0.00    +0.000 A 
ATOM     25  C   UNL     1      12.455  -4.823  32.240  0.00  0.00    +0.000 A 
ATOM     26  C   UNL     1      12.901  -5.919  31.498  0.00  0.00    +0.000 A 
ENDBRANCH  18  21
ENDBRANCH  17  18
ENDBRANCH  15  17
ENDBRANCH   4  16
TORSDOF 5
ENDMDL
MODEL 4
REMARK VINA RESULT:      -5.0      1.540      2.009
REMARK  Name = 9633071
REMARK  5 active torsions:
REMARK  status: ('A' for Active; 'I' for Inactive)
REMARK    1  A    between atoms: O_4  and  N_7
REMARK    2  A    between atoms: O_4  and  C_20
REMARK    3  A    between atoms: C_8  and  C_13
REMARK    4  A    between atoms: C_9  and  C_11
REMARK    5  A    between atoms: C_17  and  C_20
REMARK                            x       y       z     vdW  Elec       q    Type
REMARK                         _______ _______ _______ _____ _____    ______ ____
ROOT
ATOM      1  S   UNL     1      12.839   3.789  -0.112  0.00  0.00    +0.000 S 
ATOM      2  N   UNL     1      13.071   5.572   1.719  0.00  0.00    +0.000 N 
ATOM      3  N   UNL     1      11.067   4.606   1.910  0.00  0.00    +0.000 NA
ATOM      4  C   UNL     1      12.497   6.174   2.809  0.00  0.00    +0.000 A 
ATOM      5  C   UNL     1      11.230   5.586   2.878  0.00  0.00    +0.000 A 
ATOM      6  C   UNL     1      12.187   4.651   1.248  0.00  0.00    +0.000 A 
ATOM      7  C   UNL     1      14.271   5.636   1.045  0.00  0.00    +0.000 A 
ATOM      8  C   UNL     1      14.320   4.751   0.032  0.00  0.00    +0.000 A 
ENDROOT
BRANCH   5   9
ATOM      9  C   UNL     1      10.170   5.927   3.819  0.00  0.00    +0.000 A 
ATOM     10  C   UNL     1      10.019   5.187   4.996  0.00  0.00    +0.000 A 
ATOM     11  C   UNL     1       9.270   6.974   3.564  0.00  0.00    +0.000 A 
ATOM     12  C   UNL     1       9.021   5.515   5.919  0.00  0.00    +0.000 A 
ATOM     13  C   UNL     1       8.289   7.317   4.495  0.00  0.00    +0.000 A 
ATOM     14  C   UNL     1       8.165   6.588   5.674  0.00  0.00    +0.000 A 
ENDBRANCH   5   9
BRANCH   4  16
ATOM     15  N   UNL     1      12.806   8.412   3.531  0.00  0.00    +0.000 NA
ATOM     16  C   UNL     1      13.107   7.159   3.649  0.00  0.00    +0.000 C 
BRANCH  15  17
ATOM     17  O   UNL     1      13.492   9.139   4.521  0.00  0.00    +0.000 OA
BRANCH  17  18
ATOM     18  C   UNL     1      13.430   8.407   5.751  0.00  0.00    +0.000 C 
BRANCH  18  21
ATOM     19 CL   UNL     1      12.121  12.276   9.011  0.00  0.00    +0.000 Cl
ATOM     20 CL   UNL     1       9.248  10.803   9.416  0.00  0.00    +0.000 Cl
ATOM     21  C   UNL     1      12.429   9.014   6.708  0.00  0.00    +0.000 A 
ATOM     22  C   UNL     1      12.679  10.227   7.369  0.00  0.00    +0.000 A 
ATOM     23  C   UNL     1      11.185   8.392   6.893  0.00  0.00    +0.000 A 
ATOM     24  C   UNL     1      11.720  10.793   8.217  0.00  0.00    +0.000 A 
ATOM     25  C   UNL     1      10.223   8.958   7.734  0.00  0.00    +0.000 A 
ATOM     26  C   UNL     1      10.487  10.159   8.398  0.00  0.00    +0.000 A 
ENDBRANCH  18  21
ENDBRANCH  17  18
ENDBRANCH  15  17
ENDBRANCH   4  16
TORSDOF 5
ENDMDL
MODEL 5
REMARK VINA RESULT:      -4.8      4.559      7.107
REMARK  Name = 9633071
REMARK  5 active torsions:
REMARK  status: ('A' for Active; 'I' for Inactive)
REMARK    1  A    between atoms: O_4  and  N_7
REMARK    2  A    between atoms: O_4  and  C_20
REMARK    3  A    between atoms: C_8  and  C_13
REMARK    4  A    between atoms: C_9  and  C_11
REMARK    5  A    between atoms: C_17  and  C_20
REMARK                            x       y       z     vdW  Elec       q    Type
REMARK                         _______ _______ _______ _____ _____    ______ ____
ROOT
ATOM      1  S   UNL     1       6.276  10.460   2.209  0.00  0.00    +0.000 S 
ATOM      2  N   UNL     1       8.182   8.748   2.357  0.00  0.00    +0.000 N 
ATOM      3  N   UNL     1       7.206   8.907   4.359  0.00  0.00    +0.000 NA
ATOM      4  C   UNL     1       8.850   7.844   3.142  0.00  0.00    +0.000 A 
ATOM      5  C   UNL     1       8.251   7.996   4.397  0.00  0.00    +0.000 A 
ATOM      6  C   UNL     1       7.220   9.326   3.126  0.00  0.00    +0.000 A 
ATOM      7  C   UNL     1       8.215   9.164   1.043  0.00  0.00    +0.000 A 
ATOM      8  C   UNL     1       7.264  10.082   0.788  0.00  0.00    +0.000 A 
ENDROOT
BRANCH   5   9
ATOM      9  C   UNL     1       8.642   7.320   5.627  0.00  0.00    +0.000 A 
ATOM     10  C   UNL     1       8.553   7.993   6.851  0.00  0.00    +0.000 A 
ATOM     11  C   UNL     1       9.135   6.005   5.620  0.00  0.00    +0.000 A 
ATOM     12  C   UNL     1       8.902   7.351   8.043  0.00  0.00    +0.000 A 
ATOM     13  C   UNL     1       9.462   5.356   6.810  0.00  0.00    +0.000 A 
ATOM     14  C   UNL     1       9.345   6.028   8.022  0.00  0.00    +0.000 A 
ENDBRANCH   5   9
BRANCH   4  16
ATOM     15  N   UNL     1      11.136   7.338   2.765  0.00  0.00    +0.000 NA
ATOM     16  C   UNL     1       9.897   6.966   2.716  0.00  0.00    +0.000 C 
BRANCH  15  17
ATOM     17  O   UNL     1      11.948   6.262   2.360  0.00  0.00    +0.000 OA
BRANCH  17  18
ATOM     18  C   UNL     1      11.116   5.118   2.141  0.00  0.00    +0.000 C 
BRANCH  18  21
ATOM     19 CL   UNL     1       9.799   4.397  -2.864  0.00  0.00    +0.000 Cl
ATOM     20 CL   UNL     1      12.494   2.604  -3.193  0.00  0.00    +0.000 Cl
ATOM     21  C   UNL     1      11.402   4.472   0.804  0.00  0.00    +0.000 A 
ATOM     22  C   UNL     1      10.576   4.682  -0.311  0.00  0.00    +0.000 A 
ATOM     23  C   UNL     1      12.561   3.696   0.646  0.00  0.00    +0.000 A 
ATOM     24  C   UNL     1      10.885   4.108  -1.550  0.00  0.00    +0.000 A 
ATOM     25  C   UNL     1      12.875   3.127  -0.592  0.00  0.00    +0.000 A 
ATOM     26  C   UNL     1      12.039   3.332  -1.693  0.00  0.00    +0.000 A 
ENDBRANCH  18  21
ENDBRANCH  17  18
ENDBRANCH  15  17
ENDBRANCH   4  16
TORSDOF 5
ENDMDL
MODEL 6
REMARK VINA RESULT:      -4.8     19.468     22.060
REMARK  Name = 9633071
REMARK  5 active torsions:
REMARK  status: ('A' for Active; 'I' for Inactive)
REMARK    1  A    between atoms: O_4  and  N_7
REMARK    2  A    between atoms: O_4  and  C_20
REMARK    3  A    between atoms: C_8  and  C_13
REMARK    4  A    between atoms: C_9  and  C_11
REMARK    5  A    between atoms: C_17  and  C_20
REMARK                            x       y       z     vdW  Elec       q    Type
REMARK                         _______ _______ _______ _____ _____    ______ ____
ROOT
ATOM      1  S   UNL     1      11.575  18.329  26.800  0.00  0.00    +0.000 S 
ATOM      2  N   UNL     1      11.125  16.072  25.665  0.00  0.00    +0.000 N 
ATOM      3  N   UNL     1       9.685  17.577  24.862  0.00  0.00    +0.000 NA
ATOM      4  C   UNL     1      10.390  15.387  24.733  0.00  0.00    +0.000 A 
ATOM      5  C   UNL     1       9.468  16.337  24.280  0.00  0.00    +0.000 A 
ATOM      6  C   UNL     1      10.672  17.355  25.680  0.00  0.00    +0.000 A 
ATOM      7  C   UNL     1      12.178  15.809  26.515  0.00  0.00    +0.000 A 
ATOM      8  C   UNL     1      12.549  16.904  27.203  0.00  0.00    +0.000 A 
ENDROOT
BRANCH   5   9
ATOM      9  C   UNL     1       8.389  16.107  23.328  0.00  0.00    +0.000 A 
ATOM     10  C   UNL     1       7.125  16.662  23.562  0.00  0.00    +0.000 A 
ATOM     11  C   UNL     1       8.574  15.318  22.182  0.00  0.00    +0.000 A 
ATOM     12  C   UNL     1       6.085  16.469  22.647  0.00  0.00    +0.000 A 
ATOM     13  C   UNL     1       7.544  15.144  21.258  0.00  0.00    +0.000 A 
ATOM     14  C   UNL     1       6.299  15.721  21.490  0.00  0.00    +0.000 A 
ENDBRANCH   5   9
BRANCH   4  16
ATOM     15  N   UNL     1      10.106  13.056  25.067  0.00  0.00    +0.000 NA
ATOM     16  C   UNL     1      10.577  14.022  24.346  0.00  0.00    +0.000 C 
BRANCH  15  17
ATOM     17  O   UNL     1      10.370  11.835  24.419  0.00  0.00    +0.000 OA
BRANCH  17  18
ATOM     18  C   UNL     1      11.505  12.008  23.563  0.00  0.00    +0.000 C 
BRANCH  18  21
ATOM     19 CL   UNL     1      10.288   7.194  21.935  0.00  0.00    +0.000 Cl
ATOM     20 CL   UNL     1      13.368   6.880  20.935  0.00  0.00    +0.000 Cl
ATOM     21  C   UNL     1      11.942  10.696  22.951  0.00  0.00    +0.000 A 
ATOM     22  C   UNL     1      11.040   9.641  22.741  0.00  0.00    +0.000 A 
ATOM     23  C   UNL     1      13.266  10.545  22.513  0.00  0.00    +0.000 A 
ATOM     24  C   UNL     1      11.458   8.451  22.132  0.00  0.00    +0.000 A 
ATOM     25  C   UNL     1      13.685   9.361  21.900  0.00  0.00    +0.000 A 
ATOM     26  C   UNL     1      12.782   8.312  21.707  0.00  0.00    +0.000 A 
ENDBRANCH  18  21
ENDBRANCH  17  18
ENDBRANCH  15  17
ENDBRANCH   4  16
TORSDOF 5
ENDMDL
MODEL 7
REMARK VINA RESULT:      -4.8     13.964     16.839
REMARK  Name = 9633071
REMARK  5 active torsions:
REMARK  status: ('A' for Active; 'I' for Inactive)
REMARK    1  A    between atoms: O_4  and  N_7
REMARK    2  A    between atoms: O_4  and  C_20
REMARK    3  A    between atoms: C_8  and  C_13
REMARK    4  A    between atoms: C_9  and  C_11
REMARK    5  A    between atoms: C_17  and  C_20
REMARK                            x       y       z     vdW  Elec       q    Type
REMARK                         _______ _______ _______ _____ _____    ______ ____
ROOT
ATOM      1  S   UNL     1      16.902  15.820  18.859  0.00  0.00    +0.000 S 
ATOM      2  N   UNL     1      15.537  13.842  17.957  0.00  0.00    +0.000 N 
ATOM      3  N   UNL     1      15.279  13.940  20.173  0.00  0.00    +0.000 NA
ATOM      4  C   UNL     1      14.672  12.821  18.251  0.00  0.00    +0.000 A 
ATOM      5  C   UNL     1      14.563  12.875  19.645  0.00  0.00    +0.000 A 
ATOM      6  C   UNL     1      15.842  14.469  19.125  0.00  0.00    +0.000 A 
ATOM      7  C   UNL     1      16.112  14.387  16.829  0.00  0.00    +0.000 A 
ATOM      8  C   UNL     1      16.877  15.454  17.125  0.00  0.00    +0.000 A 
ENDROOT
BRANCH   5   9
ATOM      9  C   UNL     1      13.818  11.950  20.489  0.00  0.00    +0.000 A 
ATOM     10  C   UNL     1      12.440  12.122  20.663  0.00  0.00    +0.000 A 
ATOM     11  C   UNL     1      14.452  10.893  21.162  0.00  0.00    +0.000 A 
ATOM     12  C   UNL     1      11.706  11.231  21.452  0.00  0.00    +0.000 A 
ATOM     13  C   UNL     1      13.718   9.990  21.930  0.00  0.00    +0.000 A 
ATOM     14  C   UNL     1      12.344  10.158  22.075  0.00  0.00    +0.000 A 
ENDBRANCH   5   9
BRANCH   4  16
ATOM     15  N   UNL     1      14.663  10.898  16.863  0.00  0.00    +0.000 NA
ATOM     16  C   UNL     1      14.046  11.945  17.308  0.00  0.00    +0.000 C 
BRANCH  15  17
ATOM     17  O   UNL     1      13.795  10.186  16.015  0.00  0.00    +0.000 OA
BRANCH  17  18
ATOM     18  C   UNL     1      14.107   8.791  16.107  0.00  0.00    +0.000 C 
BRANCH  18  21
ATOM     19 CL   UNL     1      15.273   6.296  20.548  0.00  0.00    +0.000 Cl
ATOM     20 CL   UNL     1      12.163   6.658  21.430  0.00  0.00    +0.000 Cl
ATOM     21  C   UNL     1      13.651   8.207  17.425  0.00  0.00    +0.000 A 
ATOM     22  C   UNL     1      14.546   7.576  18.303  0.00  0.00    +0.000 A 
ATOM     23  C   UNL     1      12.313   8.355  17.821  0.00  0.00    +0.000 A 
ATOM     24  C   UNL     1      14.110   7.081  19.538  0.00  0.00    +0.000 A 
ATOM     25  C   UNL     1      11.876   7.867  19.055  0.00  0.00    +0.000 A 
ATOM     26  C   UNL     1      12.772   7.229  19.917  0.00  0.00    +0.000 A 
ENDBRANCH  18  21
ENDBRANCH  17  18
ENDBRANCH  15  17
ENDBRANCH   4  16
TORSDOF 5
ENDMDL
MODEL 8
REMARK VINA RESULT:      -4.7     22.543     24.619
REMARK  Name = 9633071
REMARK  5 active torsions:
REMARK  status: ('A' for Active; 'I' for Inactive)
REMARK    1  A    between atoms: O_4  and  N_7
REMARK    2  A    between atoms: O_4  and  C_20
REMARK    3  A    between atoms: C_8  and  C_13
REMARK    4  A    between atoms: C_9  and  C_11
REMARK    5  A    between atoms: C_17  and  C_20
REMARK                            x       y       z     vdW  Elec       q    Type
REMARK                         _______ _______ _______ _____ _____    ______ ____
ROOT
ATOM      1  S   UNL     1      -1.817 -17.134  -3.749  0.00  0.00    +0.000 S 
ATOM      2  N   UNL     1       0.040 -15.740  -2.657  0.00  0.00    +0.000 N 
ATOM      3  N   UNL     1      -0.420 -14.875  -4.664  0.00  0.00    +0.000 NA
ATOM      4  C   UNL     1       0.863 -14.648  -2.762  0.00  0.00    +0.000 A 
ATOM      5  C   UNL     1       0.589 -14.154  -4.042  0.00  0.00    +0.000 A 
ATOM      6  C   UNL     1      -0.698 -15.807  -3.799  0.00  0.00    +0.000 A 
ATOM      7  C   UNL     1      -0.239 -16.708  -1.718  0.00  0.00    +0.000 A 
ATOM      8  C   UNL     1      -1.209 -17.543  -2.136  0.00  0.00    +0.000 A 
ENDROOT
BRANCH   5   9
ATOM      9  C   UNL     1       1.255 -13.034  -4.696  0.00  0.00    +0.000 A 
ATOM     10  C   UNL     1       2.049 -13.260  -5.826  0.00  0.00    +0.000 A 
ATOM     11  C   UNL     1       1.142 -11.723  -4.206  0.00  0.00    +0.000 A 
ATOM     12  C   UNL     1       2.677 -12.194  -6.478  0.00  0.00    +0.000 A 
ATOM     13  C   UNL     1       1.749 -10.657  -4.868  0.00  0.00    +0.000 A 
ATOM     14  C   UNL     1       2.516 -10.892  -6.006  0.00  0.00    +0.000 A 
ENDBRANCH   5   9
BRANCH   4  16
ATOM     15  N   UNL     1       3.032 -14.404  -1.835  0.00  0.00    +0.000 NA
ATOM     16  C   UNL     1       1.762 -14.168  -1.758  0.00  0.00    +0.000 C 
BRANCH  15  17
ATOM     17  O   UNL     1       3.679 -13.759  -0.764  0.00  0.00    +0.000 OA
BRANCH  17  18
ATOM     18  C   UNL     1       5.004 -14.290  -0.644  0.00  0.00    +0.000 C 
BRANCH  18  21
ATOM     19 CL   UNL     1       3.124 -16.931   3.454  0.00  0.00    +0.000 Cl
ATOM     20 CL   UNL     1       5.093 -19.386   2.626  0.00  0.00    +0.000 Cl
ATOM     21  C   UNL     1       5.028 -15.529   0.223  0.00  0.00    +0.000 A 
ATOM     22  C   UNL     1       4.177 -15.673   1.330  0.00  0.00    +0.000 A 
ATOM     23  C   UNL     1       5.870 -16.597  -0.121  0.00  0.00    +0.000 A 
ATOM     24  C   UNL     1       4.186 -16.847   2.093  0.00  0.00    +0.000 A 
ATOM     25  C   UNL     1       5.877 -17.772   0.634  0.00  0.00    +0.000 A 
ATOM     26  C   UNL     1       5.036 -17.901   1.742  0.00  0.00    +0.000 A 
ENDBRANCH  18  21
ENDBRANCH  17  18
ENDBRANCH  15  17
ENDBRANCH   4  16
TORSDOF 5
ENDMDL
MODEL 9
REMARK VINA RESULT:      -4.7     32.622     35.072
REMARK  Name = 9633071
REMARK  5 active torsions:
REMARK  status: ('A' for Active; 'I' for Inactive)
REMARK    1  A    between atoms: O_4  and  N_7
REMARK    2  A    between atoms: O_4  and  C_20
REMARK    3  A    between atoms: C_8  and  C_13
REMARK    4  A    between atoms: C_9  and  C_11
REMARK    5  A    between atoms: C_17  and  C_20
REMARK                            x       y       z     vdW  Elec       q    Type
REMARK                         _______ _______ _______ _____ _____    ______ ____
ROOT
ATOM      1  S   UNL     1     -20.808   0.879  24.556  0.00  0.00    +0.000 S 
ATOM      2  N   UNL     1     -18.717   2.366  24.540  0.00  0.00    +0.000 N 
ATOM      3  N   UNL     1     -18.797   1.264  26.480  0.00  0.00    +0.000 NA
ATOM      4  C   UNL     1     -17.585   2.757  25.208  0.00  0.00    +0.000 A 
ATOM      5  C   UNL     1     -17.683   2.090  26.434  0.00  0.00    +0.000 A 
ATOM      6  C   UNL     1     -19.375   1.478  25.334  0.00  0.00    +0.000 A 
ATOM      7  C   UNL     1     -19.301   2.606  23.315  0.00  0.00    +0.000 A 
ATOM      8  C   UNL     1     -20.432   1.894  23.154  0.00  0.00    +0.000 A 
ENDROOT
BRANCH   5   9
ATOM      9  C   UNL     1     -16.767   2.216  27.561  0.00  0.00    +0.000 A 
ATOM     10  C   UNL     1     -16.322   1.070  28.229  0.00  0.00    +0.000 A 
ATOM     11  C   UNL     1     -16.331   3.471  28.017  0.00  0.00    +0.000 A 
ATOM     12  C   UNL     1     -15.426   1.173  29.297  0.00  0.00    +0.000 A 
ATOM     13  C   UNL     1     -15.421   3.573  29.068  0.00  0.00    +0.000 A 
ATOM     14  C   UNL     1     -14.966   2.424  29.708  0.00  0.00    +0.000 A 
ENDBRANCH   5   9
BRANCH   4  16
ATOM     15  N   UNL     1     -15.435   3.171  24.298  0.00  0.00    +0.000 NA
ATOM     16  C   UNL     1     -16.571   3.634  24.710  0.00  0.00    +0.000 C 
BRANCH  15  17
ATOM     17  O   UNL     1     -14.663   4.237  23.800  0.00  0.00    +0.000 OA
BRANCH  17  18
ATOM     18  C   UNL     1     -15.377   4.853  22.722  0.00  0.00    +0.000 C 
BRANCH  18  21
ATOM     19 CL   UNL     1     -14.767   8.383  18.917  0.00  0.00    +0.000 Cl
ATOM     20 CL   UNL     1     -11.553   8.126  19.356  0.00  0.00    +0.000 Cl
ATOM     21  C   UNL     1     -14.455   5.655  21.833  0.00  0.00    +0.000 A 
ATOM     22  C   UNL     1     -14.948   6.555  20.874  0.00  0.00    +0.000 A 
ATOM     23  C   UNL     1     -13.066   5.557  22.009  0.00  0.00    +0.000 A 
ATOM     24  C   UNL     1     -14.074   7.319  20.091  0.00  0.00    +0.000 A 
ATOM     25  C   UNL     1     -12.192   6.323  21.233  0.00  0.00    +0.000 A 
ATOM     26  C   UNL     1     -12.693   7.205  20.273  0.00  0.00    +0.000 A 
ENDBRANCH  18  21
ENDBRANCH  17  18
ENDBRANCH  15  17
ENDBRANCH   4  16
TORSDOF 5
ENDMDL
MODEL 10
REMARK VINA RESULT:      -4.5     22.729     24.659
REMARK  Name = 9633071
REMARK  5 active torsions:
REMARK  status: ('A' for Active; 'I' for Inactive)
REMARK    1  A    between atoms: O_4  and  N_7
REMARK    2  A    between atoms: O_4  and  C_20
REMARK    3  A    between atoms: C_8  and  C_13
REMARK    4  A    between atoms: C_9  and  C_11
REMARK    5  A    between atoms: C_17  and  C_20
REMARK                            x       y       z     vdW  Elec       q    Type
REMARK                         _______ _______ _______ _____ _____    ______ ____
ROOT
ATOM      1  S   UNL     1      -1.163  22.130  19.711  0.00  0.00    +0.000 S 
ATOM      2  N   UNL     1       0.361  21.118  21.510  0.00  0.00    +0.000 N 
ATOM      3  N   UNL     1      -0.554  19.458  20.331  0.00  0.00    +0.000 NA
ATOM      4  C   UNL     1       0.895  19.974  22.048  0.00  0.00    +0.000 A 
ATOM      5  C   UNL     1       0.272  18.952  21.324  0.00  0.00    +0.000 A 
ATOM      6  C   UNL     1      -0.467  20.746  20.498  0.00  0.00    +0.000 A 
ATOM      7  C   UNL     1       0.481  22.477  21.705  0.00  0.00    +0.000 A 
ATOM      8  C   UNL     1      -0.268  23.173  20.830  0.00  0.00    +0.000 A 
ENDROOT
BRANCH   5   9
ATOM      9  C   UNL     1       0.424  17.520  21.548  0.00  0.00    +0.000 A 
ATOM     10  C   UNL     1      -0.248  16.906  22.611  0.00  0.00    +0.000 A 
ATOM     11  C   UNL     1       1.253  16.732  20.733  0.00  0.00    +0.000 A 
ATOM     12  C   UNL     1      -0.130  15.529  22.826  0.00  0.00    +0.000 A 
ATOM     13  C   UNL     1       1.353  15.355  20.933  0.00  0.00    +0.000 A 
ATOM     14  C   UNL     1       0.661  14.753  21.979  0.00  0.00    +0.000 A 
ENDBRANCH   5   9
BRANCH   4  16
ATOM     15  N   UNL     1       1.512  19.690  24.320  0.00  0.00    +0.000 NA
ATOM     16  C   UNL     1       1.868  19.907  23.094  0.00  0.00    +0.000 C 
BRANCH  15  17
ATOM     17  O   UNL     1       2.667  19.601  25.119  0.00  0.00    +0.000 OA
BRANCH  17  18
ATOM     18  C   UNL     1       2.825  18.242  25.544  0.00  0.00    +0.000 C 
BRANCH  18  21
ATOM     19 CL   UNL     1       7.768  17.715  23.935  0.00  0.00    +0.000 Cl
ATOM     20 CL   UNL     1       6.816  15.103  22.245  0.00  0.00    +0.000 Cl
ATOM     21  C   UNL     1       3.843  17.511  24.699  0.00  0.00    +0.000 A 
ATOM     22  C   UNL     1       5.195  17.887  24.679  0.00  0.00    +0.000 A 
ATOM     23  C   UNL     1       3.448  16.382  23.965  0.00  0.00    +0.000 A 
ATOM     24  C   UNL     1       6.128  17.168  23.922  0.00  0.00    +0.000 A 
ATOM     25  C   UNL     1       4.379  15.659  23.213  0.00  0.00    +0.000 A 
ATOM     26  C   UNL     1       5.720  16.049  23.190  0.00  0.00    +0.000 A 
ENDBRANCH  18  21
ENDBRANCH  17  18
ENDBRANCH  15  17
ENDBRANCH   4  16
TORSDOF 5
ENDMDL
