REMARK  Name = 9633071
REMARK  5 active torsions:
REMARK  status: ('A' for Active; 'I' for Inactive)
REMARK    1  A    between atoms: O_4  and  N_7
REMARK    2  A    between atoms: O_4  and  C_20
REMARK    3  A    between atoms: C_8  and  C_13
REMARK    4  A    between atoms: C_9  and  C_11
REMARK    5  A    between atoms: C_17  and  C_20
REMARK                            x       y       z     vdW  Elec       q    Type
REMARK                         _______ _______ _______ _____ _____    ______ ____
ROOT
ATOM      1  S   UNL     1      -4.635   2.072  -8.479  0.00  0.00    +0.000 S 
ATOM      2  N   UNL     1      -4.861   1.530  -5.981  0.00  0.00    +0.000 N 
ATOM      3  N   UNL     1      -2.765   1.101  -6.620  0.00  0.00    +0.000 NA
ATOM      4  C   UNL     1      -4.227   1.116  -4.838  0.00  0.00    +0.000 A 
ATOM      5  C   UNL     1      -2.933   0.811  -5.274  0.00  0.00    +0.000 A 
ATOM      6  C   UNL     1      -3.944   1.514  -6.986  0.00  0.00    +0.000 A 
ATOM      7  C   UNL     1      -6.117   1.972  -6.336  0.00  0.00    +0.000 A 
ATOM      8  C   UNL     1      -6.178   2.304  -7.639  0.00  0.00    +0.000 A 
ENDROOT
BRANCH   5   9
ATOM      9  C   UNL     1      -1.860   0.247  -4.465  0.00  0.00    +0.000 A 
ATOM     10  C   UNL     1      -0.527   0.543  -4.772  0.00  0.00    +0.000 A 
ATOM     11  C   UNL     1      -2.125  -0.614  -3.388  0.00  0.00    +0.000 A 
ATOM     12  C   UNL     1       0.513   0.028  -3.992  0.00  0.00    +0.000 A 
ATOM     13  C   UNL     1      -1.090  -1.110  -2.596  0.00  0.00    +0.000 A 
ATOM     14  C   UNL     1       0.230  -0.788  -2.897  0.00  0.00    +0.000 A 
ENDBRANCH   5   9
BRANCH   4  16
ATOM     15  N   UNL     1      -6.057   0.770  -3.370  0.00  0.00    +0.000 NA
ATOM     16  C   UNL     1      -4.803   1.046  -3.530  0.00  0.00    +0.000 C 
BRANCH  15  17
ATOM     17  O   UNL     1      -6.333   0.695  -1.992  0.00  0.00    +0.000 OA
BRANCH  17  18
ATOM     18  C   UNL     1      -7.448  -0.182  -1.796  0.00  0.00    +0.000 C 
BRANCH  18  21
ATOM     19 CL   UNL     1      -8.099   2.367   2.719  0.00  0.00    +0.000 Cl
ATOM     20 CL   UNL     1      -9.449  -0.340   3.917  0.00  0.00    +0.000 Cl
ATOM     21  C   UNL     1      -7.896  -0.195  -0.352  0.00  0.00    +0.000 A 
ATOM     22  C   UNL     1      -7.808   0.947   0.460  0.00  0.00    +0.000 A 
ATOM     23  C   UNL     1      -8.481  -1.354   0.180  0.00  0.00    +0.000 A 
ATOM     24  C   UNL     1      -8.269   0.924   1.782  0.00  0.00    +0.000 A 
ATOM     25  C   UNL     1      -8.948  -1.378   1.497  0.00  0.00    +0.000 A 
ATOM     26  C   UNL     1      -8.844  -0.240   2.301  0.00  0.00    +0.000 A 
ENDBRANCH  18  21
ENDBRANCH  17  18
ENDBRANCH  15  17
ENDBRANCH   4  16
TORSDOF 5
