MODEL 1
REMARK VINA RESULT:      -5.2      0.000      0.000
REMARK  Name = 9633071
REMARK  5 active torsions:
REMARK  status: ('A' for Active; 'I' for Inactive)
REMARK    1  A    between atoms: O_4  and  N_7
REMARK    2  A    between atoms: O_4  and  C_20
REMARK    3  A    between atoms: C_8  and  C_13
REMARK    4  A    between atoms: C_9  and  C_11
REMARK    5  A    between atoms: C_17  and  C_20
REMARK                            x       y       z     vdW  Elec       q    Type
REMARK                         _______ _______ _______ _____ _____    ______ ____
ROOT
ATOM      1  S   UNL     1      -5.448  -0.753 -31.537  0.00  0.00    +0.000 S 
ATOM      2  N   UNL     1      -6.095   0.584 -33.630  0.00  0.00    +0.000 N 
ATOM      3  N   UNL     1      -7.827   0.578 -32.220  0.00  0.00    +0.000 NA
ATOM      4  C   UNL     1      -7.053   1.342 -34.253  0.00  0.00    +0.000 A 
ATOM      5  C   UNL     1      -8.139   1.284 -33.372  0.00  0.00    +0.000 A 
ATOM      6  C   UNL     1      -6.606   0.179 -32.435  0.00  0.00    +0.000 A 
ATOM      7  C   UNL     1      -4.800   0.185 -33.882  0.00  0.00    +0.000 A 
ATOM      8  C   UNL     1      -4.297  -0.542 -32.868  0.00  0.00    +0.000 A 
ENDROOT
BRANCH   5   9
ATOM      9  C   UNL     1      -9.459   1.862 -33.591  0.00  0.00    +0.000 A 
ATOM     10  C   UNL     1     -10.510   1.051 -34.034  0.00  0.00    +0.000 A 
ATOM     11  C   UNL     1      -9.705   3.230 -33.390  0.00  0.00    +0.000 A 
ATOM     12  C   UNL     1     -11.787   1.586 -34.226  0.00  0.00    +0.000 A 
ATOM     13  C   UNL     1     -10.984   3.760 -33.560  0.00  0.00    +0.000 A 
ATOM     14  C   UNL     1     -12.026   2.938 -33.977  0.00  0.00    +0.000 A 
ENDBRANCH   5   9
BRANCH   4  16
ATOM     15  N   UNL     1      -6.742   3.302 -35.550  0.00  0.00    +0.000 NA
ATOM     16  C   UNL     1      -6.912   2.020 -35.504  0.00  0.00    +0.000 C 
BRANCH  15  17
ATOM     17  O   UNL     1      -6.561   3.689 -36.891  0.00  0.00    +0.000 OA
BRANCH  17  18
ATOM     18  C   UNL     1      -7.789   3.481 -37.597  0.00  0.00    +0.000 C 
BRANCH  18  21
ATOM     19 CL   UNL     1      -9.169   7.805 -35.007  0.00  0.00    +0.000 Cl
ATOM     20 CL   UNL     1     -12.256   7.154 -35.803  0.00  0.00    +0.000 Cl
ATOM     21  C   UNL     1      -8.880   4.399 -37.094  0.00  0.00    +0.000 A 
ATOM     22  C   UNL     1      -8.590   5.556 -36.354  0.00  0.00    +0.000 A 
ATOM     23  C   UNL     1     -10.216   4.133 -37.429  0.00  0.00    +0.000 A 
ATOM     24  C   UNL     1      -9.614   6.415 -35.935  0.00  0.00    +0.000 A 
ATOM     25  C   UNL     1     -11.240   4.992 -37.018  0.00  0.00    +0.000 A 
ATOM     26  C   UNL     1     -10.941   6.134 -36.271  0.00  0.00    +0.000 A 
ENDBRANCH  18  21
ENDBRANCH  17  18
ENDBRANCH  15  17
ENDBRANCH   4  16
TORSDOF 5
ENDMDL
MODEL 2
REMARK VINA RESULT:      -5.0      6.443      8.937
REMARK  Name = 9633071
REMARK  5 active torsions:
REMARK  status: ('A' for Active; 'I' for Inactive)
REMARK    1  A    between atoms: O_4  and  N_7
REMARK    2  A    between atoms: O_4  and  C_20
REMARK    3  A    between atoms: C_8  and  C_13
REMARK    4  A    between atoms: C_9  and  C_11
REMARK    5  A    between atoms: C_17  and  C_20
REMARK                            x       y       z     vdW  Elec       q    Type
REMARK                         _______ _______ _______ _____ _____    ______ ____
ROOT
ATOM      1  S   UNL     1     -15.622   8.294 -34.152  0.00  0.00    +0.000 S 
ATOM      2  N   UNL     1     -13.116   8.379 -33.605  0.00  0.00    +0.000 N 
ATOM      3  N   UNL     1     -13.432   6.956 -35.297  0.00  0.00    +0.000 NA
ATOM      4  C   UNL     1     -11.858   7.945 -33.934  0.00  0.00    +0.000 A 
ATOM      5  C   UNL     1     -12.087   7.024 -34.962  0.00  0.00    +0.000 A 
ATOM      6  C   UNL     1     -13.992   7.773 -34.452  0.00  0.00    +0.000 A 
ATOM      7  C   UNL     1     -13.678   9.257 -32.705  0.00  0.00    +0.000 A 
ATOM      8  C   UNL     1     -15.014   9.336 -32.854  0.00  0.00    +0.000 A 
ENDROOT
BRANCH   5   9
ATOM      9  C   UNL     1     -11.083   6.203 -35.626  0.00  0.00    +0.000 A 
ATOM     10  C   UNL     1     -11.479   5.098 -36.388  0.00  0.00    +0.000 A 
ATOM     11  C   UNL     1      -9.711   6.477 -35.505  0.00  0.00    +0.000 A 
ATOM     12  C   UNL     1     -10.530   4.313 -37.049  0.00  0.00    +0.000 A 
ATOM     13  C   UNL     1      -8.765   5.709 -36.183  0.00  0.00    +0.000 A 
ATOM     14  C   UNL     1      -9.174   4.627 -36.956  0.00  0.00    +0.000 A 
ENDBRANCH   5   9
BRANCH   4  16
ATOM     15  N   UNL     1     -10.249   7.918 -32.192  0.00  0.00    +0.000 NA
ATOM     16  C   UNL     1     -10.631   8.380 -33.339  0.00  0.00    +0.000 C 
BRANCH  15  17
ATOM     17  O   UNL     1      -8.986   8.456 -31.884  0.00  0.00    +0.000 OA
BRANCH  17  18
ATOM     18  C   UNL     1      -9.100   9.237 -30.689  0.00  0.00    +0.000 C 
BRANCH  18  21
ATOM     19 CL   UNL     1      -4.044  10.292 -29.895  0.00  0.00    +0.000 Cl
ATOM     20 CL   UNL     1      -4.300   8.781 -27.025  0.00  0.00    +0.000 Cl
ATOM     21  C   UNL     1      -7.868   9.106 -29.822  0.00  0.00    +0.000 A 
ATOM     22  C   UNL     1      -6.640   9.678 -30.191  0.00  0.00    +0.000 A 
ATOM     23  C   UNL     1      -7.962   8.459 -28.581  0.00  0.00    +0.000 A 
ATOM     24  C   UNL     1      -5.523   9.581 -29.351  0.00  0.00    +0.000 A 
ATOM     25  C   UNL     1      -6.851   8.366 -27.738  0.00  0.00    +0.000 A 
ATOM     26  C   UNL     1      -5.629   8.927 -28.120  0.00  0.00    +0.000 A 
ENDBRANCH  18  21
ENDBRANCH  17  18
ENDBRANCH  15  17
ENDBRANCH   4  16
TORSDOF 5
ENDMDL
MODEL 3
REMARK VINA RESULT:      -4.8     19.071     21.170
REMARK  Name = 9633071
REMARK  5 active torsions:
REMARK  status: ('A' for Active; 'I' for Inactive)
REMARK    1  A    between atoms: O_4  and  N_7
REMARK    2  A    between atoms: O_4  and  C_20
REMARK    3  A    between atoms: C_8  and  C_13
REMARK    4  A    between atoms: C_9  and  C_11
REMARK    5  A    between atoms: C_17  and  C_20
REMARK                            x       y       z     vdW  Elec       q    Type
REMARK                         _______ _______ _______ _____ _____    ______ ____
ROOT
ATOM      1  S   UNL     1      -3.963  -1.463 -58.238  0.00  0.00    +0.000 S 
ATOM      2  N   UNL     1      -4.627   0.157 -56.361  0.00  0.00    +0.000 N 
ATOM      3  N   UNL     1      -5.277  -1.903 -55.794  0.00  0.00    +0.000 NA
ATOM      4  C   UNL     1      -5.188   0.300 -55.119  0.00  0.00    +0.000 A 
ATOM      5  C   UNL     1      -5.627  -0.992 -54.808  0.00  0.00    +0.000 A 
ATOM      6  C   UNL     1      -4.696  -1.161 -56.692  0.00  0.00    +0.000 A 
ATOM      7  C   UNL     1      -4.008   0.965 -57.290  0.00  0.00    +0.000 A 
ATOM      8  C   UNL     1      -3.590   0.265 -58.360  0.00  0.00    +0.000 A 
ENDROOT
BRANCH   5   9
ATOM      9  C   UNL     1      -6.372  -1.387 -53.619  0.00  0.00    +0.000 A 
ATOM     10  C   UNL     1      -5.698  -1.589 -52.409  0.00  0.00    +0.000 A 
ATOM     11  C   UNL     1      -7.760  -1.598 -53.656  0.00  0.00    +0.000 A 
ATOM     12  C   UNL     1      -6.401  -1.947 -51.255  0.00  0.00    +0.000 A 
ATOM     13  C   UNL     1      -8.465  -1.933 -52.501  0.00  0.00    +0.000 A 
ATOM     14  C   UNL     1      -7.785  -2.106 -51.299  0.00  0.00    +0.000 A 
ENDBRANCH   5   9
BRANCH   4  16
ATOM     15  N   UNL     1      -4.212   2.017 -53.807  0.00  0.00    +0.000 NA
ATOM     16  C   UNL     1      -5.266   1.511 -54.361  0.00  0.00    +0.000 C 
BRANCH  15  17
ATOM     17  O   UNL     1      -4.562   3.235 -53.194  0.00  0.00    +0.000 OA
BRANCH  17  18
ATOM     18  C   UNL     1      -5.410   3.968 -54.085  0.00  0.00    +0.000 C 
BRANCH  18  21
ATOM     19 CL   UNL     1      -3.350   5.188 -58.729  0.00  0.00    +0.000 Cl
ATOM     20 CL   UNL     1      -2.371   8.003 -57.423  0.00  0.00    +0.000 Cl
ATOM     21  C   UNL     1      -4.617   4.930 -54.939  0.00  0.00    +0.000 A 
ATOM     22  C   UNL     1      -4.353   4.672 -56.294  0.00  0.00    +0.000 A 
ATOM     23  C   UNL     1      -4.188   6.149 -54.392  0.00  0.00    +0.000 A 
ATOM     24  C   UNL     1      -3.653   5.598 -57.077  0.00  0.00    +0.000 A 
ATOM     25  C   UNL     1      -3.495   7.078 -55.173  0.00  0.00    +0.000 A 
ATOM     26  C   UNL     1      -3.226   6.806 -56.516  0.00  0.00    +0.000 A 
ENDBRANCH  18  21
ENDBRANCH  17  18
ENDBRANCH  15  17
ENDBRANCH   4  16
TORSDOF 5
ENDMDL
MODEL 4
REMARK VINA RESULT:      -4.7     21.167     22.888
REMARK  Name = 9633071
REMARK  5 active torsions:
REMARK  status: ('A' for Active; 'I' for Inactive)
REMARK    1  A    between atoms: O_4  and  N_7
REMARK    2  A    between atoms: O_4  and  C_20
REMARK    3  A    between atoms: C_8  and  C_13
REMARK    4  A    between atoms: C_9  and  C_11
REMARK    5  A    between atoms: C_17  and  C_20
REMARK                            x       y       z     vdW  Elec       q    Type
REMARK                         _______ _______ _______ _____ _____    ______ ____
ROOT
ATOM      1  S   UNL     1     -23.580  -2.349 -52.500  0.00  0.00    +0.000 S 
ATOM      2  N   UNL     1     -25.277  -2.030 -50.602  0.00  0.00    +0.000 N 
ATOM      3  N   UNL     1     -24.272  -0.076 -51.000  0.00  0.00    +0.000 NA
ATOM      4  C   UNL     1     -25.870  -1.151 -49.733  0.00  0.00    +0.000 A 
ATOM      5  C   UNL     1     -25.193   0.050 -49.970  0.00  0.00    +0.000 A 
ATOM      6  C   UNL     1     -24.361  -1.333 -51.327  0.00  0.00    +0.000 A 
ATOM      7  C   UNL     1     -25.401  -3.362 -50.932  0.00  0.00    +0.000 A 
ATOM      8  C   UNL     1     -24.565  -3.707 -51.929  0.00  0.00    +0.000 A 
ENDROOT
BRANCH   5   9
ATOM      9  C   UNL     1     -25.380   1.304 -49.251  0.00  0.00    +0.000 A 
ATOM     10  C   UNL     1     -25.653   2.480 -49.959  0.00  0.00    +0.000 A 
ATOM     11  C   UNL     1     -25.271   1.373 -47.853  0.00  0.00    +0.000 A 
ATOM     12  C   UNL     1     -25.857   3.686 -49.282  0.00  0.00    +0.000 A 
ATOM     13  C   UNL     1     -25.497   2.571 -47.175  0.00  0.00    +0.000 A 
ATOM     14  C   UNL     1     -25.792   3.728 -47.890  0.00  0.00    +0.000 A 
ENDBRANCH   5   9
BRANCH   4  16
ATOM     15  N   UNL     1     -26.739  -2.188 -47.785  0.00  0.00    +0.000 NA
ATOM     16  C   UNL     1     -26.938  -1.447 -48.828  0.00  0.00    +0.000 C 
BRANCH  15  17
ATOM     17  O   UNL     1     -27.932  -2.253 -47.041  0.00  0.00    +0.000 OA
BRANCH  17  18
ATOM     18  C   UNL     1     -28.316  -0.923 -46.675  0.00  0.00    +0.000 C 
BRANCH  18  21
ATOM     19 CL   UNL     1     -29.238  -2.044 -41.655  0.00  0.00    +0.000 Cl
ATOM     20 CL   UNL     1     -26.984   0.167 -40.869  0.00  0.00    +0.000 Cl
ATOM     21  C   UNL     1     -28.043  -0.649 -45.213  0.00  0.00    +0.000 A 
ATOM     22  C   UNL     1     -28.684  -1.370 -44.193  0.00  0.00    +0.000 A 
ATOM     23  C   UNL     1     -27.073   0.301 -44.857  0.00  0.00    +0.000 A 
ATOM     24  C   UNL     1     -28.383  -1.129 -42.847  0.00  0.00    +0.000 A 
ATOM     25  C   UNL     1     -26.767   0.539 -43.515  0.00  0.00    +0.000 A 
ATOM     26  C   UNL     1     -27.420  -0.175 -42.507  0.00  0.00    +0.000 A 
ENDBRANCH  18  21
ENDBRANCH  17  18
ENDBRANCH  15  17
ENDBRANCH   4  16
TORSDOF 5
ENDMDL
MODEL 5
REMARK VINA RESULT:      -4.6      4.094      7.224
REMARK  Name = 9633071
REMARK  5 active torsions:
REMARK  status: ('A' for Active; 'I' for Inactive)
REMARK    1  A    between atoms: O_4  and  N_7
REMARK    2  A    between atoms: O_4  and  C_20
REMARK    3  A    between atoms: C_8  and  C_13
REMARK    4  A    between atoms: C_9  and  C_11
REMARK    5  A    between atoms: C_17  and  C_20
REMARK                            x       y       z     vdW  Elec       q    Type
REMARK                         _______ _______ _______ _____ _____    ______ ____
ROOT
ATOM      1  S   UNL     1     -13.411   5.631 -33.579  0.00  0.00    +0.000 S 
ATOM      2  N   UNL     1     -11.356   4.096 -33.670  0.00  0.00    +0.000 N 
ATOM      3  N   UNL     1     -11.011   5.835 -35.027  0.00  0.00    +0.000 NA
ATOM      4  C   UNL     1     -10.097   3.898 -34.175  0.00  0.00    +0.000 A 
ATOM      5  C   UNL     1      -9.925   4.973 -35.054  0.00  0.00    +0.000 A 
ATOM      6  C   UNL     1     -11.830   5.258 -34.196  0.00  0.00    +0.000 A 
ATOM      7  C   UNL     1     -12.198   3.466 -32.779  0.00  0.00    +0.000 A 
ATOM      8  C   UNL     1     -13.346   4.149 -32.611  0.00  0.00    +0.000 A 
ENDROOT
BRANCH   5   9
ATOM      9  C   UNL     1      -8.777   5.203 -35.921  0.00  0.00    +0.000 A 
ATOM     10  C   UNL     1      -8.393   4.222 -36.843  0.00  0.00    +0.000 A 
ATOM     11  C   UNL     1      -8.020   6.383 -35.843  0.00  0.00    +0.000 A 
ATOM     12  C   UNL     1      -7.307   4.437 -37.698  0.00  0.00    +0.000 A 
ATOM     13  C   UNL     1      -6.951   6.608 -36.711  0.00  0.00    +0.000 A 
ATOM     14  C   UNL     1      -6.595   5.635 -37.640  0.00  0.00    +0.000 A 
ENDBRANCH   5   9
BRANCH   4  16
ATOM     15  N   UNL     1      -9.332   1.663 -34.382  0.00  0.00    +0.000 NA
ATOM     16  C   UNL     1      -9.209   2.829 -33.835  0.00  0.00    +0.000 C 
BRANCH  15  17
ATOM     17  O   UNL     1      -8.291   0.834 -33.924  0.00  0.00    +0.000 OA
BRANCH  17  18
ATOM     18  C   UNL     1      -7.053   1.319 -34.455  0.00  0.00    +0.000 C 
BRANCH  18  21
ATOM     19 CL   UNL     1      -3.669   2.479 -30.647  0.00  0.00    +0.000 Cl
ATOM     20 CL   UNL     1      -2.472  -0.531 -30.954  0.00  0.00    +0.000 Cl
ATOM     21  C   UNL     1      -5.881   0.909 -33.593  0.00  0.00    +0.000 A 
ATOM     22  C   UNL     1      -5.344   1.767 -32.619  0.00  0.00    +0.000 A 
ATOM     23  C   UNL     1      -5.354  -0.385 -33.712  0.00  0.00    +0.000 A 
ATOM     24  C   UNL     1      -4.286   1.350 -31.802  0.00  0.00    +0.000 A 
ATOM     25  C   UNL     1      -4.302  -0.806 -32.893  0.00  0.00    +0.000 A 
ATOM     26  C   UNL     1      -3.766   0.059 -31.936  0.00  0.00    +0.000 A 
ENDBRANCH  18  21
ENDBRANCH  17  18
ENDBRANCH  15  17
ENDBRANCH   4  16
TORSDOF 5
ENDMDL
MODEL 6
REMARK VINA RESULT:      -4.5     21.621     24.613
REMARK  Name = 9633071
REMARK  5 active torsions:
REMARK  status: ('A' for Active; 'I' for Inactive)
REMARK    1  A    between atoms: O_4  and  N_7
REMARK    2  A    between atoms: O_4  and  C_20
REMARK    3  A    between atoms: C_8  and  C_13
REMARK    4  A    between atoms: C_9  and  C_11
REMARK    5  A    between atoms: C_17  and  C_20
REMARK                            x       y       z     vdW  Elec       q    Type
REMARK                         _______ _______ _______ _____ _____    ______ ____
ROOT
ATOM      1  S   UNL     1     -26.820   7.518 -56.433  0.00  0.00    +0.000 S 
ATOM      2  N   UNL     1     -25.087   7.144 -54.578  0.00  0.00    +0.000 N 
ATOM      3  N   UNL     1     -24.016   7.350 -56.526  0.00  0.00    +0.000 NA
ATOM      4  C   UNL     1     -23.758   7.050 -54.255  0.00  0.00    +0.000 A 
ATOM      5  C   UNL     1     -23.114   7.136 -55.494  0.00  0.00    +0.000 A 
ATOM      6  C   UNL     1     -25.169   7.335 -55.922  0.00  0.00    +0.000 A 
ATOM      7  C   UNL     1     -26.292   7.133 -53.909  0.00  0.00    +0.000 A 
ATOM      8  C   UNL     1     -27.329   7.318 -54.748  0.00  0.00    +0.000 A 
ENDROOT
BRANCH   5   9
ATOM      9  C   UNL     1     -21.682   7.012 -55.733  0.00  0.00    +0.000 A 
ATOM     10  C   UNL     1     -20.857   8.136 -55.619  0.00  0.00    +0.000 A 
ATOM     11  C   UNL     1     -21.101   5.788 -56.103  0.00  0.00    +0.000 A 
ATOM     12  C   UNL     1     -19.477   8.029 -55.823  0.00  0.00    +0.000 A 
ATOM     13  C   UNL     1     -19.723   5.675 -56.284  0.00  0.00    +0.000 A 
ATOM     14  C   UNL     1     -18.910   6.796 -56.143  0.00  0.00    +0.000 A 
ENDBRANCH   5   9
BRANCH   4  16
ATOM     15  N   UNL     1     -22.657   7.914 -52.341  0.00  0.00    +0.000 NA
ATOM     16  C   UNL     1     -23.215   6.912 -52.938  0.00  0.00    +0.000 C 
BRANCH  15  17
ATOM     17  O   UNL     1     -22.282   7.518 -51.043  0.00  0.00    +0.000 OA
BRANCH  17  18
ATOM     18  C   UNL     1     -23.103   8.213 -50.098  0.00  0.00    +0.000 C 
BRANCH  18  21
ATOM     19 CL   UNL     1     -24.926   7.102 -45.329  0.00  0.00    +0.000 Cl
ATOM     20 CL   UNL     1     -26.141   4.347 -46.563  0.00  0.00    +0.000 Cl
ATOM     21  C   UNL     1     -23.818   7.253 -49.174  0.00  0.00    +0.000 A 
ATOM     22  C   UNL     1     -24.030   7.552 -47.818  0.00  0.00    +0.000 A 
ATOM     23  C   UNL     1     -24.348   6.062 -49.690  0.00  0.00    +0.000 A 
ATOM     24  C   UNL     1     -24.733   6.667 -46.991  0.00  0.00    +0.000 A 
ATOM     25  C   UNL     1     -25.056   5.180 -48.868  0.00  0.00    +0.000 A 
ATOM     26  C   UNL     1     -25.250   5.480 -47.517  0.00  0.00    +0.000 A 
ENDBRANCH  18  21
ENDBRANCH  17  18
ENDBRANCH  15  17
ENDBRANCH   4  16
TORSDOF 5
ENDMDL
MODEL 7
REMARK VINA RESULT:      -4.5     20.233     23.009
REMARK  Name = 9633071
REMARK  5 active torsions:
REMARK  status: ('A' for Active; 'I' for Inactive)
REMARK    1  A    between atoms: O_4  and  N_7
REMARK    2  A    between atoms: O_4  and  C_20
REMARK    3  A    between atoms: C_8  and  C_13
REMARK    4  A    between atoms: C_9  and  C_11
REMARK    5  A    between atoms: C_17  and  C_20
REMARK                            x       y       z     vdW  Elec       q    Type
REMARK                         _______ _______ _______ _____ _____    ______ ____
ROOT
ATOM      1  S   UNL     1      -5.584   4.970 -61.547  0.00  0.00    +0.000 S 
ATOM      2  N   UNL     1      -4.856   3.844 -59.360  0.00  0.00    +0.000 N 
ATOM      3  N   UNL     1      -3.774   5.787 -59.560  0.00  0.00    +0.000 NA
ATOM      4  C   UNL     1      -4.100   3.940 -58.220  0.00  0.00    +0.000 A 
ATOM      5  C   UNL     1      -3.400   5.139 -58.392  0.00  0.00    +0.000 A 
ATOM      6  C   UNL     1      -4.631   4.967 -60.095  0.00  0.00    +0.000 A 
ATOM      7  C   UNL     1      -5.767   2.960 -59.896  0.00  0.00    +0.000 A 
ATOM      8  C   UNL     1      -6.258   3.402 -61.069  0.00  0.00    +0.000 A 
ENDROOT
BRANCH   5   9
ATOM      9  C   UNL     1      -2.387   5.683 -57.496  0.00  0.00    +0.000 A 
ATOM     10  C   UNL     1      -1.108   5.116 -57.466  0.00  0.00    +0.000 A 
ATOM     11  C   UNL     1      -2.666   6.757 -56.636  0.00  0.00    +0.000 A 
ATOM     12  C   UNL     1      -0.118   5.641 -56.629  0.00  0.00    +0.000 A 
ATOM     13  C   UNL     1      -1.673   7.295 -55.817  0.00  0.00    +0.000 A 
ATOM     14  C   UNL     1      -0.398   6.738 -55.814  0.00  0.00    +0.000 A 
ENDBRANCH   5   9
BRANCH   4  16
ATOM     15  N   UNL     1      -4.731   3.246 -56.042  0.00  0.00    +0.000 NA
ATOM     16  C   UNL     1      -4.083   3.006 -57.136  0.00  0.00    +0.000 C 
BRANCH  15  17
ATOM     17  O   UNL     1      -4.601   2.137 -55.185  0.00  0.00    +0.000 OA
BRANCH  17  18
ATOM     18  C   UNL     1      -5.015   2.525 -53.870  0.00  0.00    +0.000 C 
BRANCH  18  21
ATOM     19 CL   UNL     1      -8.457  -1.404 -54.004  0.00  0.00    +0.000 Cl
ATOM     20 CL   UNL     1      -7.635  -2.074 -50.928  0.00  0.00    +0.000 Cl
ATOM     21  C   UNL     1      -5.723   1.396 -53.156  0.00  0.00    +0.000 A 
ATOM     22  C   UNL     1      -6.671   0.589 -53.805  0.00  0.00    +0.000 A 
ATOM     23  C   UNL     1      -5.380   1.093 -51.829  0.00  0.00    +0.000 A 
ATOM     24  C   UNL     1      -7.282  -0.478 -53.137  0.00  0.00    +0.000 A 
ATOM     25  C   UNL     1      -5.984   0.024 -51.162  0.00  0.00    +0.000 A 
ATOM     26  C   UNL     1      -6.935  -0.764 -51.813  0.00  0.00    +0.000 A 
ENDBRANCH  18  21
ENDBRANCH  17  18
ENDBRANCH  15  17
ENDBRANCH   4  16
TORSDOF 5
ENDMDL
MODEL 8
REMARK VINA RESULT:      -4.5     14.385     17.007
REMARK  Name = 9633071
REMARK  5 active torsions:
REMARK  status: ('A' for Active; 'I' for Inactive)
REMARK    1  A    between atoms: O_4  and  N_7
REMARK    2  A    between atoms: O_4  and  C_20
REMARK    3  A    between atoms: C_8  and  C_13
REMARK    4  A    between atoms: C_9  and  C_11
REMARK    5  A    between atoms: C_17  and  C_20
REMARK                            x       y       z     vdW  Elec       q    Type
REMARK                         _______ _______ _______ _____ _____    ______ ____
ROOT
ATOM      1  S   UNL     1      -5.920  16.219 -48.871  0.00  0.00    +0.000 S 
ATOM      2  N   UNL     1      -3.801  15.472 -47.631  0.00  0.00    +0.000 N 
ATOM      3  N   UNL     1      -5.582  14.910 -46.408  0.00  0.00    +0.000 NA
ATOM      4  C   UNL     1      -3.282  14.832 -46.535  0.00  0.00    +0.000 A 
ATOM      5  C   UNL     1      -4.412  14.533 -45.766  0.00  0.00    +0.000 A 
ATOM      6  C   UNL     1      -5.155  15.470 -47.503  0.00  0.00    +0.000 A 
ATOM      7  C   UNL     1      -3.319  16.050 -48.786  0.00  0.00    +0.000 A 
ATOM      8  C   UNL     1      -4.315  16.506 -49.567  0.00  0.00    +0.000 A 
ENDROOT
BRANCH   5   9
ATOM      9  C   UNL     1      -4.419  13.914 -44.447  0.00  0.00    +0.000 A 
ATOM     10  C   UNL     1      -4.313  12.523 -44.329  0.00  0.00    +0.000 A 
ATOM     11  C   UNL     1      -4.554  14.678 -43.276  0.00  0.00    +0.000 A 
ATOM     12  C   UNL     1      -4.295  11.916 -43.069  0.00  0.00    +0.000 A 
ATOM     13  C   UNL     1      -4.514  14.075 -42.019  0.00  0.00    +0.000 A 
ATOM     14  C   UNL     1      -4.383  12.694 -41.915  0.00  0.00    +0.000 A 
ENDBRANCH   5   9
BRANCH   4  16
ATOM     15  N   UNL     1      -1.444  13.344 -46.368  0.00  0.00    +0.000 NA
ATOM     16  C   UNL     1      -1.899  14.552 -46.296  0.00  0.00    +0.000 C 
BRANCH  15  17
ATOM     17  O   UNL     1      -0.052  13.370 -46.161  0.00  0.00    +0.000 OA
BRANCH  17  18
ATOM     18  C   UNL     1       0.200  13.518 -44.759  0.00  0.00    +0.000 C 
BRANCH  18  21
ATOM     19 CL   UNL     1      -1.736  10.274 -41.149  0.00  0.00    +0.000 Cl
ATOM     20 CL   UNL     1       0.400   8.046 -42.175  0.00  0.00    +0.000 Cl
ATOM     21  C   UNL     1       0.248  12.179 -44.060  0.00  0.00    +0.000 A 
ATOM     22  C   UNL     1      -0.648  11.849 -43.030  0.00  0.00    +0.000 A 
ATOM     23  C   UNL     1       1.162  11.206 -44.491  0.00  0.00    +0.000 A 
ATOM     24  C   UNL     1      -0.614  10.587 -42.426  0.00  0.00    +0.000 A 
ATOM     25  C   UNL     1       1.195   9.943 -43.894  0.00  0.00    +0.000 A 
ATOM     26  C   UNL     1       0.308   9.629 -42.861  0.00  0.00    +0.000 A 
ENDBRANCH  18  21
ENDBRANCH  17  18
ENDBRANCH  15  17
ENDBRANCH   4  16
TORSDOF 5
ENDMDL
MODEL 9
REMARK VINA RESULT:      -4.5      5.825      8.096
REMARK  Name = 9633071
REMARK  5 active torsions:
REMARK  status: ('A' for Active; 'I' for Inactive)
REMARK    1  A    between atoms: O_4  and  N_7
REMARK    2  A    between atoms: O_4  and  C_20
REMARK    3  A    between atoms: C_8  and  C_13
REMARK    4  A    between atoms: C_9  and  C_11
REMARK    5  A    between atoms: C_17  and  C_20
REMARK                            x       y       z     vdW  Elec       q    Type
REMARK                         _______ _______ _______ _____ _____    ______ ____
ROOT
ATOM      1  S   UNL     1      -8.114   4.463 -35.962  0.00  0.00    +0.000 S 
ATOM      2  N   UNL     1     -10.254   5.554 -35.058  0.00  0.00    +0.000 N 
ATOM      3  N   UNL     1      -8.591   7.040 -34.948  0.00  0.00    +0.000 NA
ATOM      4  C   UNL     1     -10.836   6.691 -34.559  0.00  0.00    +0.000 A 
ATOM      5  C   UNL     1      -9.767   7.588 -34.458  0.00  0.00    +0.000 A 
ATOM      6  C   UNL     1      -8.940   5.831 -35.279  0.00  0.00    +0.000 A 
ATOM      7  C   UNL     1     -10.656   4.284 -35.408  0.00  0.00    +0.000 A 
ATOM      8  C   UNL     1      -9.638   3.560 -35.909  0.00  0.00    +0.000 A 
ENDROOT
BRANCH   5   9
ATOM      9  C   UNL     1      -9.821   8.936 -33.905  0.00  0.00    +0.000 A 
ATOM     10  C   UNL     1      -9.200   9.211 -32.681  0.00  0.00    +0.000 A 
ATOM     11  C   UNL     1     -10.505   9.973 -34.559  0.00  0.00    +0.000 A 
ATOM     12  C   UNL     1      -9.223  10.504 -32.148  0.00  0.00    +0.000 A 
ATOM     13  C   UNL     1     -10.510  11.267 -34.039  0.00  0.00    +0.000 A 
ATOM     14  C   UNL     1      -9.867  11.533 -32.834  0.00  0.00    +0.000 A 
ENDBRANCH   5   9
BRANCH   4  16
ATOM     15  N   UNL     1     -13.116   6.886 -35.183  0.00  0.00    +0.000 NA
ATOM     16  C   UNL     1     -12.222   6.864 -34.248  0.00  0.00    +0.000 C 
BRANCH  15  17
ATOM     17  O   UNL     1     -14.389   6.994 -34.592  0.00  0.00    +0.000 OA
BRANCH  17  18
ATOM     18  C   UNL     1     -15.240   7.735 -35.474  0.00  0.00    +0.000 C 
BRANCH  18  21
ATOM     19 CL   UNL     1     -18.740   6.393 -31.832  0.00  0.00    +0.000 Cl
ATOM     20 CL   UNL     1     -20.915   8.221 -33.418  0.00  0.00    +0.000 Cl
ATOM     21  C   UNL     1     -16.658   7.796 -34.952  0.00  0.00    +0.000 A 
ATOM     22  C   UNL     1     -17.040   7.144 -33.769  0.00  0.00    +0.000 A 
ATOM     23  C   UNL     1     -17.608   8.580 -35.624  0.00  0.00    +0.000 A 
ATOM     24  C   UNL     1     -18.349   7.250 -33.282  0.00  0.00    +0.000 A 
ATOM     25  C   UNL     1     -18.913   8.694 -35.136  0.00  0.00    +0.000 A 
ATOM     26  C   UNL     1     -19.287   8.030 -33.965  0.00  0.00    +0.000 A 
ENDBRANCH  18  21
ENDBRANCH  17  18
ENDBRANCH  15  17
ENDBRANCH   4  16
TORSDOF 5
ENDMDL
MODEL 10
REMARK VINA RESULT:      -4.5     11.395     13.919
REMARK  Name = 9633071
REMARK  5 active torsions:
REMARK  status: ('A' for Active; 'I' for Inactive)
REMARK    1  A    between atoms: O_4  and  N_7
REMARK    2  A    between atoms: O_4  and  C_20
REMARK    3  A    between atoms: C_8  and  C_13
REMARK    4  A    between atoms: C_9  and  C_11
REMARK    5  A    between atoms: C_17  and  C_20
REMARK                            x       y       z     vdW  Elec       q    Type
REMARK                         _______ _______ _______ _____ _____    ______ ____
ROOT
ATOM      1  S   UNL     1       2.870  12.140 -44.086  0.00  0.00    +0.000 S 
ATOM      2  N   UNL     1       1.153  10.738 -42.793  0.00  0.00    +0.000 N 
ATOM      3  N   UNL     1       0.118  12.515 -43.663  0.00  0.00    +0.000 NA
ATOM      4  C   UNL     1      -0.160  10.588 -42.428  0.00  0.00    +0.000 A 
ATOM      5  C   UNL     1      -0.776  11.734 -42.945  0.00  0.00    +0.000 A 
ATOM      6  C   UNL     1       1.246  11.879 -43.528  0.00  0.00    +0.000 A 
ATOM      7  C   UNL     1       2.330  10.038 -42.641  0.00  0.00    +0.000 A 
ATOM      8  C   UNL     1       3.355  10.645 -43.268  0.00  0.00    +0.000 A 
ENDROOT
BRANCH   5   9
ATOM      9  C   UNL     1      -2.171  12.115 -42.772  0.00  0.00    +0.000 A 
ATOM     10  C   UNL     1      -2.568  12.801 -41.619  0.00  0.00    +0.000 A 
ATOM     11  C   UNL     1      -3.147  11.791 -43.729  0.00  0.00    +0.000 A 
ATOM     12  C   UNL     1      -3.899  13.195 -41.448  0.00  0.00    +0.000 A 
ATOM     13  C   UNL     1      -4.470  12.202 -43.571  0.00  0.00    +0.000 A 
ATOM     14  C   UNL     1      -4.847  12.906 -42.430  0.00  0.00    +0.000 A 
ENDBRANCH   5   9
BRANCH   4  16
ATOM     15  N   UNL     1      -0.282   9.188 -40.518  0.00  0.00    +0.000 NA
ATOM     16  C   UNL     1      -0.714   9.488 -41.700  0.00  0.00    +0.000 C 
BRANCH  15  17
ATOM     17  O   UNL     1      -1.047   8.120 -40.013  0.00  0.00    +0.000 OA
BRANCH  17  18
ATOM     18  C   UNL     1      -0.174   7.017 -39.747  0.00  0.00    +0.000 C 
BRANCH  18  21
ATOM     19 CL   UNL     1      -1.873   5.000 -44.258  0.00  0.00    +0.000 Cl
ATOM     20 CL   UNL     1      -1.479   2.047 -42.951  0.00  0.00    +0.000 Cl
ATOM     21  C   UNL     1      -0.552   5.802 -40.564  0.00  0.00    +0.000 A 
ATOM     22  C   UNL     1      -1.000   5.913 -41.890  0.00  0.00    +0.000 A 
ATOM     23  C   UNL     1      -0.387   4.521 -40.015  0.00  0.00    +0.000 A 
ATOM     24  C   UNL     1      -1.303   4.771 -42.642  0.00  0.00    +0.000 A 
ATOM     25  C   UNL     1      -0.683   3.380 -40.766  0.00  0.00    +0.000 A 
ATOM     26  C   UNL     1      -1.141   3.501 -42.080  0.00  0.00    +0.000 A 
ENDBRANCH  18  21
ENDBRANCH  17  18
ENDBRANCH  15  17
ENDBRANCH   4  16
TORSDOF 5
ENDMDL
