MODEL 1
REMARK VINA RESULT:      -5.7      0.000      0.000
REMARK  Name = 9635149
REMARK  4 active torsions:
REMARK  status: ('A' for Active; 'I' for Inactive)
REMARK    1  A    between atoms: O_5  and  N_8
REMARK    2  A    between atoms: O_5  and  C_14
REMARK    3  A    between atoms: C_9  and  C_16
REMARK    4  A    between atoms: C_13  and  C_14
REMARK                            x       y       z     vdW  Elec       q    Type
REMARK                         _______ _______ _______ _____ _____    ______ ____
ROOT
ATOM      1  N   UNL     1     -13.700   7.629  21.684  0.00  0.00    +0.000 NA
ATOM      2  C   UNL     1     -13.730   6.337  21.609  0.00  0.00    +0.000 C 
ENDROOT
BRANCH   2   7
ATOM      3 CL   UNL     1     -16.186   6.297  19.402  0.00  0.00    +0.000 Cl
ATOM      4  S   UNL     1     -17.121   3.219  23.772  0.00  0.00    +0.000 S 
ATOM      5  N   UNL     1     -15.297   4.759  22.809  0.00  0.00    +0.000 N 
ATOM      6  N   UNL     1     -17.020   4.679  21.382  0.00  0.00    +0.000 NA
ATOM      7  C   UNL     1     -14.932   5.576  21.771  0.00  0.00    +0.000 A 
ATOM      8  C   UNL     1     -16.534   4.267  22.517  0.00  0.00    +0.000 A 
ATOM      9  C   UNL     1     -14.777   4.333  24.015  0.00  0.00    +0.000 A 
ATOM     10  C   UNL     1     -16.022   5.501  20.904  0.00  0.00    +0.000 A 
ATOM     11  C   UNL     1     -15.617   3.504  24.659  0.00  0.00    +0.000 A 
ENDBRANCH   2   7
BRANCH   1  12
ATOM     12  O   UNL     1     -12.370   8.038  21.451  0.00  0.00    +0.000 OA
BRANCH  12  13
ATOM     13  C   UNL     1     -11.817   7.287  20.371  0.00  0.00    +0.000 C 
BRANCH  13  16
ATOM     14 CL   UNL     1     -10.534   8.209  15.411  0.00  0.00    +0.000 Cl
ATOM     15 CL   UNL     1      -9.621  11.200  16.308  0.00  0.00    +0.000 Cl
ATOM     16  C   UNL     1     -11.263   8.250  19.347  0.00  0.00    +0.000 A 
ATOM     17  C   UNL     1     -11.153   7.871  18.000  0.00  0.00    +0.000 A 
ATOM     18  C   UNL     1     -10.882   9.546  19.717  0.00  0.00    +0.000 A 
ATOM     19  C   UNL     1     -10.649   8.763  17.044  0.00  0.00    +0.000 A 
ATOM     20  C   UNL     1     -10.378  10.438  18.765  0.00  0.00    +0.000 A 
ATOM     21  C   UNL     1     -10.257  10.048  17.428  0.00  0.00    +0.000 A 
ENDBRANCH  13  16
ENDBRANCH  12  13
ENDBRANCH   1  12
TORSDOF 4
ENDMDL
MODEL 2
REMARK VINA RESULT:      -5.6     25.207     26.341
REMARK  Name = 9635149
REMARK  4 active torsions:
REMARK  status: ('A' for Active; 'I' for Inactive)
REMARK    1  A    between atoms: O_5  and  N_8
REMARK    2  A    between atoms: O_5  and  C_14
REMARK    3  A    between atoms: C_9  and  C_16
REMARK    4  A    between atoms: C_13  and  C_14
REMARK                            x       y       z     vdW  Elec       q    Type
REMARK                         _______ _______ _______ _____ _____    ______ ____
ROOT
ATOM      1  N   UNL     1      11.740  10.222  22.098  0.00  0.00    +0.000 NA
ATOM      2  C   UNL     1      11.094   9.457  21.277  0.00  0.00    +0.000 C 
ENDROOT
BRANCH   2   7
ATOM      3 CL   UNL     1      11.008   6.175  21.620  0.00  0.00    +0.000 Cl
ATOM      4  S   UNL     1      13.901   7.854  17.347  0.00  0.00    +0.000 S 
ATOM      5  N   UNL     1      12.498   8.828  19.273  0.00  0.00    +0.000 N 
ATOM      6  N   UNL     1      12.511   6.594  19.429  0.00  0.00    +0.000 NA
ATOM      7  C   UNL     1      11.746   8.548  20.385  0.00  0.00    +0.000 A 
ATOM      8  C   UNL     1      12.918   7.635  18.762  0.00  0.00    +0.000 A 
ATOM      9  C   UNL     1      12.930   9.938  18.576  0.00  0.00    +0.000 A 
ATOM     10  C   UNL     1      11.774   7.155  20.449  0.00  0.00    +0.000 A 
ATOM     11  C   UNL     1      13.689   9.602  17.518  0.00  0.00    +0.000 A 
ENDBRANCH   2   7
BRANCH   1  12
ATOM     12  O   UNL     1      10.786  10.959  22.833  0.00  0.00    +0.000 OA
BRANCH  12  13
ATOM     13  C   UNL     1      11.172  11.011  24.206  0.00  0.00    +0.000 C 
BRANCH  13  16
ATOM     14 CL   UNL     1      13.080  14.747  27.288  0.00  0.00    +0.000 Cl
ATOM     15 CL   UNL     1      10.891  16.783  26.005  0.00  0.00    +0.000 Cl
ATOM     16  C   UNL     1      11.108  12.447  24.671  0.00  0.00    +0.000 A 
ATOM     17  C   UNL     1      12.002  12.920  25.645  0.00  0.00    +0.000 A 
ATOM     18  C   UNL     1      10.182  13.339  24.115  0.00  0.00    +0.000 A 
ATOM     19  C   UNL     1      11.954  14.253  26.074  0.00  0.00    +0.000 A 
ATOM     20  C   UNL     1      10.132  14.669  24.541  0.00  0.00    +0.000 A 
ATOM     21  C   UNL     1      11.014  15.129  25.523  0.00  0.00    +0.000 A 
ENDBRANCH  13  16
ENDBRANCH  12  13
ENDBRANCH   1  12
TORSDOF 4
ENDMDL
MODEL 3
REMARK VINA RESULT:      -5.6     20.451     21.668
REMARK  Name = 9635149
REMARK  4 active torsions:
REMARK  status: ('A' for Active; 'I' for Inactive)
REMARK    1  A    between atoms: O_5  and  N_8
REMARK    2  A    between atoms: O_5  and  C_14
REMARK    3  A    between atoms: C_9  and  C_16
REMARK    4  A    between atoms: C_13  and  C_14
REMARK                            x       y       z     vdW  Elec       q    Type
REMARK                         _______ _______ _______ _____ _____    ______ ____
ROOT
ATOM      1  N   UNL     1      -2.891 -11.469  12.959  0.00  0.00    +0.000 NA
ATOM      2  C   UNL     1      -3.799 -10.586  12.691  0.00  0.00    +0.000 C 
ENDROOT
BRANCH   2   7
ATOM      3 CL   UNL     1      -1.467  -9.090  10.897  0.00  0.00    +0.000 Cl
ATOM      4  S   UNL     1      -6.279  -9.399   8.409  0.00  0.00    +0.000 S 
ATOM      5  N   UNL     1      -5.168 -10.083  10.629  0.00  0.00    +0.000 N 
ATOM      6  N   UNL     1      -3.660  -9.043   9.342  0.00  0.00    +0.000 NA
ATOM      7  C   UNL     1      -4.018 -10.070  11.375  0.00  0.00    +0.000 A 
ATOM      8  C   UNL     1      -4.888  -9.462   9.448  0.00  0.00    +0.000 A 
ATOM      9  C   UNL     1      -6.471 -10.525  10.752  0.00  0.00    +0.000 A 
ATOM     10  C   UNL     1      -3.105  -9.420  10.546  0.00  0.00    +0.000 A 
ATOM     11  C   UNL     1      -7.202 -10.245   9.660  0.00  0.00    +0.000 A 
ENDBRANCH   2   7
BRANCH   1  12
ATOM     12  O   UNL     1      -2.974 -11.762  14.337  0.00  0.00    +0.000 OA
BRANCH  12  13
ATOM     13  C   UNL     1      -2.890 -10.555  15.092  0.00  0.00    +0.000 C 
BRANCH  13  16
ATOM     14 CL   UNL     1      -7.541  -9.221  17.014  0.00  0.00    +0.000 Cl
ATOM     15 CL   UNL     1      -6.811 -10.922  19.689  0.00  0.00    +0.000 Cl
ATOM     16  C   UNL     1      -3.876 -10.630  16.234  0.00  0.00    +0.000 A 
ATOM     17  C   UNL     1      -5.119  -9.984  16.147  0.00  0.00    +0.000 A 
ATOM     18  C   UNL     1      -3.582 -11.373  17.385  0.00  0.00    +0.000 A 
ATOM     19  C   UNL     1      -6.041 -10.058  17.199  0.00  0.00    +0.000 A 
ATOM     20  C   UNL     1      -4.499 -11.449  18.437  0.00  0.00    +0.000 A 
ATOM     21  C   UNL     1      -5.729 -10.790  18.348  0.00  0.00    +0.000 A 
ENDBRANCH  13  16
ENDBRANCH  12  13
ENDBRANCH   1  12
TORSDOF 4
ENDMDL
MODEL 4
REMARK VINA RESULT:      -5.4      2.836      3.892
REMARK  Name = 9635149
REMARK  4 active torsions:
REMARK  status: ('A' for Active; 'I' for Inactive)
REMARK    1  A    between atoms: O_5  and  N_8
REMARK    2  A    between atoms: O_5  and  C_14
REMARK    3  A    between atoms: C_9  and  C_16
REMARK    4  A    between atoms: C_13  and  C_14
REMARK                            x       y       z     vdW  Elec       q    Type
REMARK                         _______ _______ _______ _____ _____    ______ ____
ROOT
ATOM      1  N   UNL     1     -15.891   4.918  21.479  0.00  0.00    +0.000 NA
ATOM      2  C   UNL     1     -16.703   4.739  22.472  0.00  0.00    +0.000 C 
ENDROOT
BRANCH   2   7
ATOM      3 CL   UNL     1     -15.587   3.431  25.290  0.00  0.00    +0.000 Cl
ATOM      4  S   UNL     1     -18.976   0.187  22.562  0.00  0.00    +0.000 S 
ATOM      5  N   UNL     1     -17.918   2.527  22.372  0.00  0.00    +0.000 N 
ATOM      6  N   UNL     1     -17.207   1.549  24.256  0.00  0.00    +0.000 NA
ATOM      7  C   UNL     1     -17.076   3.442  22.948  0.00  0.00    +0.000 A 
ATOM      8  C   UNL     1     -17.948   1.437  23.192  0.00  0.00    +0.000 A 
ATOM      9  C   UNL     1     -18.695   2.415  21.237  0.00  0.00    +0.000 A 
ATOM     10  C   UNL     1     -16.656   2.804  24.114  0.00  0.00    +0.000 A 
ATOM     11  C   UNL     1     -19.331   1.232  21.178  0.00  0.00    +0.000 A 
ENDBRANCH   2   7
BRANCH   1  12
ATOM     12  O   UNL     1     -15.732   6.309  21.303  0.00  0.00    +0.000 OA
BRANCH  12  13
ATOM     13  C   UNL     1     -14.493   6.728  21.874  0.00  0.00    +0.000 C 
BRANCH  13  16
ATOM     14 CL   UNL     1     -13.790   8.470  17.019  0.00  0.00    +0.000 Cl
ATOM     15 CL   UNL     1     -10.591   8.055  17.441  0.00  0.00    +0.000 Cl
ATOM     16  C   UNL     1     -13.532   7.056  20.756  0.00  0.00    +0.000 A 
ATOM     17  C   UNL     1     -14.006   7.558  19.533  0.00  0.00    +0.000 A 
ATOM     18  C   UNL     1     -12.151   6.898  20.929  0.00  0.00    +0.000 A 
ATOM     19  C   UNL     1     -13.120   7.872  18.495  0.00  0.00    +0.000 A 
ATOM     20  C   UNL     1     -11.264   7.211  19.895  0.00  0.00    +0.000 A 
ATOM     21  C   UNL     1     -11.745   7.695  18.675  0.00  0.00    +0.000 A 
ENDBRANCH  13  16
ENDBRANCH  12  13
ENDBRANCH   1  12
TORSDOF 4
ENDMDL
MODEL 5
REMARK VINA RESULT:      -5.4     26.916     29.260
REMARK  Name = 9635149
REMARK  4 active torsions:
REMARK  status: ('A' for Active; 'I' for Inactive)
REMARK    1  A    between atoms: O_5  and  N_8
REMARK    2  A    between atoms: O_5  and  C_14
REMARK    3  A    between atoms: C_9  and  C_16
REMARK    4  A    between atoms: C_13  and  C_14
REMARK                            x       y       z     vdW  Elec       q    Type
REMARK                         _______ _______ _______ _____ _____    ______ ____
ROOT
ATOM      1  N   UNL     1      14.292  10.179  15.676  0.00  0.00    +0.000 NA
ATOM      2  C   UNL     1      14.113   8.925  15.942  0.00  0.00    +0.000 C 
ENDROOT
BRANCH   2   7
ATOM      3 CL   UNL     1      10.819   9.126  15.906  0.00  0.00    +0.000 Cl
ATOM      4  S   UNL     1      12.825   6.918  20.438  0.00  0.00    +0.000 S 
ATOM      5  N   UNL     1      13.643   7.891  18.199  0.00  0.00    +0.000 N 
ATOM      6  N   UNL     1      11.408   7.997  18.275  0.00  0.00    +0.000 NA
ATOM      7  C   UNL     1      13.277   8.468  17.011  0.00  0.00    +0.000 A 
ATOM      8  C   UNL     1      12.496   7.642  18.894  0.00  0.00    +0.000 A 
ATOM      9  C   UNL     1      14.803   7.524  18.851  0.00  0.00    +0.000 A 
ATOM     10  C   UNL     1      11.886   8.516  17.091  0.00  0.00    +0.000 A 
ATOM     11  C   UNL     1      14.552   6.986  20.058  0.00  0.00    +0.000 A 
ENDBRANCH   2   7
BRANCH   1  12
ATOM     12  O   UNL     1      15.146  10.259  14.555  0.00  0.00    +0.000 OA
BRANCH  12  13
ATOM     13  C   UNL     1      15.475  11.623  14.296  0.00  0.00    +0.000 C 
BRANCH  13  16
ATOM     14 CL   UNL     1      20.654  11.100  14.229  0.00  0.00    +0.000 Cl
ATOM     15 CL   UNL     1      20.772  12.918  16.923  0.00  0.00    +0.000 Cl
ATOM     16  C   UNL     1      16.804  11.932  14.945  0.00  0.00    +0.000 A 
ATOM     17  C   UNL     1      17.998  11.453  14.384  0.00  0.00    +0.000 A 
ATOM     18  C   UNL     1      16.871  12.727  16.096  0.00  0.00    +0.000 A 
ATOM     19  C   UNL     1      19.235  11.742  14.976  0.00  0.00    +0.000 A 
ATOM     20  C   UNL     1      18.103  13.018  16.689  0.00  0.00    +0.000 A 
ATOM     21  C   UNL     1      19.287  12.524  16.133  0.00  0.00    +0.000 A 
ENDBRANCH  13  16
ENDBRANCH  12  13
ENDBRANCH   1  12
TORSDOF 4
ENDMDL
MODEL 6
REMARK VINA RESULT:      -5.3     19.909     20.647
REMARK  Name = 9635149
REMARK  4 active torsions:
REMARK  status: ('A' for Active; 'I' for Inactive)
REMARK    1  A    between atoms: O_5  and  N_8
REMARK    2  A    between atoms: O_5  and  C_14
REMARK    3  A    between atoms: C_9  and  C_16
REMARK    4  A    between atoms: C_13  and  C_14
REMARK                            x       y       z     vdW  Elec       q    Type
REMARK                         _______ _______ _______ _____ _____    ______ ____
ROOT
ATOM      1  N   UNL     1      -5.090 -13.062  16.126  0.00  0.00    +0.000 NA
ATOM      2  C   UNL     1      -5.447 -11.897  16.563  0.00  0.00    +0.000 C 
ENDROOT
BRANCH   2   7
ATOM      3 CL   UNL     1      -4.050 -11.973  19.553  0.00  0.00    +0.000 Cl
ATOM      4  S   UNL     1      -9.406 -11.108  19.662  0.00  0.00    +0.000 S 
ATOM      5  N   UNL     1      -7.511 -11.481  17.959  0.00  0.00    +0.000 N 
ATOM      6  N   UNL     1      -6.660 -11.530  20.029  0.00  0.00    +0.000 NA
ATOM      7  C   UNL     1      -6.171 -11.711  17.783  0.00  0.00    +0.000 A 
ATOM      8  C   UNL     1      -7.730 -11.387  19.301  0.00  0.00    +0.000 A 
ATOM      9  C   UNL     1      -8.642 -11.337  17.180  0.00  0.00    +0.000 A 
ATOM     10  C   UNL     1      -5.675 -11.733  19.086  0.00  0.00    +0.000 A 
ATOM     11  C   UNL     1      -9.742 -11.130  17.924  0.00  0.00    +0.000 A 
ENDBRANCH   2   7
BRANCH   1  12
ATOM     12  O   UNL     1      -4.379 -12.867  14.923  0.00  0.00    +0.000 OA
BRANCH  12  13
ATOM     13  C   UNL     1      -3.629 -11.656  14.998  0.00  0.00    +0.000 C 
BRANCH  13  16
ATOM     14 CL   UNL     1      -0.885  -9.307  11.249  0.00  0.00    +0.000 Cl
ATOM     15 CL   UNL     1      -3.623  -9.117   9.503  0.00  0.00    +0.000 Cl
ATOM     16  C   UNL     1      -3.613 -11.012  13.631  0.00  0.00    +0.000 A 
ATOM     17  C   UNL     1      -2.418 -10.507  13.095  0.00  0.00    +0.000 A 
ATOM     18  C   UNL     1      -4.782 -10.938  12.862  0.00  0.00    +0.000 A 
ATOM     19  C   UNL     1      -2.395  -9.916  11.825  0.00  0.00    +0.000 A 
ATOM     20  C   UNL     1      -4.762 -10.350  11.594  0.00  0.00    +0.000 A 
ATOM     21  C   UNL     1      -3.571  -9.835  11.073  0.00  0.00    +0.000 A 
ENDBRANCH  13  16
ENDBRANCH  12  13
ENDBRANCH   1  12
TORSDOF 4
ENDMDL
MODEL 7
REMARK VINA RESULT:      -5.3     32.188     34.167
REMARK  Name = 9635149
REMARK  4 active torsions:
REMARK  status: ('A' for Active; 'I' for Inactive)
REMARK    1  A    between atoms: O_5  and  N_8
REMARK    2  A    between atoms: O_5  and  C_14
REMARK    3  A    between atoms: C_9  and  C_16
REMARK    4  A    between atoms: C_13  and  C_14
REMARK                            x       y       z     vdW  Elec       q    Type
REMARK                         _______ _______ _______ _____ _____    ______ ____
ROOT
ATOM      1  N   UNL     1      19.803   6.476  22.999  0.00  0.00    +0.000 NA
ATOM      2  C   UNL     1      19.505   6.742  21.767  0.00  0.00    +0.000 C 
ENDROOT
BRANCH   2   7
ATOM      3 CL   UNL     1      19.421   9.908  22.697  0.00  0.00    +0.000 Cl
ATOM      4  S   UNL     1      15.199   8.415  19.633  0.00  0.00    +0.000 S 
ATOM      5  N   UNL     1      17.352   7.416  20.631  0.00  0.00    +0.000 N 
ATOM      6  N   UNL     1      17.198   9.570  21.221  0.00  0.00    +0.000 NA
ATOM      7  C   UNL     1      18.464   7.651  21.397  0.00  0.00    +0.000 A 
ATOM      8  C   UNL     1      16.651   8.584  20.570  0.00  0.00    +0.000 A 
ATOM      9  C   UNL     1      16.776   6.363  19.948  0.00  0.00    +0.000 A 
ATOM     10  C   UNL     1      18.337   8.996  21.743  0.00  0.00    +0.000 A 
ATOM     11  C   UNL     1      15.623   6.719  19.356  0.00  0.00    +0.000 A 
ENDBRANCH   2   7
BRANCH   1  12
ATOM     12  O   UNL     1      20.884   5.569  22.990  0.00  0.00    +0.000 OA
BRANCH  12  13
ATOM     13  C   UNL     1      21.234   5.251  21.644  0.00  0.00    +0.000 C 
BRANCH  13  16
ATOM     14 CL   UNL     1      25.378   3.068  19.372  0.00  0.00    +0.000 Cl
ATOM     15 CL   UNL     1      25.430   0.890  21.788  0.00  0.00    +0.000 Cl
ATOM     16  C   UNL     1      22.283   4.163  21.662  0.00  0.00    +0.000 A 
ATOM     17  C   UNL     1      23.253   4.092  20.649  0.00  0.00    +0.000 A 
ATOM     18  C   UNL     1      22.327   3.230  22.705  0.00  0.00    +0.000 A 
ATOM     19  C   UNL     1      24.233   3.091  20.665  0.00  0.00    +0.000 A 
ATOM     20  C   UNL     1      23.304   2.230  22.724  0.00  0.00    +0.000 A 
ATOM     21  C   UNL     1      24.257   2.156  21.704  0.00  0.00    +0.000 A 
ENDBRANCH  13  16
ENDBRANCH  12  13
ENDBRANCH   1  12
TORSDOF 4
ENDMDL
MODEL 8
REMARK VINA RESULT:      -5.2     15.945     17.079
REMARK  Name = 9635149
REMARK  4 active torsions:
REMARK  status: ('A' for Active; 'I' for Inactive)
REMARK    1  A    between atoms: O_5  and  N_8
REMARK    2  A    between atoms: O_5  and  C_14
REMARK    3  A    between atoms: C_9  and  C_16
REMARK    4  A    between atoms: C_13  and  C_14
REMARK                            x       y       z     vdW  Elec       q    Type
REMARK                         _______ _______ _______ _____ _____    ______ ____
ROOT
ATOM      1  N   UNL     1      -9.548  -8.283  17.201  0.00  0.00    +0.000 NA
ATOM      2  C   UNL     1      -9.485  -9.573  17.306  0.00  0.00    +0.000 C 
ENDROOT
BRANCH   2   7
ATOM      3 CL   UNL     1     -10.085 -11.124  20.157  0.00  0.00    +0.000 Cl
ATOM      4  S   UNL     1      -4.883 -11.302  18.621  0.00  0.00    +0.000 S 
ATOM      5  N   UNL     1      -7.141 -10.371  17.805  0.00  0.00    +0.000 N 
ATOM      6  N   UNL     1      -7.444 -11.436  19.752  0.00  0.00    +0.000 NA
ATOM      7  C   UNL     1      -8.479 -10.242  18.073  0.00  0.00    +0.000 A 
ATOM      8  C   UNL     1      -6.593 -11.081  18.833  0.00  0.00    +0.000 A 
ATOM      9  C   UNL     1      -6.244  -9.985  16.830  0.00  0.00    +0.000 A 
ATOM     10  C   UNL     1      -8.632 -10.916  19.284  0.00  0.00    +0.000 A 
ATOM     11  C   UNL     1      -4.995 -10.398  17.103  0.00  0.00    +0.000 A 
ENDBRANCH   2   7
BRANCH   1  12
ATOM     12  O   UNL     1     -10.668  -7.975  16.400  0.00  0.00    +0.000 OA
BRANCH  12  13
ATOM     13  C   UNL     1     -11.097  -6.640  16.665  0.00  0.00    +0.000 C 
BRANCH  13  16
ATOM     14 CL   UNL     1     -12.291  -4.078  12.294  0.00  0.00    +0.000 Cl
ATOM     15 CL   UNL     1     -15.337  -5.176  12.601  0.00  0.00    +0.000 Cl
ATOM     16  C   UNL     1     -12.147  -6.260  15.647  0.00  0.00    +0.000 A 
ATOM     17  C   UNL     1     -11.815  -5.446  14.552  0.00  0.00    +0.000 A 
ATOM     18  C   UNL     1     -13.458  -6.740  15.758  0.00  0.00    +0.000 A 
ATOM     19  C   UNL     1     -12.782  -5.096  13.600  0.00  0.00    +0.000 A 
ATOM     20  C   UNL     1     -14.425  -6.393  14.809  0.00  0.00    +0.000 A 
ATOM     21  C   UNL     1     -14.091  -5.569  13.730  0.00  0.00    +0.000 A 
ENDBRANCH  13  16
ENDBRANCH  12  13
ENDBRANCH   1  12
TORSDOF 4
ENDMDL
MODEL 9
REMARK VINA RESULT:      -5.2      2.813      4.022
REMARK  Name = 9635149
REMARK  4 active torsions:
REMARK  status: ('A' for Active; 'I' for Inactive)
REMARK    1  A    between atoms: O_5  and  N_8
REMARK    2  A    between atoms: O_5  and  C_14
REMARK    3  A    between atoms: C_9  and  C_16
REMARK    4  A    between atoms: C_13  and  C_14
REMARK                            x       y       z     vdW  Elec       q    Type
REMARK                         _______ _______ _______ _____ _____    ______ ____
ROOT
ATOM      1  N   UNL     1     -15.574   4.109  22.457  0.00  0.00    +0.000 NA
ATOM      2  C   UNL     1     -16.502   4.146  23.359  0.00  0.00    +0.000 C 
ENDROOT
BRANCH   2   7
ATOM      3 CL   UNL     1     -18.091   1.520  22.143  0.00  0.00    +0.000 Cl
ATOM      4  S   UNL     1     -17.009   1.159  27.448  0.00  0.00    +0.000 S 
ATOM      5  N   UNL     1     -16.657   2.779  25.478  0.00  0.00    +0.000 N 
ATOM      6  N   UNL     1     -17.746   0.963  24.752  0.00  0.00    +0.000 NA
ATOM      7  C   UNL     1     -16.870   3.006  24.143  0.00  0.00    +0.000 A 
ATOM      8  C   UNL     1     -17.199   1.562  25.770  0.00  0.00    +0.000 A 
ATOM      9  C   UNL     1     -16.081   3.425  26.554  0.00  0.00    +0.000 A 
ATOM     10  C   UNL     1     -17.544   1.860  23.725  0.00  0.00    +0.000 A 
ATOM     11  C   UNL     1     -16.176   2.703  27.683  0.00  0.00    +0.000 A 
ENDBRANCH   2   7
BRANCH   1  12
ATOM     12  O   UNL     1     -15.463   5.403  21.907  0.00  0.00    +0.000 OA
BRANCH  12  13
ATOM     13  C   UNL     1     -14.252   6.014  22.353  0.00  0.00    +0.000 C 
BRANCH  13  16
ATOM     14 CL   UNL     1     -14.633   8.629  17.867  0.00  0.00    +0.000 Cl
ATOM     15 CL   UNL     1     -11.393   8.477  17.620  0.00  0.00    +0.000 Cl
ATOM     16  C   UNL     1     -13.553   6.626  21.162  0.00  0.00    +0.000 A 
ATOM     17  C   UNL     1     -14.291   7.280  20.162  0.00  0.00    +0.000 A 
ATOM     18  C   UNL     1     -12.158   6.583  21.051  0.00  0.00    +0.000 A 
ATOM     19  C   UNL     1     -13.648   7.858  19.059  0.00  0.00    +0.000 A 
ATOM     20  C   UNL     1     -11.513   7.158  19.952  0.00  0.00    +0.000 A 
ATOM     21  C   UNL     1     -12.256   7.794  18.952  0.00  0.00    +0.000 A 
ENDBRANCH  13  16
ENDBRANCH  12  13
ENDBRANCH   1  12
TORSDOF 4
ENDMDL
MODEL 10
REMARK VINA RESULT:      -5.1     17.629     18.924
REMARK  Name = 9635149
REMARK  4 active torsions:
REMARK  status: ('A' for Active; 'I' for Inactive)
REMARK    1  A    between atoms: O_5  and  N_8
REMARK    2  A    between atoms: O_5  and  C_14
REMARK    3  A    between atoms: C_9  and  C_16
REMARK    4  A    between atoms: C_13  and  C_14
REMARK                            x       y       z     vdW  Elec       q    Type
REMARK                         _______ _______ _______ _____ _____    ______ ____
ROOT
ATOM      1  N   UNL     1      -7.430  -9.210  16.599  0.00  0.00    +0.000 NA
ATOM      2  C   UNL     1      -6.922 -10.321  16.169  0.00  0.00    +0.000 C 
ENDROOT
BRANCH   2   7
ATOM      3 CL   UNL     1      -5.022 -10.897  18.806  0.00  0.00    +0.000 Cl
ATOM      4  S   UNL     1      -2.301 -10.875  14.111  0.00  0.00    +0.000 S 
ATOM      5  N   UNL     1      -4.703 -10.583  14.990  0.00  0.00    +0.000 N 
ATOM      6  N   UNL     1      -3.330 -10.967  16.716  0.00  0.00    +0.000 NA
ATOM      7  C   UNL     1      -5.512 -10.554  16.097  0.00  0.00    +0.000 A 
ATOM      8  C   UNL     1      -3.435 -10.828  15.426  0.00  0.00    +0.000 A 
ATOM      9  C   UNL     1      -4.822 -10.427  13.624  0.00  0.00    +0.000 A 
ATOM     10  C   UNL     1      -4.629 -10.798  17.147  0.00  0.00    +0.000 A 
ATOM     11  C   UNL     1      -3.639 -10.554  12.999  0.00  0.00    +0.000 A 
ENDBRANCH   2   7
BRANCH   1  12
ATOM     12  O   UNL     1      -8.835  -9.340  16.557  0.00  0.00    +0.000 OA
BRANCH  12  13
ATOM     13  C   UNL     1      -9.435  -8.355  17.397  0.00  0.00    +0.000 C 
BRANCH  13  16
ATOM     14 CL   UNL     1     -12.086  -5.242  14.175  0.00  0.00    +0.000 Cl
ATOM     15 CL   UNL     1     -14.792  -6.837  15.023  0.00  0.00    +0.000 Cl
ATOM     16  C   UNL     1     -10.766  -7.959  16.802  0.00  0.00    +0.000 A 
ATOM     17  C   UNL     1     -10.846  -6.915  15.868  0.00  0.00    +0.000 A 
ATOM     18  C   UNL     1     -11.937  -8.648  17.145  0.00  0.00    +0.000 A 
ATOM     19  C   UNL     1     -12.076  -6.549  15.306  0.00  0.00    +0.000 A 
ATOM     20  C   UNL     1     -13.165  -8.286  16.586  0.00  0.00    +0.000 A 
ATOM     21  C   UNL     1     -13.239  -7.234  15.668  0.00  0.00    +0.000 A 
ENDBRANCH  13  16
ENDBRANCH  12  13
ENDBRANCH   1  12
TORSDOF 4
ENDMDL
