MODEL 1
REMARK VINA RESULT:      -5.5      0.000      0.000
REMARK  Name = 9635149
REMARK  4 active torsions:
REMARK  status: ('A' for Active; 'I' for Inactive)
REMARK    1  A    between atoms: O_5  and  N_8
REMARK    2  A    between atoms: O_5  and  C_14
REMARK    3  A    between atoms: C_9  and  C_16
REMARK    4  A    between atoms: C_13  and  C_14
REMARK                            x       y       z     vdW  Elec       q    Type
REMARK                         _______ _______ _______ _____ _____    ______ ____
ROOT
ATOM      1  N   UNL     1      -5.628   3.135 -53.515  0.00  0.00    +0.000 NA
ATOM      2  C   UNL     1      -5.422   1.872 -53.710  0.00  0.00    +0.000 C 
ENDROOT
BRANCH   2   7
ATOM      3 CL   UNL     1      -3.883   1.526 -50.810  0.00  0.00    +0.000 Cl
ATOM      4  S   UNL     1      -7.837  -2.098 -51.633  0.00  0.00    +0.000 S 
ATOM      5  N   UNL     1      -6.730  -0.097 -52.816  0.00  0.00    +0.000 N 
ATOM      6  N   UNL     1      -5.739  -0.420 -50.834  0.00  0.00    +0.000 NA
ATOM      7  C   UNL     1      -5.760   0.870 -52.745  0.00  0.00    +0.000 A 
ATOM      8  C   UNL     1      -6.660  -0.820 -51.662  0.00  0.00    +0.000 A 
ATOM      9  C   UNL     1      -7.700  -0.519 -53.703  0.00  0.00    +0.000 A 
ATOM     10  C   UNL     1      -5.168   0.642 -51.504  0.00  0.00    +0.000 A 
ATOM     11  C   UNL     1      -8.386  -1.574 -53.232  0.00  0.00    +0.000 A 
ENDBRANCH   2   7
BRANCH   1  12
ATOM     12  O   UNL     1      -5.202   3.820 -54.673  0.00  0.00    +0.000 OA
BRANCH  12  13
ATOM     13  C   UNL     1      -4.633   5.077 -54.307  0.00  0.00    +0.000 C 
BRANCH  13  16
ATOM     14 CL   UNL     1      -3.689   4.783 -59.418  0.00  0.00    +0.000 Cl
ATOM     15 CL   UNL     1      -2.136   7.633 -59.193  0.00  0.00    +0.000 Cl
ATOM     16  C   UNL     1      -4.008   5.698 -55.534  0.00  0.00    +0.000 A 
ATOM     17  C   UNL     1      -4.105   5.064 -56.782  0.00  0.00    +0.000 A 
ATOM     18  C   UNL     1      -3.351   6.933 -55.454  0.00  0.00    +0.000 A 
ATOM     19  C   UNL     1      -3.535   5.639 -57.925  0.00  0.00    +0.000 A 
ATOM     20  C   UNL     1      -2.781   7.510 -56.593  0.00  0.00    +0.000 A 
ATOM     21  C   UNL     1      -2.869   6.864 -57.830  0.00  0.00    +0.000 A 
ENDBRANCH  13  16
ENDBRANCH  12  13
ENDBRANCH   1  12
TORSDOF 4
ENDMDL
MODEL 2
REMARK VINA RESULT:      -5.2      6.115      9.084
REMARK  Name = 9635149
REMARK  4 active torsions:
REMARK  status: ('A' for Active; 'I' for Inactive)
REMARK    1  A    between atoms: O_5  and  N_8
REMARK    2  A    between atoms: O_5  and  C_14
REMARK    3  A    between atoms: C_9  and  C_16
REMARK    4  A    between atoms: C_13  and  C_14
REMARK                            x       y       z     vdW  Elec       q    Type
REMARK                         _______ _______ _______ _____ _____    ______ ____
ROOT
ATOM      1  N   UNL     1      -8.028  -3.531 -48.713  0.00  0.00    +0.000 NA
ATOM      2  C   UNL     1      -8.796  -3.460 -47.672  0.00  0.00    +0.000 C 
ENDROOT
BRANCH   2   7
ATOM      3 CL   UNL     1      -9.754  -6.618 -47.764  0.00  0.00    +0.000 Cl
ATOM      4  S   UNL     1      -7.728  -5.084 -42.969  0.00  0.00    +0.000 S 
ATOM      5  N   UNL     1      -8.193  -4.110 -45.306  0.00  0.00    +0.000 N 
ATOM      6  N   UNL     1      -8.826  -6.258 -45.265  0.00  0.00    +0.000 NA
ATOM      7  C   UNL     1      -8.685  -4.357 -46.562  0.00  0.00    +0.000 A 
ATOM      8  C   UNL     1      -8.308  -5.268 -44.596  0.00  0.00    +0.000 A 
ATOM      9  C   UNL     1      -7.651  -3.054 -44.602  0.00  0.00    +0.000 A 
ATOM     10  C   UNL     1      -9.066  -5.697 -46.501  0.00  0.00    +0.000 A 
ATOM     11  C   UNL     1      -7.343  -3.397 -43.340  0.00  0.00    +0.000 A 
ENDBRANCH   2   7
BRANCH   1  12
ATOM     12  O   UNL     1      -8.399  -2.487 -49.587  0.00  0.00    +0.000 OA
BRANCH  12  13
ATOM     13  C   UNL     1      -8.211  -2.901 -50.939  0.00  0.00    +0.000 C 
BRANCH  13  16
ATOM     14 CL   UNL     1      -4.715   0.949 -51.171  0.00  0.00    +0.000 Cl
ATOM     15 CL   UNL     1      -5.864   1.680 -54.125  0.00  0.00    +0.000 Cl
ATOM     16  C   UNL     1      -7.621  -1.750 -51.719  0.00  0.00    +0.000 A 
ATOM     17  C   UNL     1      -6.562  -0.997 -51.186  0.00  0.00    +0.000 A 
ATOM     18  C   UNL     1      -8.094  -1.435 -52.999  0.00  0.00    +0.000 A 
ATOM     19  C   UNL     1      -6.004   0.066 -51.908  0.00  0.00    +0.000 A 
ATOM     20  C   UNL     1      -7.540  -0.375 -53.722  0.00  0.00    +0.000 A 
ATOM     21  C   UNL     1      -6.496   0.380 -53.178  0.00  0.00    +0.000 A 
ENDBRANCH  13  16
ENDBRANCH  12  13
ENDBRANCH   1  12
TORSDOF 4
ENDMDL
MODEL 3
REMARK VINA RESULT:      -5.2     17.442     19.531
REMARK  Name = 9635149
REMARK  4 active torsions:
REMARK  status: ('A' for Active; 'I' for Inactive)
REMARK    1  A    between atoms: O_5  and  N_8
REMARK    2  A    between atoms: O_5  and  C_14
REMARK    3  A    between atoms: C_9  and  C_16
REMARK    4  A    between atoms: C_13  and  C_14
REMARK                            x       y       z     vdW  Elec       q    Type
REMARK                         _______ _______ _______ _____ _____    ______ ____
ROOT
ATOM      1  N   UNL     1     -23.025   8.039 -53.602  0.00  0.00    +0.000 NA
ATOM      2  C   UNL     1     -21.830   7.576 -53.790  0.00  0.00    +0.000 C 
ENDROOT
BRANCH   2   7
ATOM      3 CL   UNL     1     -23.396   5.134 -55.365  0.00  0.00    +0.000 Cl
ATOM      4  S   UNL     1     -18.956   6.902 -57.936  0.00  0.00    +0.000 S 
ATOM      5  N   UNL     1     -20.308   7.380 -55.797  0.00  0.00    +0.000 N 
ATOM      6  N   UNL     1     -21.290   5.718 -56.933  0.00  0.00    +0.000 NA
ATOM      7  C   UNL     1     -21.396   7.030 -55.040  0.00  0.00    +0.000 A 
ATOM      8  C   UNL     1     -20.305   6.568 -56.893  0.00  0.00    +0.000 A 
ATOM      9  C   UNL     1     -19.263   8.280 -55.744  0.00  0.00    +0.000 A 
ATOM     10  C   UNL     1     -21.982   6.000 -55.775  0.00  0.00    +0.000 A 
ATOM     11  C   UNL     1     -18.446   8.165 -56.805  0.00  0.00    +0.000 A 
ENDBRANCH   2   7
BRANCH   1  12
ATOM     12  O   UNL     1     -23.092   8.515 -52.275  0.00  0.00    +0.000 OA
BRANCH  12  13
ATOM     13  C   UNL     1     -22.262   7.716 -51.433  0.00  0.00    +0.000 C 
BRANCH  13  16
ATOM     14 CL   UNL     1     -23.989   7.317 -46.539  0.00  0.00    +0.000 Cl
ATOM     15 CL   UNL     1     -25.817   4.802 -47.495  0.00  0.00    +0.000 Cl
ATOM     16  C   UNL     1     -23.138   6.993 -50.437  0.00  0.00    +0.000 A 
ATOM     17  C   UNL     1     -23.186   7.409 -49.097  0.00  0.00    +0.000 A 
ATOM     18  C   UNL     1     -23.944   5.919 -50.839  0.00  0.00    +0.000 A 
ATOM     19  C   UNL     1     -24.003   6.749 -48.170  0.00  0.00    +0.000 A 
ATOM     20  C   UNL     1     -24.760   5.259 -49.917  0.00  0.00    +0.000 A 
ATOM     21  C   UNL     1     -24.790   5.669 -48.580  0.00  0.00    +0.000 A 
ENDBRANCH  13  16
ENDBRANCH  12  13
ENDBRANCH   1  12
TORSDOF 4
ENDMDL
MODEL 4
REMARK VINA RESULT:      -5.2      4.016      8.503
REMARK  Name = 9635149
REMARK  4 active torsions:
REMARK  status: ('A' for Active; 'I' for Inactive)
REMARK    1  A    between atoms: O_5  and  N_8
REMARK    2  A    between atoms: O_5  and  C_14
REMARK    3  A    between atoms: C_9  and  C_16
REMARK    4  A    between atoms: C_13  and  C_14
REMARK                            x       y       z     vdW  Elec       q    Type
REMARK                         _______ _______ _______ _____ _____    ______ ____
ROOT
ATOM      1  N   UNL     1      -4.239   3.812 -54.891  0.00  0.00    +0.000 NA
ATOM      2  C   UNL     1      -4.840   4.383 -55.886  0.00  0.00    +0.000 C 
ENDROOT
BRANCH   2   7
ATOM      3 CL   UNL     1      -4.734   2.698 -58.723  0.00  0.00    +0.000 Cl
ATOM      4  S   UNL     1      -1.998   7.383 -58.858  0.00  0.00    +0.000 S 
ATOM      5  N   UNL     1      -3.429   5.990 -57.232  0.00  0.00    +0.000 N 
ATOM      6  N   UNL     1      -3.287   4.916 -59.192  0.00  0.00    +0.000 NA
ATOM      7  C   UNL     1      -4.149   4.837 -57.055  0.00  0.00    +0.000 A 
ATOM      8  C   UNL     1      -2.949   5.972 -58.508  0.00  0.00    +0.000 A 
ATOM      9  C   UNL     1      -3.069   7.102 -56.498  0.00  0.00    +0.000 A 
ATOM     10  C   UNL     1      -4.042   4.198 -58.289  0.00  0.00    +0.000 A 
ATOM     11  C   UNL     1      -2.308   7.950 -57.211  0.00  0.00    +0.000 A 
ENDBRANCH   2   7
BRANCH   1  12
ATOM     12  O   UNL     1      -5.223   3.477 -53.936  0.00  0.00    +0.000 OA
BRANCH  12  13
ATOM     13  C   UNL     1      -4.642   2.678 -52.906  0.00  0.00    +0.000 C 
BRANCH  13  16
ATOM     14 CL   UNL     1      -8.167  -0.621 -54.851  0.00  0.00    +0.000 Cl
ATOM     15 CL   UNL     1      -8.045  -2.251 -52.038  0.00  0.00    +0.000 Cl
ATOM     16  C   UNL     1      -5.503   1.454 -52.701  0.00  0.00    +0.000 A 
ATOM     17  C   UNL     1      -6.349   0.999 -53.725  0.00  0.00    +0.000 A 
ATOM     18  C   UNL     1      -5.448   0.733 -51.501  0.00  0.00    +0.000 A 
ATOM     19  C   UNL     1      -7.144  -0.141 -53.544  0.00  0.00    +0.000 A 
ATOM     20  C   UNL     1      -6.240  -0.404 -51.318  0.00  0.00    +0.000 A 
ATOM     21  C   UNL     1      -7.091  -0.842 -52.337  0.00  0.00    +0.000 A 
ENDBRANCH  13  16
ENDBRANCH  12  13
ENDBRANCH   1  12
TORSDOF 4
ENDMDL
MODEL 5
REMARK VINA RESULT:      -5.2      2.554      3.040
REMARK  Name = 9635149
REMARK  4 active torsions:
REMARK  status: ('A' for Active; 'I' for Inactive)
REMARK    1  A    between atoms: O_5  and  N_8
REMARK    2  A    between atoms: O_5  and  C_14
REMARK    3  A    between atoms: C_9  and  C_16
REMARK    4  A    between atoms: C_13  and  C_14
REMARK                            x       y       z     vdW  Elec       q    Type
REMARK                         _______ _______ _______ _____ _____    ______ ____
ROOT
ATOM      1  N   UNL     1      -4.751   1.393 -53.558  0.00  0.00    +0.000 NA
ATOM      2  C   UNL     1      -5.981   1.034 -53.750  0.00  0.00    +0.000 C 
ENDROOT
BRANCH   2   7
ATOM      3 CL   UNL     1      -9.077   0.129 -54.449  0.00  0.00    +0.000 Cl
ATOM      4  S   UNL     1      -5.464  -3.892 -54.918  0.00  0.00    +0.000 S 
ATOM      5  N   UNL     1      -5.551  -1.391 -54.314  0.00  0.00    +0.000 N 
ATOM      6  N   UNL     1      -7.618  -2.105 -54.793  0.00  0.00    +0.000 NA
ATOM      7  C   UNL     1      -6.350  -0.290 -54.150  0.00  0.00    +0.000 A 
ATOM      8  C   UNL     1      -6.360  -2.422 -54.690  0.00  0.00    +0.000 A 
ATOM      9  C   UNL     1      -4.216  -1.721 -54.196  0.00  0.00    +0.000 A 
ATOM     10  C   UNL     1      -7.624  -0.768 -54.457  0.00  0.00    +0.000 A 
ATOM     11  C   UNL     1      -3.990  -3.014 -54.483  0.00  0.00    +0.000 A 
ENDBRANCH   2   7
BRANCH   1  12
ATOM     12  O   UNL     1      -4.761   2.745 -53.151  0.00  0.00    +0.000 OA
BRANCH  12  13
ATOM     13  C   UNL     1      -5.668   3.486 -53.966  0.00  0.00    +0.000 C 
BRANCH  13  16
ATOM     14 CL   UNL     1      -3.459   4.901 -58.462  0.00  0.00    +0.000 Cl
ATOM     15 CL   UNL     1      -2.560   7.680 -57.030  0.00  0.00    +0.000 Cl
ATOM     16  C   UNL     1      -4.886   4.520 -54.741  0.00  0.00    +0.000 A 
ATOM     17  C   UNL     1      -4.555   4.301 -56.088  0.00  0.00    +0.000 A 
ATOM     18  C   UNL     1      -4.507   5.728 -54.142  0.00  0.00    +0.000 A 
ATOM     19  C   UNL     1      -3.837   5.259 -56.815  0.00  0.00    +0.000 A 
ATOM     20  C   UNL     1      -3.791   6.687 -54.864  0.00  0.00    +0.000 A 
ATOM     21  C   UNL     1      -3.451   6.454 -56.201  0.00  0.00    +0.000 A 
ENDBRANCH  13  16
ENDBRANCH  12  13
ENDBRANCH   1  12
TORSDOF 4
ENDMDL
MODEL 6
REMARK VINA RESULT:      -5.1      7.550      9.654
REMARK  Name = 9635149
REMARK  4 active torsions:
REMARK  status: ('A' for Active; 'I' for Inactive)
REMARK    1  A    between atoms: O_5  and  N_8
REMARK    2  A    between atoms: O_5  and  C_14
REMARK    3  A    between atoms: C_9  and  C_16
REMARK    4  A    between atoms: C_13  and  C_14
REMARK                            x       y       z     vdW  Elec       q    Type
REMARK                         _______ _______ _______ _____ _____    ______ ____
ROOT
ATOM      1  N   UNL     1      -6.941  -4.243 -48.473  0.00  0.00    +0.000 NA
ATOM      2  C   UNL     1      -8.035  -3.883 -47.881  0.00  0.00    +0.000 C 
ENDROOT
BRANCH   2   7
ATOM      3 CL   UNL     1     -10.069  -6.480 -47.751  0.00  0.00    +0.000 Cl
ATOM      4  S   UNL     1      -8.607  -4.599 -42.875  0.00  0.00    +0.000 S 
ATOM      5  N   UNL     1      -8.201  -4.112 -45.370  0.00  0.00    +0.000 N 
ATOM      6  N   UNL     1      -9.588  -5.859 -45.178  0.00  0.00    +0.000 NA
ATOM      7  C   UNL     1      -8.491  -4.475 -46.660  0.00  0.00    +0.000 A 
ATOM      8  C   UNL     1      -8.880  -4.964 -44.551  0.00  0.00    +0.000 A 
ATOM      9  C   UNL     1      -7.453  -3.155 -44.714  0.00  0.00    +0.000 A 
ATOM     10  C   UNL     1      -9.350  -5.562 -46.503  0.00  0.00    +0.000 A 
ATOM     11  C   UNL     1      -7.552  -3.270 -43.378  0.00  0.00    +0.000 A 
ENDBRANCH   2   7
BRANCH   1  12
ATOM     12  O   UNL     1      -6.794  -3.439 -49.623  0.00  0.00    +0.000 OA
BRANCH  12  13
ATOM     13  C   UNL     1      -8.055  -3.297 -50.276  0.00  0.00    +0.000 C 
BRANCH  13  16
ATOM     14 CL   UNL     1      -9.202  -0.081 -54.206  0.00  0.00    +0.000 Cl
ATOM     15 CL   UNL     1      -7.018  -1.675 -56.014  0.00  0.00    +0.000 Cl
ATOM     16  C   UNL     1      -7.813  -2.886 -51.709  0.00  0.00    +0.000 A 
ATOM     17  C   UNL     1      -8.512  -1.804 -52.268  0.00  0.00    +0.000 A 
ATOM     18  C   UNL     1      -6.863  -3.553 -52.494  0.00  0.00    +0.000 A 
ATOM     19  C   UNL     1      -8.286  -1.413 -53.594  0.00  0.00    +0.000 A 
ATOM     20  C   UNL     1      -6.635  -3.164 -53.817  0.00  0.00    +0.000 A 
ATOM     21  C   UNL     1      -7.347  -2.096 -54.371  0.00  0.00    +0.000 A 
ENDBRANCH  13  16
ENDBRANCH  12  13
ENDBRANCH   1  12
TORSDOF 4
ENDMDL
MODEL 7
REMARK VINA RESULT:      -5.0     13.704     15.213
REMARK  Name = 9635149
REMARK  4 active torsions:
REMARK  status: ('A' for Active; 'I' for Inactive)
REMARK    1  A    between atoms: O_5  and  N_8
REMARK    2  A    between atoms: O_5  and  C_14
REMARK    3  A    between atoms: C_9  and  C_16
REMARK    4  A    between atoms: C_13  and  C_14
REMARK                            x       y       z     vdW  Elec       q    Type
REMARK                         _______ _______ _______ _____ _____    ______ ____
ROOT
ATOM      1  N   UNL     1      -1.402   8.479 -41.851  0.00  0.00    +0.000 NA
ATOM      2  C   UNL     1      -1.878   7.325 -41.504  0.00  0.00    +0.000 C 
ENDROOT
BRANCH   2   7
ATOM      3 CL   UNL     1      -2.082   4.938 -43.774  0.00  0.00    +0.000 Cl
ATOM      4  S   UNL     1       1.535   3.929 -39.857  0.00  0.00    +0.000 S 
ATOM      5  N   UNL     1      -0.140   5.754 -40.561  0.00  0.00    +0.000 N 
ATOM      6  N   UNL     1      -0.215   4.075 -42.041  0.00  0.00    +0.000 NA
ATOM      7  C   UNL     1      -1.086   6.133 -41.477  0.00  0.00    +0.000 A 
ATOM      8  C   UNL     1       0.330   4.534 -40.952  0.00  0.00    +0.000 A 
ATOM      9  C   UNL     1       0.428   6.245 -39.403  0.00  0.00    +0.000 A 
ATOM     10  C   UNL     1      -1.105   5.072 -42.380  0.00  0.00    +0.000 A 
ATOM     11  C   UNL     1       1.343   5.402 -38.894  0.00  0.00    +0.000 A 
ENDBRANCH   2   7
BRANCH   1  12
ATOM     12  O   UNL     1      -2.446   9.422 -41.737  0.00  0.00    +0.000 OA
BRANCH  12  13
ATOM     13  C   UNL     1      -1.898  10.728 -41.561  0.00  0.00    +0.000 C 
BRANCH  13  16
ATOM     14 CL   UNL     1      -4.370  15.247 -40.812  0.00  0.00    +0.000 Cl
ATOM     15 CL   UNL     1      -5.886  14.773 -43.651  0.00  0.00    +0.000 Cl
ATOM     16  C   UNL     1      -2.897  11.742 -42.066  0.00  0.00    +0.000 A 
ATOM     17  C   UNL     1      -3.167  12.905 -41.326  0.00  0.00    +0.000 A 
ATOM     18  C   UNL     1      -3.544  11.559 -43.295  0.00  0.00    +0.000 A 
ATOM     19  C   UNL     1      -4.086  13.854 -41.793  0.00  0.00    +0.000 A 
ATOM     20  C   UNL     1      -4.462  12.504 -43.763  0.00  0.00    +0.000 A 
ATOM     21  C   UNL     1      -4.737  13.652 -43.013  0.00  0.00    +0.000 A 
ENDBRANCH  13  16
ENDBRANCH  12  13
ENDBRANCH   1  12
TORSDOF 4
ENDMDL
MODEL 8
REMARK VINA RESULT:      -5.0     18.218     19.588
REMARK  Name = 9635149
REMARK  4 active torsions:
REMARK  status: ('A' for Active; 'I' for Inactive)
REMARK    1  A    between atoms: O_5  and  N_8
REMARK    2  A    between atoms: O_5  and  C_14
REMARK    3  A    between atoms: C_9  and  C_16
REMARK    4  A    between atoms: C_13  and  C_14
REMARK                            x       y       z     vdW  Elec       q    Type
REMARK                         _______ _______ _______ _____ _____    ______ ____
ROOT
ATOM      1  N   UNL     1     -12.340  15.979 -44.059  0.00  0.00    +0.000 NA
ATOM      2  C   UNL     1     -11.612  16.961 -44.484  0.00  0.00    +0.000 C 
ENDROOT
BRANCH   2   7
ATOM      3 CL   UNL     1      -8.355  17.497 -44.428  0.00  0.00    +0.000 Cl
ATOM      4  S   UNL     1     -11.122  20.468 -40.828  0.00  0.00    +0.000 S 
ATOM      5  N   UNL     1     -11.543  18.707 -42.659  0.00  0.00    +0.000 N 
ATOM      6  N   UNL     1      -9.348  19.129 -42.535  0.00  0.00    +0.000 NA
ATOM      7  C   UNL     1     -10.975  17.894 -43.604  0.00  0.00    +0.000 A 
ATOM      8  C   UNL     1     -10.531  19.403 -42.067  0.00  0.00    +0.000 A 
ATOM      9  C   UNL     1     -12.801  18.987 -42.164  0.00  0.00    +0.000 A 
ATOM     10  C   UNL     1      -9.615  18.183 -43.502  0.00  0.00    +0.000 A 
ATOM     11  C   UNL     1     -12.762  19.906 -41.183  0.00  0.00    +0.000 A 
ENDBRANCH   2   7
BRANCH   1  12
ATOM     12  O   UNL     1     -12.782  15.257 -45.189  0.00  0.00    +0.000 OA
BRANCH  12  13
ATOM     13  C   UNL     1     -12.680  16.076 -46.353  0.00  0.00    +0.000 C 
BRANCH  13  16
ATOM     14 CL   UNL     1     -14.837  16.192 -51.089  0.00  0.00    +0.000 Cl
ATOM     15 CL   UNL     1     -17.598  15.114 -49.748  0.00  0.00    +0.000 Cl
ATOM     16  C   UNL     1     -13.901  15.848 -47.212  0.00  0.00    +0.000 A 
ATOM     17  C   UNL     1     -13.853  16.082 -48.596  0.00  0.00    +0.000 A 
ATOM     18  C   UNL     1     -15.092  15.368 -46.651  0.00  0.00    +0.000 A 
ATOM     19  C   UNL     1     -14.980  15.864 -49.399  0.00  0.00    +0.000 A 
ATOM     20  C   UNL     1     -16.218  15.150 -47.450  0.00  0.00    +0.000 A 
ATOM     21  C   UNL     1     -16.166  15.400 -48.824  0.00  0.00    +0.000 A 
ENDBRANCH  13  16
ENDBRANCH  12  13
ENDBRANCH   1  12
TORSDOF 4
ENDMDL
MODEL 9
REMARK VINA RESULT:      -5.0     18.845     19.762
REMARK  Name = 9635149
REMARK  4 active torsions:
REMARK  status: ('A' for Active; 'I' for Inactive)
REMARK    1  A    between atoms: O_5  and  N_8
REMARK    2  A    between atoms: O_5  and  C_14
REMARK    3  A    between atoms: C_9  and  C_16
REMARK    4  A    between atoms: C_13  and  C_14
REMARK                            x       y       z     vdW  Elec       q    Type
REMARK                         _______ _______ _______ _____ _____    ______ ____
ROOT
ATOM      1  N   UNL     1      -4.546   2.217 -36.338  0.00  0.00    +0.000 NA
ATOM      2  C   UNL     1      -4.930   1.088 -35.835  0.00  0.00    +0.000 C 
ENDROOT
BRANCH   2   7
ATOM      3 CL   UNL     1      -3.585  -1.171 -37.831  0.00  0.00    +0.000 Cl
ATOM      4  S   UNL     1      -2.032  -1.627 -32.652  0.00  0.00    +0.000 S 
ATOM      5  N   UNL     1      -3.534  -0.146 -34.129  0.00  0.00    +0.000 N 
ATOM      6  N   UNL     1      -2.582  -1.726 -35.398  0.00  0.00    +0.000 NA
ATOM      7  C   UNL     1      -4.014   0.081 -35.392  0.00  0.00    +0.000 A 
ATOM      8  C   UNL     1      -2.701  -1.223 -34.203  0.00  0.00    +0.000 A 
ATOM      9  C   UNL     1      -3.670   0.390 -32.864  0.00  0.00    +0.000 A 
ATOM     10  C   UNL     1      -3.402  -0.914 -36.153  0.00  0.00    +0.000 A 
ATOM     11  C   UNL     1      -2.938  -0.276 -31.954  0.00  0.00    +0.000 A 
ENDBRANCH   2   7
BRANCH   1  12
ATOM     12  O   UNL     1      -5.704   2.966 -36.637  0.00  0.00    +0.000 OA
BRANCH  12  13
ATOM     13  C   UNL     1      -6.583   2.962 -35.513  0.00  0.00    +0.000 C 
BRANCH  13  16
ATOM     14 CL   UNL     1     -11.117   4.464 -37.583  0.00  0.00    +0.000 Cl
ATOM     15 CL   UNL     1     -10.673   7.372 -36.194  0.00  0.00    +0.000 Cl
ATOM     16  C   UNL     1      -7.609   4.055 -35.699  0.00  0.00    +0.000 A 
ATOM     17  C   UNL     1      -8.768   3.823 -36.455  0.00  0.00    +0.000 A 
ATOM     18  C   UNL     1      -7.439   5.307 -35.092  0.00  0.00    +0.000 A 
ATOM     19  C   UNL     1      -9.728   4.830 -36.624  0.00  0.00    +0.000 A 
ATOM     20  C   UNL     1      -8.394   6.313 -35.258  0.00  0.00    +0.000 A 
ATOM     21  C   UNL     1      -9.539   6.080 -36.026  0.00  0.00    +0.000 A 
ENDBRANCH  13  16
ENDBRANCH  12  13
ENDBRANCH   1  12
TORSDOF 4
ENDMDL
MODEL 10
REMARK VINA RESULT:      -5.0     21.618     24.168
REMARK  Name = 9635149
REMARK  4 active torsions:
REMARK  status: ('A' for Active; 'I' for Inactive)
REMARK    1  A    between atoms: O_5  and  N_8
REMARK    2  A    between atoms: O_5  and  C_14
REMARK    3  A    between atoms: C_9  and  C_16
REMARK    4  A    between atoms: C_13  and  C_14
REMARK                            x       y       z     vdW  Elec       q    Type
REMARK                         _______ _______ _______ _____ _____    ______ ____
ROOT
ATOM      1  N   UNL     1      -9.317   8.753 -32.070  0.00  0.00    +0.000 NA
ATOM      2  C   UNL     1      -9.021   8.429 -33.289  0.00  0.00    +0.000 C 
ENDROOT
BRANCH   2   7
ATOM      3 CL   UNL     1     -11.056  10.674 -34.598  0.00  0.00    +0.000 Cl
ATOM      4  S   UNL     1     -11.820   5.652 -36.506  0.00  0.00    +0.000 S 
ATOM      5  N   UNL     1     -10.308   6.914 -34.847  0.00  0.00    +0.000 N 
ATOM      6  N   UNL     1     -11.741   8.358 -35.782  0.00  0.00    +0.000 NA
ATOM      7  C   UNL     1     -10.012   8.124 -34.276  0.00  0.00    +0.000 A 
ATOM      8  C   UNL     1     -11.335   7.123 -35.720  0.00  0.00    +0.000 A 
ATOM      9  C   UNL     1      -9.876   5.605 -34.770  0.00  0.00    +0.000 A 
ATOM     10  C   UNL     1     -10.916   8.996 -34.880  0.00  0.00    +0.000 A 
ATOM     11  C   UNL     1     -10.571   4.797 -35.590  0.00  0.00    +0.000 A 
ENDBRANCH   2   7
BRANCH   1  12
ATOM     12  O   UNL     1      -8.107   9.008 -31.391  0.00  0.00    +0.000 OA
BRANCH  12  13
ATOM     13  C   UNL     1      -8.323   8.943 -29.982  0.00  0.00    +0.000 C 
BRANCH  13  16
ATOM     14 CL   UNL     1      -3.559  11.042 -29.986  0.00  0.00    +0.000 Cl
ATOM     15 CL   UNL     1      -3.033   9.606 -27.115  0.00  0.00    +0.000 Cl
ATOM     16  C   UNL     1      -6.995   9.111 -29.282  0.00  0.00    +0.000 A 
ATOM     17  C   UNL     1      -5.984   9.900 -29.853  0.00  0.00    +0.000 A 
ATOM     18  C   UNL     1      -6.761   8.512 -28.038  0.00  0.00    +0.000 A 
ATOM     19  C   UNL     1      -4.753  10.067 -29.205  0.00  0.00    +0.000 A 
ATOM     20  C   UNL     1      -5.534   8.677 -27.388  0.00  0.00    +0.000 A 
ATOM     21  C   UNL     1      -4.526   9.451 -27.971  0.00  0.00    +0.000 A 
ENDBRANCH  13  16
ENDBRANCH  12  13
ENDBRANCH   1  12
TORSDOF 4
ENDMDL
