REMARK  Name = 9635149
REMARK  4 active torsions:
REMARK  status: ('A' for Active; 'I' for Inactive)
REMARK    1  A    between atoms: O_5  and  N_8
REMARK    2  A    between atoms: O_5  and  C_14
REMARK    3  A    between atoms: C_9  and  C_16
REMARK    4  A    between atoms: C_13  and  C_14
REMARK                            x       y       z     vdW  Elec       q    Type
REMARK                         _______ _______ _______ _____ _____    ______ ____
ROOT
ATOM      1  N   UNL     1       4.426   3.996   0.034  0.00  0.00    +0.000 NA
ATOM      2  C   UNL     1       3.531   3.177   0.487  0.00  0.00    +0.000 C 
ENDROOT
BRANCH   2   7
ATOM      3 CL   UNL     1       1.285   1.209   1.894  0.00  0.00    +0.000 Cl
ATOM      4  S   UNL     1      -0.653   6.074   0.472  0.00  0.00    +0.000 S 
ATOM      5  N   UNL     1       1.552   4.746   0.417  0.00  0.00    +0.000 N 
ATOM      6  N   UNL     1      -0.045   3.482   1.347  0.00  0.00    +0.000 NA
ATOM      7  C   UNL     1       2.171   3.560   0.716  0.00  0.00    +0.000 A 
ATOM      8  C   UNL     1       0.252   4.631   0.812  0.00  0.00    +0.000 A 
ATOM      9  C   UNL     1       1.874   5.959  -0.158  0.00  0.00    +0.000 A 
ATOM     10  C   UNL     1       1.153   2.802   1.293  0.00  0.00    +0.000 A 
ATOM     11  C   UNL     1       0.817   6.788  -0.207  0.00  0.00    +0.000 A 
ENDBRANCH   2   7
BRANCH   1  12
ATOM     12  O   UNL     1       5.635   3.279  -0.091  0.00  0.00    +0.000 OA
BRANCH  12  13
ATOM     13  C   UNL     1       6.736   4.187  -0.090  0.00  0.00    +0.000 C 
BRANCH  13  16
ATOM     14 CL   UNL     1      10.580   1.568   2.247  0.00  0.00    +0.000 Cl
ATOM     15 CL   UNL     1      11.841   0.992  -0.696  0.00  0.00    +0.000 Cl
ATOM     16  C   UNL     1       8.015   3.395  -0.225  0.00  0.00    +0.000 A 
ATOM     17  C   UNL     1       8.661   2.886   0.913  0.00  0.00    +0.000 A 
ATOM     18  C   UNL     1       8.560   3.125  -1.487  0.00  0.00    +0.000 A 
ATOM     19  C   UNL     1       9.843   2.143   0.794  0.00  0.00    +0.000 A 
ATOM     20  C   UNL     1       9.739   2.384  -1.609  0.00  0.00    +0.000 A 
ATOM     21  C   UNL     1      10.385   1.894  -0.470  0.00  0.00    +0.000 A 
ENDBRANCH  13  16
ENDBRANCH  12  13
ENDBRANCH   1  12
TORSDOF 4
