MODEL 1
REMARK VINA RESULT:      -5.3      0.000      0.000
REMARK  Name = 9637254
REMARK  5 active torsions:
REMARK  status: ('A' for Active; 'I' for Inactive)
REMARK    1  A    between atoms: O_4  and  N_7
REMARK    2  A    between atoms: O_4  and  C_20
REMARK    3  A    between atoms: C_8  and  C_13
REMARK    4  A    between atoms: C_9  and  C_11
REMARK    5  A    between atoms: C_17  and  C_20
REMARK                            x       y       z     vdW  Elec       q    Type
REMARK                         _______ _______ _______ _____ _____    ______ ____
ROOT
ATOM      1  S   UNL     1      -9.683  13.069 -54.469  0.00  0.00    +0.000 S 
ATOM      2  N   UNL     1     -10.033  12.711 -56.987  0.00  0.00    +0.000 N 
ATOM      3  N   UNL     1     -11.974  12.363 -55.933  0.00  0.00    +0.000 NA
ATOM      4  C   UNL     1     -10.926  12.426 -57.989  0.00  0.00    +0.000 A 
ATOM      5  C   UNL     1     -12.119  12.172 -57.302  0.00  0.00    +0.000 A 
ATOM      6  C   UNL     1     -10.714  12.671 -55.808  0.00  0.00    +0.000 A 
ATOM      7  C   UNL     1      -8.702  13.052 -56.882  0.00  0.00    +0.000 A 
ATOM      8  C   UNL     1      -8.343  13.277 -55.605  0.00  0.00    +0.000 A 
ENDROOT
BRANCH   5   9
ATOM      9  C   UNL     1     -13.388  11.754 -57.887  0.00  0.00    +0.000 A 
ATOM     10  C   UNL     1     -13.621  10.395 -58.134  0.00  0.00    +0.000 A 
ATOM     11  C   UNL     1     -14.385  12.677 -58.236  0.00  0.00    +0.000 A 
ATOM     12  C   UNL     1     -14.841   9.965 -58.664  0.00  0.00    +0.000 A 
ATOM     13  C   UNL     1     -15.612  12.247 -58.747  0.00  0.00    +0.000 A 
ATOM     14  C   UNL     1     -15.842  10.891 -58.955  0.00  0.00    +0.000 A 
ENDBRANCH   5   9
BRANCH   4  16
ATOM     15  N   UNL     1     -10.451  13.536 -60.027  0.00  0.00    +0.000 NA
ATOM     16  C   UNL     1     -10.640  12.424 -59.391  0.00  0.00    +0.000 C 
BRANCH  15  17
ATOM     17  O   UNL     1     -10.132  13.252 -61.367  0.00  0.00    +0.000 OA
BRANCH  17  18
ATOM     18  C   UNL     1     -10.513  11.898 -61.643  0.00  0.00    +0.000 C 
BRANCH  18  21
ATOM     19 CL   UNL     1      -8.695  12.264 -64.177  0.00  0.00    +0.000 Cl
ATOM     20 CL   UNL     1     -13.553  11.263 -61.781  0.00  0.00    +0.000 Cl
ATOM     21  C   UNL     1     -11.147  11.788 -63.011  0.00  0.00    +0.000 A 
ATOM     22  C   UNL     1     -10.392  11.926 -64.190  0.00  0.00    +0.000 A 
ATOM     23  C   UNL     1     -12.519  11.495 -63.151  0.00  0.00    +0.000 A 
ATOM     24  C   UNL     1     -10.984  11.779 -65.453  0.00  0.00    +0.000 A 
ATOM     25  C   UNL     1     -13.107  11.354 -64.415  0.00  0.00    +0.000 A 
ATOM     26  C   UNL     1     -12.339  11.493 -65.566  0.00  0.00    +0.000 A 
ENDBRANCH  18  21
ENDBRANCH  17  18
ENDBRANCH  15  17
ENDBRANCH   4  16
TORSDOF 5
ENDMDL
MODEL 2
REMARK VINA RESULT:      -5.0     13.815     15.300
REMARK  Name = 9637254
REMARK  5 active torsions:
REMARK  status: ('A' for Active; 'I' for Inactive)
REMARK    1  A    between atoms: O_4  and  N_7
REMARK    2  A    between atoms: O_4  and  C_20
REMARK    3  A    between atoms: C_8  and  C_13
REMARK    4  A    between atoms: C_9  and  C_11
REMARK    5  A    between atoms: C_17  and  C_20
REMARK                            x       y       z     vdW  Elec       q    Type
REMARK                         _______ _______ _______ _____ _____    ______ ____
ROOT
ATOM      1  S   UNL     1      -5.700  -4.440 -59.274  0.00  0.00    +0.000 S 
ATOM      2  N   UNL     1      -5.253  -2.278 -57.962  0.00  0.00    +0.000 N 
ATOM      3  N   UNL     1      -6.678  -3.548 -56.797  0.00  0.00    +0.000 NA
ATOM      4  C   UNL     1      -5.492  -1.568 -56.813  0.00  0.00    +0.000 A 
ATOM      5  C   UNL     1      -6.415  -2.361 -56.123  0.00  0.00    +0.000 A 
ATOM      6  C   UNL     1      -5.969  -3.435 -57.884  0.00  0.00    +0.000 A 
ATOM      7  C   UNL     1      -4.481  -2.144 -59.096  0.00  0.00    +0.000 A 
ATOM      8  C   UNL     1      -4.600  -3.208 -59.910  0.00  0.00    +0.000 A 
ENDROOT
BRANCH   5   9
ATOM      9  C   UNL     1      -7.060  -2.042 -54.854  0.00  0.00    +0.000 A 
ATOM     10  C   UNL     1      -7.908  -0.931 -54.769  0.00  0.00    +0.000 A 
ATOM     11  C   UNL     1      -6.840  -2.805 -53.696  0.00  0.00    +0.000 A 
ATOM     12  C   UNL     1      -8.563  -0.622 -53.573  0.00  0.00    +0.000 A 
ATOM     13  C   UNL     1      -7.509  -2.510 -52.507  0.00  0.00    +0.000 A 
ATOM     14  C   UNL     1      -8.375  -1.422 -52.447  0.00  0.00    +0.000 A 
ENDBRANCH   5   9
BRANCH   4  16
ATOM     15  N   UNL     1      -3.635  -0.263 -56.133  0.00  0.00    +0.000 NA
ATOM     16  C   UNL     1      -4.887  -0.320 -56.458  0.00  0.00    +0.000 C 
BRANCH  15  17
ATOM     17  O   UNL     1      -3.284   1.077 -55.889  0.00  0.00    +0.000 OA
BRANCH  17  18
ATOM     18  C   UNL     1      -4.251   1.920 -56.527  0.00  0.00    +0.000 C 
BRANCH  18  21
ATOM     19 CL   UNL     1      -5.876   2.111 -53.847  0.00  0.00    +0.000 Cl
ATOM     20 CL   UNL     1      -2.757   4.325 -57.811  0.00  0.00    +0.000 Cl
ATOM     21  C   UNL     1      -4.340   3.258 -55.829  0.00  0.00    +0.000 A 
ATOM     22  C   UNL     1      -5.039   3.414 -54.617  0.00  0.00    +0.000 A 
ATOM     23  C   UNL     1      -3.683   4.390 -56.349  0.00  0.00    +0.000 A 
ATOM     24  C   UNL     1      -5.078   4.651 -53.956  0.00  0.00    +0.000 A 
ATOM     25  C   UNL     1      -3.728   5.626 -55.688  0.00  0.00    +0.000 A 
ATOM     26  C   UNL     1      -4.424   5.756 -54.490  0.00  0.00    +0.000 A 
ENDBRANCH  18  21
ENDBRANCH  17  18
ENDBRANCH  15  17
ENDBRANCH   4  16
TORSDOF 5
ENDMDL
MODEL 3
REMARK VINA RESULT:      -4.9      1.875      2.544
REMARK  Name = 9637254
REMARK  5 active torsions:
REMARK  status: ('A' for Active; 'I' for Inactive)
REMARK    1  A    between atoms: O_4  and  N_7
REMARK    2  A    between atoms: O_4  and  C_20
REMARK    3  A    between atoms: C_8  and  C_13
REMARK    4  A    between atoms: C_9  and  C_11
REMARK    5  A    between atoms: C_17  and  C_20
REMARK                            x       y       z     vdW  Elec       q    Type
REMARK                         _______ _______ _______ _____ _____    ______ ____
ROOT
ATOM      1  S   UNL     1      -8.520  13.214 -55.748  0.00  0.00    +0.000 S 
ATOM      2  N   UNL     1      -9.425  12.739 -58.103  0.00  0.00    +0.000 N 
ATOM      3  N   UNL     1     -11.078  12.453 -56.624  0.00  0.00    +0.000 NA
ATOM      4  C   UNL     1     -10.519  12.411 -58.863  0.00  0.00    +0.000 A 
ATOM      5  C   UNL     1     -11.526  12.198 -57.914  0.00  0.00    +0.000 A 
ATOM      6  C   UNL     1      -9.824  12.760 -56.800  0.00  0.00    +0.000 A 
ATOM      7  C   UNL     1      -8.106  13.076 -58.316  0.00  0.00    +0.000 A 
ATOM      8  C   UNL     1      -7.470  13.359 -57.165  0.00  0.00    +0.000 A 
ENDROOT
BRANCH   5   9
ATOM      9  C   UNL     1     -12.892  11.760 -58.178  0.00  0.00    +0.000 A 
ATOM     10  C   UNL     1     -13.920  12.709 -58.251  0.00  0.00    +0.000 A 
ATOM     11  C   UNL     1     -13.221  10.405 -58.340  0.00  0.00    +0.000 A 
ATOM     12  C   UNL     1     -15.232  12.319 -58.534  0.00  0.00    +0.000 A 
ATOM     13  C   UNL     1     -14.527  10.017 -58.643  0.00  0.00    +0.000 A 
ATOM     14  C   UNL     1     -15.531  10.974 -58.746  0.00  0.00    +0.000 A 
ENDBRANCH   5   9
BRANCH   4  16
ATOM     15  N   UNL     1     -10.952  11.264 -60.890  0.00  0.00    +0.000 NA
ATOM     16  C   UNL     1     -10.556  12.342 -60.292  0.00  0.00    +0.000 C 
BRANCH  15  17
ATOM     17  O   UNL     1     -10.948  11.480 -62.280  0.00  0.00    +0.000 OA
BRANCH  17  18
ATOM     18  C   UNL     1     -11.372  12.827 -62.527  0.00  0.00    +0.000 C 
BRANCH  18  21
ATOM     19 CL   UNL     1     -12.838  10.876 -64.503  0.00  0.00    +0.000 Cl
ATOM     20 CL   UNL     1     -12.849  14.884 -60.723  0.00  0.00    +0.000 Cl
ATOM     21  C   UNL     1     -12.877  12.904 -62.635  0.00  0.00    +0.000 A 
ATOM     22  C   UNL     1     -13.603  12.051 -63.488  0.00  0.00    +0.000 A 
ATOM     23  C   UNL     1     -13.614  13.807 -61.843  0.00  0.00    +0.000 A 
ATOM     24  C   UNL     1     -15.003  12.103 -63.547  0.00  0.00    +0.000 A 
ATOM     25  C   UNL     1     -15.013  13.858 -61.908  0.00  0.00    +0.000 A 
ATOM     26  C   UNL     1     -15.708  13.004 -62.759  0.00  0.00    +0.000 A 
ENDBRANCH  18  21
ENDBRANCH  17  18
ENDBRANCH  15  17
ENDBRANCH   4  16
TORSDOF 5
ENDMDL
MODEL 4
REMARK VINA RESULT:      -4.8     12.748     13.735
REMARK  Name = 9637254
REMARK  5 active torsions:
REMARK  status: ('A' for Active; 'I' for Inactive)
REMARK    1  A    between atoms: O_4  and  N_7
REMARK    2  A    between atoms: O_4  and  C_20
REMARK    3  A    between atoms: C_8  and  C_13
REMARK    4  A    between atoms: C_9  and  C_11
REMARK    5  A    between atoms: C_17  and  C_20
REMARK                            x       y       z     vdW  Elec       q    Type
REMARK                         _______ _______ _______ _____ _____    ______ ____
ROOT
ATOM      1  S   UNL     1      -6.704  -1.899 -51.119  0.00  0.00    +0.000 S 
ATOM      2  N   UNL     1      -6.847  -1.141 -53.568  0.00  0.00    +0.000 N 
ATOM      3  N   UNL     1      -5.715   0.395 -52.403  0.00  0.00    +0.000 NA
ATOM      4  C   UNL     1      -6.491  -0.195 -54.496  0.00  0.00    +0.000 A 
ATOM      5  C   UNL     1      -5.822   0.772 -53.737  0.00  0.00    +0.000 A 
ATOM      6  C   UNL     1      -6.350  -0.742 -52.364  0.00  0.00    +0.000 A 
ATOM      7  C   UNL     1      -7.509  -2.350 -53.556  0.00  0.00    +0.000 A 
ATOM      8  C   UNL     1      -7.530  -2.895 -52.326  0.00  0.00    +0.000 A 
ENDROOT
BRANCH   5   9
ATOM      9  C   UNL     1      -5.282   2.038 -54.220  0.00  0.00    +0.000 A 
ATOM     10  C   UNL     1      -5.852   3.242 -53.788  0.00  0.00    +0.000 A 
ATOM     11  C   UNL     1      -4.216   2.092 -55.131  0.00  0.00    +0.000 A 
ATOM     12  C   UNL     1      -5.333   4.470 -54.212  0.00  0.00    +0.000 A 
ATOM     13  C   UNL     1      -3.684   3.317 -55.539  0.00  0.00    +0.000 A 
ATOM     14  C   UNL     1      -4.238   4.505 -55.075  0.00  0.00    +0.000 A 
ENDBRANCH   5   9
BRANCH   4  16
ATOM     15  N   UNL     1      -5.928  -0.842 -56.704  0.00  0.00    +0.000 NA
ATOM     16  C   UNL     1      -6.757  -0.257 -55.901  0.00  0.00    +0.000 C 
BRANCH  15  17
ATOM     17  O   UNL     1      -6.452  -0.813 -58.009  0.00  0.00    +0.000 OA
BRANCH  17  18
ATOM     18  C   UNL     1      -5.455  -0.271 -58.883  0.00  0.00    +0.000 C 
BRANCH  18  21
ATOM     19 CL   UNL     1      -7.368  -1.576 -61.003  0.00  0.00    +0.000 Cl
ATOM     20 CL   UNL     1      -4.819   2.771 -58.777  0.00  0.00    +0.000 Cl
ATOM     21  C   UNL     1      -6.085   0.617 -59.931  0.00  0.00    +0.000 A 
ATOM     22  C   UNL     1      -6.964   0.104 -60.904  0.00  0.00    +0.000 A 
ATOM     23  C   UNL     1      -5.849   2.006 -59.941  0.00  0.00    +0.000 A 
ATOM     24  C   UNL     1      -7.577   0.944 -61.844  0.00  0.00    +0.000 A 
ATOM     25  C   UNL     1      -6.459   2.842 -60.886  0.00  0.00    +0.000 A 
ATOM     26  C   UNL     1      -7.326   2.311 -61.836  0.00  0.00    +0.000 A 
ENDBRANCH  18  21
ENDBRANCH  17  18
ENDBRANCH  15  17
ENDBRANCH   4  16
TORSDOF 5
ENDMDL
MODEL 5
REMARK VINA RESULT:      -4.8     12.717     16.382
REMARK  Name = 9637254
REMARK  5 active torsions:
REMARK  status: ('A' for Active; 'I' for Inactive)
REMARK    1  A    between atoms: O_4  and  N_7
REMARK    2  A    between atoms: O_4  and  C_20
REMARK    3  A    between atoms: C_8  and  C_13
REMARK    4  A    between atoms: C_9  and  C_11
REMARK    5  A    between atoms: C_17  and  C_20
REMARK                            x       y       z     vdW  Elec       q    Type
REMARK                         _______ _______ _______ _____ _____    ______ ____
ROOT
ATOM      1  S   UNL     1     -23.151  11.980 -55.149  0.00  0.00    +0.000 S 
ATOM      2  N   UNL     1     -23.100   9.864 -53.696  0.00  0.00    +0.000 N 
ATOM      3  N   UNL     1     -22.237   9.382 -55.701  0.00  0.00    +0.000 NA
ATOM      4  C   UNL     1     -22.731   8.545 -53.608  0.00  0.00    +0.000 A 
ATOM      5  C   UNL     1     -22.235   8.258 -54.885  0.00  0.00    +0.000 A 
ATOM      6  C   UNL     1     -22.770  10.299 -54.944  0.00  0.00    +0.000 A 
ATOM      7  C   UNL     1     -23.650  10.820 -52.870  0.00  0.00    +0.000 A 
ATOM      8  C   UNL     1     -23.753  12.012 -53.485  0.00  0.00    +0.000 A 
ENDROOT
BRANCH   5   9
ATOM      9  C   UNL     1     -21.760   6.964 -55.363  0.00  0.00    +0.000 A 
ATOM     10  C   UNL     1     -22.666   5.904 -55.502  0.00  0.00    +0.000 A 
ATOM     11  C   UNL     1     -20.411   6.735 -55.671  0.00  0.00    +0.000 A 
ATOM     12  C   UNL     1     -22.243   4.664 -55.989  0.00  0.00    +0.000 A 
ATOM     13  C   UNL     1     -19.991   5.503 -56.177  0.00  0.00    +0.000 A 
ATOM     14  C   UNL     1     -20.908   4.470 -56.341  0.00  0.00    +0.000 A 
ENDBRANCH   5   9
BRANCH   4  16
ATOM     15  N   UNL     1     -23.942   7.094 -52.180  0.00  0.00    +0.000 NA
ATOM     16  C   UNL     1     -22.840   7.720 -52.443  0.00  0.00    +0.000 C 
BRANCH  15  17
ATOM     17  O   UNL     1     -23.763   6.316 -51.021  0.00  0.00    +0.000 OA
BRANCH  17  18
ATOM     18  C   UNL     1     -25.011   6.257 -50.320  0.00  0.00    +0.000 C 
BRANCH  18  21
ATOM     19 CL   UNL     1     -25.215   6.202 -47.188  0.00  0.00    +0.000 Cl
ATOM     20 CL   UNL     1     -25.185   3.715 -52.103  0.00  0.00    +0.000 Cl
ATOM     21  C   UNL     1     -25.175   4.922 -49.630  0.00  0.00    +0.000 A 
ATOM     22  C   UNL     1     -25.288   4.823 -48.230  0.00  0.00    +0.000 A 
ATOM     23  C   UNL     1     -25.269   3.729 -50.374  0.00  0.00    +0.000 A 
ATOM     24  C   UNL     1     -25.484   3.583 -47.604  0.00  0.00    +0.000 A 
ATOM     25  C   UNL     1     -25.460   2.492 -49.744  0.00  0.00    +0.000 A 
ATOM     26  C   UNL     1     -25.570   2.419 -48.359  0.00  0.00    +0.000 A 
ENDBRANCH  18  21
ENDBRANCH  17  18
ENDBRANCH  15  17
ENDBRANCH   4  16
TORSDOF 5
ENDMDL
MODEL 6
REMARK VINA RESULT:      -4.7     10.146     10.786
REMARK  Name = 9637254
REMARK  5 active torsions:
REMARK  status: ('A' for Active; 'I' for Inactive)
REMARK    1  A    between atoms: O_4  and  N_7
REMARK    2  A    between atoms: O_4  and  C_20
REMARK    3  A    between atoms: C_8  and  C_13
REMARK    4  A    between atoms: C_9  and  C_11
REMARK    5  A    between atoms: C_17  and  C_20
REMARK                            x       y       z     vdW  Elec       q    Type
REMARK                         _______ _______ _______ _____ _____    ______ ____
ROOT
ATOM      1  S   UNL     1       0.602   8.555 -58.527  0.00  0.00    +0.000 S 
ATOM      2  N   UNL     1      -1.578   7.311 -59.064  0.00  0.00    +0.000 N 
ATOM      3  N   UNL     1      -1.289   7.333 -56.847  0.00  0.00    +0.000 NA
ATOM      4  C   UNL     1      -2.683   6.670 -58.563  0.00  0.00    +0.000 A 
ATOM      5  C   UNL     1      -2.458   6.660 -57.181  0.00  0.00    +0.000 A 
ATOM      6  C   UNL     1      -0.808   7.686 -58.005  0.00  0.00    +0.000 A 
ATOM      7  C   UNL     1      -1.099   7.688 -60.300  0.00  0.00    +0.000 A 
ATOM      8  C   UNL     1       0.061   8.362 -60.200  0.00  0.00    +0.000 A 
ENDROOT
BRANCH   5   9
ATOM      9  C   UNL     1      -3.302   6.040 -56.166  0.00  0.00    +0.000 A 
ATOM     10  C   UNL     1      -3.743   4.723 -56.345  0.00  0.00    +0.000 A 
ATOM     11  C   UNL     1      -3.710   6.731 -55.015  0.00  0.00    +0.000 A 
ATOM     12  C   UNL     1      -4.526   4.094 -55.372  0.00  0.00    +0.000 A 
ATOM     13  C   UNL     1      -4.475   6.098 -54.033  0.00  0.00    +0.000 A 
ATOM     14  C   UNL     1      -4.878   4.778 -54.209  0.00  0.00    +0.000 A 
ENDBRANCH   5   9
BRANCH   4  16
ATOM     15  N   UNL     1      -4.559   6.980 -59.976  0.00  0.00    +0.000 NA
ATOM     16  C   UNL     1      -3.783   6.170 -59.331  0.00  0.00    +0.000 C 
BRANCH  15  17
ATOM     17  O   UNL     1      -5.514   6.232 -60.689  0.00  0.00    +0.000 OA
BRANCH  17  18
ATOM     18  C   UNL     1      -5.060   4.874 -60.762  0.00  0.00    +0.000 C 
BRANCH  18  21
ATOM     19 CL   UNL     1      -2.881   5.664 -62.880  0.00  0.00    +0.000 Cl
ATOM     20 CL   UNL     1      -7.462   2.998 -61.378  0.00  0.00    +0.000 Cl
ATOM     21  C   UNL     1      -5.193   4.339 -62.169  0.00  0.00    +0.000 A 
ATOM     22  C   UNL     1      -4.246   4.640 -63.166  0.00  0.00    +0.000 A 
ATOM     23  C   UNL     1      -6.251   3.478 -62.519  0.00  0.00    +0.000 A 
ATOM     24  C   UNL     1      -4.356   4.102 -64.457  0.00  0.00    +0.000 A 
ATOM     25  C   UNL     1      -6.360   2.947 -63.812  0.00  0.00    +0.000 A 
ATOM     26  C   UNL     1      -5.411   3.257 -64.780  0.00  0.00    +0.000 A 
ENDBRANCH  18  21
ENDBRANCH  17  18
ENDBRANCH  15  17
ENDBRANCH   4  16
TORSDOF 5
ENDMDL
MODEL 7
REMARK VINA RESULT:      -4.7     25.275     27.557
REMARK  Name = 9637254
REMARK  5 active torsions:
REMARK  status: ('A' for Active; 'I' for Inactive)
REMARK    1  A    between atoms: O_4  and  N_7
REMARK    2  A    between atoms: O_4  and  C_20
REMARK    3  A    between atoms: C_8  and  C_13
REMARK    4  A    between atoms: C_9  and  C_11
REMARK    5  A    between atoms: C_17  and  C_20
REMARK                            x       y       z     vdW  Elec       q    Type
REMARK                         _______ _______ _______ _____ _____    ______ ____
ROOT
ATOM      1  S   UNL     1     -16.278   4.035 -31.178  0.00  0.00    +0.000 S 
ATOM      2  N   UNL     1     -13.774   3.853 -31.714  0.00  0.00    +0.000 N 
ATOM      3  N   UNL     1     -14.652   5.513 -32.928  0.00  0.00    +0.000 NA
ATOM      4  C   UNL     1     -12.714   4.371 -32.414  0.00  0.00    +0.000 A 
ATOM      5  C   UNL     1     -13.295   5.376 -33.195  0.00  0.00    +0.000 A 
ATOM      6  C   UNL     1     -14.878   4.577 -32.050  0.00  0.00    +0.000 A 
ATOM      7  C   UNL     1     -13.984   2.868 -30.774  0.00  0.00    +0.000 A 
ATOM      8  C   UNL     1     -15.269   2.822 -30.377  0.00  0.00    +0.000 A 
ENDROOT
BRANCH   5   9
ATOM      9  C   UNL     1     -12.621   6.211 -34.182  0.00  0.00    +0.000 A 
ATOM     10  C   UNL     1     -11.790   7.255 -33.754  0.00  0.00    +0.000 A 
ATOM     11  C   UNL     1     -12.795   6.019 -35.561  0.00  0.00    +0.000 A 
ATOM     12  C   UNL     1     -11.108   8.049 -34.680  0.00  0.00    +0.000 A 
ATOM     13  C   UNL     1     -12.098   6.798 -36.487  0.00  0.00    +0.000 A 
ATOM     14  C   UNL     1     -11.250   7.809 -36.047  0.00  0.00    +0.000 A 
ENDBRANCH   5   9
BRANCH   4  16
ATOM     15  N   UNL     1     -11.004   2.751 -32.666  0.00  0.00    +0.000 NA
ATOM     16  C   UNL     1     -11.351   3.945 -32.308  0.00  0.00    +0.000 C 
BRANCH  15  17
ATOM     17  O   UNL     1      -9.612   2.612 -32.517  0.00  0.00    +0.000 OA
BRANCH  17  18
ATOM     18  C   UNL     1      -9.063   2.193 -33.772  0.00  0.00    +0.000 C 
BRANCH  18  21
ATOM     19 CL   UNL     1      -6.213   3.336 -33.116  0.00  0.00    +0.000 Cl
ATOM     20 CL   UNL     1     -10.905   3.333 -36.003  0.00  0.00    +0.000 Cl
ATOM     21  C   UNL     1      -8.561   3.381 -34.561  0.00  0.00    +0.000 A 
ATOM     22  C   UNL     1      -7.288   3.936 -34.331  0.00  0.00    +0.000 A 
ATOM     23  C   UNL     1      -9.338   3.946 -35.592  0.00  0.00    +0.000 A 
ATOM     24  C   UNL     1      -6.816   5.011 -35.099  0.00  0.00    +0.000 A 
ATOM     25  C   UNL     1      -8.864   5.023 -36.353  0.00  0.00    +0.000 A 
ATOM     26  C   UNL     1      -7.602   5.554 -36.109  0.00  0.00    +0.000 A 
ENDBRANCH  18  21
ENDBRANCH  17  18
ENDBRANCH  15  17
ENDBRANCH   4  16
TORSDOF 5
ENDMDL
MODEL 8
REMARK VINA RESULT:      -4.7     11.484     15.185
REMARK  Name = 9637254
REMARK  5 active torsions:
REMARK  status: ('A' for Active; 'I' for Inactive)
REMARK    1  A    between atoms: O_4  and  N_7
REMARK    2  A    between atoms: O_4  and  C_20
REMARK    3  A    between atoms: C_8  and  C_13
REMARK    4  A    between atoms: C_9  and  C_11
REMARK    5  A    between atoms: C_17  and  C_20
REMARK                            x       y       z     vdW  Elec       q    Type
REMARK                         _______ _______ _______ _____ _____    ______ ____
ROOT
ATOM      1  S   UNL     1     -25.195   2.992 -55.798  0.00  0.00    +0.000 S 
ATOM      2  N   UNL     1     -24.343   5.064 -54.544  0.00  0.00    +0.000 N 
ATOM      3  N   UNL     1     -22.890   4.555 -56.165  0.00  0.00    +0.000 NA
ATOM      4  C   UNL     1     -23.377   6.035 -54.462  0.00  0.00    +0.000 A 
ATOM      5  C   UNL     1     -22.461   5.670 -55.456  0.00  0.00    +0.000 A 
ATOM      6  C   UNL     1     -24.005   4.236 -55.572  0.00  0.00    +0.000 A 
ATOM      7  C   UNL     1     -25.529   4.758 -53.912  0.00  0.00    +0.000 A 
ATOM      8  C   UNL     1     -26.117   3.676 -54.452  0.00  0.00    +0.000 A 
ENDROOT
BRANCH   5   9
ATOM      9  C   UNL     1     -21.197   6.332 -55.760  0.00  0.00    +0.000 A 
ATOM     10  C   UNL     1     -20.104   5.569 -56.190  0.00  0.00    +0.000 A 
ATOM     11  C   UNL     1     -21.030   7.718 -55.615  0.00  0.00    +0.000 A 
ATOM     12  C   UNL     1     -18.891   6.183 -56.519  0.00  0.00    +0.000 A 
ATOM     13  C   UNL     1     -19.826   8.334 -55.962  0.00  0.00    +0.000 A 
ATOM     14  C   UNL     1     -18.759   7.568 -56.420  0.00  0.00    +0.000 A 
ENDBRANCH   5   9
BRANCH   4  16
ATOM     15  N   UNL     1     -22.866   7.031 -52.375  0.00  0.00    +0.000 NA
ATOM     16  C   UNL     1     -23.378   7.144 -53.558  0.00  0.00    +0.000 C 
BRANCH  15  17
ATOM     17  O   UNL     1     -22.943   8.274 -51.720  0.00  0.00    +0.000 OA
BRANCH  17  18
ATOM     18  C   UNL     1     -24.100   8.967 -52.203  0.00  0.00    +0.000 C 
BRANCH  18  21
ATOM     19 CL   UNL     1     -24.728  10.275 -49.419  0.00  0.00    +0.000 Cl
ATOM     20 CL   UNL     1     -23.091  10.568 -54.671  0.00  0.00    +0.000 Cl
ATOM     21  C   UNL     1     -23.931  10.462 -52.052  0.00  0.00    +0.000 A 
ATOM     22  C   UNL     1     -24.180  11.114 -50.830  0.00  0.00    +0.000 A 
ATOM     23  C   UNL     1     -23.471  11.251 -53.125  0.00  0.00    +0.000 A 
ATOM     24  C   UNL     1     -23.979  12.495 -50.689  0.00  0.00    +0.000 A 
ATOM     25  C   UNL     1     -23.275  12.631 -52.982  0.00  0.00    +0.000 A 
ATOM     26  C   UNL     1     -23.527  13.253 -51.763  0.00  0.00    +0.000 A 
ENDBRANCH  18  21
ENDBRANCH  17  18
ENDBRANCH  15  17
ENDBRANCH   4  16
TORSDOF 5
ENDMDL
MODEL 9
REMARK VINA RESULT:      -4.7     12.409     15.975
REMARK  Name = 9637254
REMARK  5 active torsions:
REMARK  status: ('A' for Active; 'I' for Inactive)
REMARK    1  A    between atoms: O_4  and  N_7
REMARK    2  A    between atoms: O_4  and  C_20
REMARK    3  A    between atoms: C_8  and  C_13
REMARK    4  A    between atoms: C_9  and  C_11
REMARK    5  A    between atoms: C_17  and  C_20
REMARK                            x       y       z     vdW  Elec       q    Type
REMARK                         _______ _______ _______ _____ _____    ______ ____
ROOT
ATOM      1  S   UNL     1     -23.085  12.321 -55.567  0.00  0.00    +0.000 S 
ATOM      2  N   UNL     1     -23.123  10.262 -54.034  0.00  0.00    +0.000 N 
ATOM      3  N   UNL     1     -22.148   9.704 -55.967  0.00  0.00    +0.000 NA
ATOM      4  C   UNL     1     -22.764   8.948 -53.875  0.00  0.00    +0.000 A 
ATOM      5  C   UNL     1     -22.196   8.611 -55.109  0.00  0.00    +0.000 A 
ATOM      6  C   UNL     1     -22.721  10.649 -55.277  0.00  0.00    +0.000 A 
ATOM      7  C   UNL     1     -23.717  11.250 -53.278  0.00  0.00    +0.000 A 
ATOM      8  C   UNL     1     -23.782  12.417 -53.943  0.00  0.00    +0.000 A 
ENDROOT
BRANCH   5   9
ATOM      9  C   UNL     1     -21.698   7.300 -55.510  0.00  0.00    +0.000 A 
ATOM     10  C   UNL     1     -20.326   7.118 -55.725  0.00  0.00    +0.000 A 
ATOM     11  C   UNL     1     -22.557   6.209 -55.713  0.00  0.00    +0.000 A 
ATOM     12  C   UNL     1     -19.819   5.864 -56.079  0.00  0.00    +0.000 A 
ATOM     13  C   UNL     1     -22.051   4.951 -56.046  0.00  0.00    +0.000 A 
ATOM     14  C   UNL     1     -20.682   4.777 -56.223  0.00  0.00    +0.000 A 
ENDBRANCH   5   9
BRANCH   4  16
ATOM     15  N   UNL     1     -23.876   7.274 -52.620  0.00  0.00    +0.000 NA
ATOM     16  C   UNL     1     -22.942   8.167 -52.688  0.00  0.00    +0.000 C 
BRANCH  15  17
ATOM     17  O   UNL     1     -23.795   6.618 -51.379  0.00  0.00    +0.000 OA
BRANCH  17  18
ATOM     18  C   UNL     1     -25.028   6.824 -50.678  0.00  0.00    +0.000 C 
BRANCH  18  21
ATOM     19 CL   UNL     1     -25.214   4.520 -48.553  0.00  0.00    +0.000 Cl
ATOM     20 CL   UNL     1     -24.285   9.761 -49.975  0.00  0.00    +0.000 Cl
ATOM     21  C   UNL     1     -24.771   7.157 -49.227  0.00  0.00    +0.000 A 
ATOM     22  C   UNL     1     -24.822   6.173 -48.222  0.00  0.00    +0.000 A 
ATOM     23  C   UNL     1     -24.422   8.465 -48.834  0.00  0.00    +0.000 A 
ATOM     24  C   UNL     1     -24.539   6.485 -46.884  0.00  0.00    +0.000 A 
ATOM     25  C   UNL     1     -24.144   8.774 -47.496  0.00  0.00    +0.000 A 
ATOM     26  C   UNL     1     -24.200   7.783 -46.521  0.00  0.00    +0.000 A 
ENDBRANCH  18  21
ENDBRANCH  17  18
ENDBRANCH  15  17
ENDBRANCH   4  16
TORSDOF 5
ENDMDL
MODEL 10
REMARK VINA RESULT:      -4.6     14.587     17.182
REMARK  Name = 9637254
REMARK  5 active torsions:
REMARK  status: ('A' for Active; 'I' for Inactive)
REMARK    1  A    between atoms: O_4  and  N_7
REMARK    2  A    between atoms: O_4  and  C_20
REMARK    3  A    between atoms: C_8  and  C_13
REMARK    4  A    between atoms: C_9  and  C_11
REMARK    5  A    between atoms: C_17  and  C_20
REMARK                            x       y       z     vdW  Elec       q    Type
REMARK                         _______ _______ _______ _____ _____    ______ ____
ROOT
ATOM      1  S   UNL     1     -26.558   3.299 -46.369  0.00  0.00    +0.000 S 
ATOM      2  N   UNL     1     -25.868   3.330 -48.841  0.00  0.00    +0.000 N 
ATOM      3  N   UNL     1     -25.287   5.277 -47.907  0.00  0.00    +0.000 NA
ATOM      4  C   UNL     1     -25.252   4.029 -49.849  0.00  0.00    +0.000 A 
ATOM      5  C   UNL     1     -24.937   5.255 -49.252  0.00  0.00    +0.000 A 
ATOM      6  C   UNL     1     -25.843   4.113 -47.726  0.00  0.00    +0.000 A 
ATOM      7  C   UNL     1     -26.437   2.086 -48.671  0.00  0.00    +0.000 A 
ATOM      8  C   UNL     1     -26.862   1.901 -47.409  0.00  0.00    +0.000 A 
ENDROOT
BRANCH   5   9
ATOM      9  C   UNL     1     -24.320   6.407 -49.901  0.00  0.00    +0.000 A 
ATOM     10  C   UNL     1     -22.927   6.553 -49.870  0.00  0.00    +0.000 A 
ATOM     11  C   UNL     1     -25.082   7.395 -50.543  0.00  0.00    +0.000 A 
ATOM     12  C   UNL     1     -22.309   7.631 -50.512  0.00  0.00    +0.000 A 
ATOM     13  C   UNL     1     -24.465   8.460 -51.201  0.00  0.00    +0.000 A 
ATOM     14  C   UNL     1     -23.079   8.575 -51.191  0.00  0.00    +0.000 A 
ENDBRANCH   5   9
BRANCH   4  16
ATOM     15  N   UNL     1     -25.614   4.072 -52.189  0.00  0.00    +0.000 NA
ATOM     16  C   UNL     1     -25.006   3.548 -51.174  0.00  0.00    +0.000 C 
BRANCH  15  17
ATOM     17  O   UNL     1     -25.151   3.460 -53.369  0.00  0.00    +0.000 OA
BRANCH  17  18
ATOM     18  C   UNL     1     -25.202   4.424 -54.427  0.00  0.00    +0.000 C 
BRANCH  18  21
ATOM     19 CL   UNL     1     -24.954   2.018 -56.429  0.00  0.00    +0.000 Cl
ATOM     20 CL   UNL     1     -23.073   6.675 -54.165  0.00  0.00    +0.000 Cl
ATOM     21  C   UNL     1     -23.969   4.332 -55.297  0.00  0.00    +0.000 A 
ATOM     22  C   UNL     1     -23.797   3.290 -56.227  0.00  0.00    +0.000 A 
ATOM     23  C   UNL     1     -22.966   5.320 -55.238  0.00  0.00    +0.000 A 
ATOM     24  C   UNL     1     -22.670   3.238 -57.059  0.00  0.00    +0.000 A 
ATOM     25  C   UNL     1     -21.838   5.262 -56.068  0.00  0.00    +0.000 A 
ATOM     26  C   UNL     1     -21.691   4.222 -56.981  0.00  0.00    +0.000 A 
ENDBRANCH  18  21
ENDBRANCH  17  18
ENDBRANCH  15  17
ENDBRANCH   4  16
TORSDOF 5
ENDMDL
