REMARK  Name = 9637149
REMARK  7 active torsions:
REMARK  status: ('A' for Active; 'I' for Inactive)
REMARK    1  A    between atoms: S_4  and  C_11
REMARK    2  A    between atoms: S_4  and  C_14
REMARK    3  A    between atoms: O_6  and  N_9
REMARK    4  A    between atoms: O_6  and  C_21
REMARK    5  A    between atoms: C_10  and  C_16
REMARK    6  A    between atoms: C_14  and  C_15
REMARK    7  A    between atoms: C_20  and  C_21
REMARK                            x       y       z     vdW  Elec       q    Type
REMARK                         _______ _______ _______ _____ _____    ______ ____
ROOT
ATOM      1  S   UNL     1       6.556   2.516  -2.425  0.00  0.00    +0.000 S 
ATOM      2  N   UNL     1       5.533   2.634  -0.076  0.00  0.00    +0.000 N 
ATOM      3  N   UNL     1       5.426   0.525  -0.796  0.00  0.00    +0.000 NA
ATOM      4  C   UNL     1       4.897   1.956   0.931  0.00  0.00    +0.000 A 
ATOM      5  C   UNL     1       4.835   0.648   0.449  0.00  0.00    +0.000 A 
ATOM      6  C   UNL     1       5.808   1.740  -1.064  0.00  0.00    +0.000 A 
ATOM      7  C   UNL     1       5.892   3.939  -0.343  0.00  0.00    +0.000 A 
ATOM      8  C   UNL     1       6.449   4.060  -1.561  0.00  0.00    +0.000 A 
ENDROOT
BRANCH   4  10
ATOM      9  N   UNL     1       3.386   2.098   2.753  0.00  0.00    +0.000 NA
ATOM     10  C   UNL     1       4.407   2.575   2.124  0.00  0.00    +0.000 C 
BRANCH   9  11
ATOM     11  O   UNL     1       3.054   2.942   3.825  0.00  0.00    +0.000 OA
BRANCH  11  12
ATOM     12  C   UNL     1       1.672   2.726   4.131  0.00  0.00    +0.000 C 
BRANCH  12  15
ATOM     13 CL   UNL     1      -2.226   5.490   6.148  0.00  0.00    +0.000 Cl
ATOM     14 CL   UNL     1      -0.273   6.278   8.629  0.00  0.00    +0.000 Cl
ATOM     15  C   UNL     1       1.204   3.637   5.241  0.00  0.00    +0.000 A 
ATOM     16  C   UNL     1      -0.114   4.121   5.225  0.00  0.00    +0.000 A 
ATOM     17  C   UNL     1       2.026   3.959   6.329  0.00  0.00    +0.000 A 
ATOM     18  C   UNL     1      -0.593   4.937   6.256  0.00  0.00    +0.000 A 
ATOM     19  C   UNL     1       1.552   4.776   7.359  0.00  0.00    +0.000 A 
ATOM     20  C   UNL     1       0.245   5.270   7.325  0.00  0.00    +0.000 A 
ENDBRANCH  12  15
ENDBRANCH  11  12
ENDBRANCH   9  11
ENDBRANCH   4  10
BRANCH   5  21
ATOM     21  S   UNL     1       4.100  -0.730   1.246  0.00  0.00    +0.000 S 
BRANCH  21  22
ATOM     22  C   UNL     1       4.976  -2.109   0.458  0.00  0.00    +0.000 C 
BRANCH  22  24
ATOM     23 CL   UNL     1       2.914  -7.461   2.355  0.00  0.00    +0.000 Cl
ATOM     24  C   UNL     1       4.458  -3.447   0.937  0.00  0.00    +0.000 A 
ATOM     25  C   UNL     1       3.425  -4.101   0.249  0.00  0.00    +0.000 A 
ATOM     26  C   UNL     1       4.988  -4.051   2.092  0.00  0.00    +0.000 A 
ATOM     27  C   UNL     1       2.947  -5.339   0.687  0.00  0.00    +0.000 A 
ATOM     28  C   UNL     1       4.509  -5.289   2.530  0.00  0.00    +0.000 A 
ATOM     29  C   UNL     1       3.493  -5.930   1.822  0.00  0.00    +0.000 A 
ENDBRANCH  22  24
ENDBRANCH  21  22
ENDBRANCH   5  21
TORSDOF 7
