MODEL 1
REMARK VINA RESULT:      -6.0      0.000      0.000
REMARK  Name = 9637149
REMARK  7 active torsions:
REMARK  status: ('A' for Active; 'I' for Inactive)
REMARK    1  A    between atoms: S_4  and  C_11
REMARK    2  A    between atoms: S_4  and  C_14
REMARK    3  A    between atoms: O_6  and  N_9
REMARK    4  A    between atoms: O_6  and  C_21
REMARK    5  A    between atoms: C_10  and  C_16
REMARK    6  A    between atoms: C_14  and  C_15
REMARK    7  A    between atoms: C_20  and  C_21
REMARK                            x       y       z     vdW  Elec       q    Type
REMARK                         _______ _______ _______ _____ _____    ______ ____
ROOT
ATOM      1  S   UNL     1     -11.816   2.783 -31.446  0.00  0.00    +0.000 S 
ATOM      2  N   UNL     1     -13.086   4.468 -32.905  0.00  0.00    +0.000 N 
ATOM      3  N   UNL     1     -11.092   5.327 -32.393  0.00  0.00    +0.000 NA
ATOM      4  C   UNL     1     -13.087   5.711 -33.482  0.00  0.00    +0.000 A 
ATOM      5  C   UNL     1     -11.837   6.226 -33.136  0.00  0.00    +0.000 A 
ATOM      6  C   UNL     1     -11.892   4.308 -32.273  0.00  0.00    +0.000 A 
ATOM      7  C   UNL     1     -13.973   3.419 -32.767  0.00  0.00    +0.000 A 
ATOM      8  C   UNL     1     -13.460   2.433 -32.011  0.00  0.00    +0.000 A 
ENDROOT
BRANCH   4  10
ATOM      9  N   UNL     1     -15.199   6.785 -33.574  0.00  0.00    +0.000 NA
ATOM     10  C   UNL     1     -14.198   6.258 -34.196  0.00  0.00    +0.000 C 
BRANCH   9  11
ATOM     11  O   UNL     1     -16.190   7.153 -34.497  0.00  0.00    +0.000 OA
BRANCH  11  12
ATOM     12  C   UNL     1     -16.838   8.325 -33.989  0.00  0.00    +0.000 C 
BRANCH  12  15
ATOM     13 CL   UNL     1     -21.380   9.762 -36.040  0.00  0.00    +0.000 Cl
ATOM     14 CL   UNL     1     -22.848   7.622 -34.076  0.00  0.00    +0.000 Cl
ATOM     15  C   UNL     1     -18.340   8.166 -33.983  0.00  0.00    +0.000 A 
ATOM     16  C   UNL     1     -19.116   8.927 -34.872  0.00  0.00    +0.000 A 
ATOM     17  C   UNL     1     -18.980   7.227 -33.164  0.00  0.00    +0.000 A 
ATOM     18  C   UNL     1     -20.507   8.779 -34.919  0.00  0.00    +0.000 A 
ATOM     19  C   UNL     1     -20.369   7.079 -33.206  0.00  0.00    +0.000 A 
ATOM     20  C   UNL     1     -21.136   7.854 -34.080  0.00  0.00    +0.000 A 
ENDBRANCH  12  15
ENDBRANCH  11  12
ENDBRANCH   9  11
ENDBRANCH   4  10
BRANCH   5  21
ATOM     21  S   UNL     1     -11.210   7.814 -33.534  0.00  0.00    +0.000 S 
BRANCH  21  22
ATOM     22  C   UNL     1     -11.211   7.756 -35.347  0.00  0.00    +0.000 C 
BRANCH  22  24
ATOM     23 CL   UNL     1      -7.729   3.292 -37.456  0.00  0.00    +0.000 Cl
ATOM     24  C   UNL     1     -10.338   6.637 -35.871  0.00  0.00    +0.000 A 
ATOM     25  C   UNL     1     -10.904   5.545 -36.546  0.00  0.00    +0.000 A 
ATOM     26  C   UNL     1      -8.945   6.660 -35.673  0.00  0.00    +0.000 A 
ATOM     27  C   UNL     1     -10.099   4.512 -37.034  0.00  0.00    +0.000 A 
ATOM     28  C   UNL     1      -8.141   5.626 -36.161  0.00  0.00    +0.000 A 
ATOM     29  C   UNL     1      -8.722   4.558 -36.844  0.00  0.00    +0.000 A 
ENDBRANCH  22  24
ENDBRANCH  21  22
ENDBRANCH   5  21
TORSDOF 7
ENDMDL
MODEL 2
REMARK VINA RESULT:      -5.6     21.653     24.853
REMARK  Name = 9637149
REMARK  7 active torsions:
REMARK  status: ('A' for Active; 'I' for Inactive)
REMARK    1  A    between atoms: S_4  and  C_11
REMARK    2  A    between atoms: S_4  and  C_14
REMARK    3  A    between atoms: O_6  and  N_9
REMARK    4  A    between atoms: O_6  and  C_21
REMARK    5  A    between atoms: C_10  and  C_16
REMARK    6  A    between atoms: C_14  and  C_15
REMARK    7  A    between atoms: C_20  and  C_21
REMARK                            x       y       z     vdW  Elec       q    Type
REMARK                         _______ _______ _______ _____ _____    ______ ____
ROOT
ATOM      1  S   UNL     1      -4.460   5.856 -60.740  0.00  0.00    +0.000 S 
ATOM      2  N   UNL     1      -4.537   5.184 -58.266  0.00  0.00    +0.000 N 
ATOM      3  N   UNL     1      -2.966   6.745 -58.532  0.00  0.00    +0.000 NA
ATOM      4  C   UNL     1      -3.990   5.340 -57.019  0.00  0.00    +0.000 A 
ATOM      5  C   UNL     1      -3.007   6.310 -57.219  0.00  0.00    +0.000 A 
ATOM      6  C   UNL     1      -3.886   6.028 -59.110  0.00  0.00    +0.000 A 
ATOM      7  C   UNL     1      -5.495   4.383 -58.853  0.00  0.00    +0.000 A 
ATOM      8  C   UNL     1      -5.583   4.606 -60.176  0.00  0.00    +0.000 A 
ENDROOT
BRANCH   4  10
ATOM      9  N   UNL     1      -4.106   3.325 -55.776  0.00  0.00    +0.000 NA
ATOM     10  C   UNL     1      -4.385   4.581 -55.873  0.00  0.00    +0.000 C 
BRANCH   9  11
ATOM     11  O   UNL     1      -4.688   2.799 -54.611  0.00  0.00    +0.000 OA
BRANCH  11  12
ATOM     12  C   UNL     1      -4.298   1.425 -54.516  0.00  0.00    +0.000 C 
BRANCH  12  15
ATOM     13 CL   UNL     1      -8.991  -0.649 -53.756  0.00  0.00    +0.000 Cl
ATOM     14 CL   UNL     1      -7.940  -1.766 -50.885  0.00  0.00    +0.000 Cl
ATOM     15  C   UNL     1      -5.210   0.655 -53.591  0.00  0.00    +0.000 A 
ATOM     16  C   UNL     1      -6.526   0.378 -53.995  0.00  0.00    +0.000 A 
ATOM     17  C   UNL     1      -4.760   0.144 -52.366  0.00  0.00    +0.000 A 
ATOM     18  C   UNL     1      -7.387  -0.364 -53.179  0.00  0.00    +0.000 A 
ATOM     19  C   UNL     1      -5.618  -0.595 -51.548  0.00  0.00    +0.000 A 
ATOM     20  C   UNL     1      -6.933  -0.849 -51.949  0.00  0.00    +0.000 A 
ENDBRANCH  12  15
ENDBRANCH  11  12
ENDBRANCH   9  11
ENDBRANCH   4  10
BRANCH   5  21
ATOM     21  S   UNL     1      -1.901   6.946 -56.017  0.00  0.00    +0.000 S 
BRANCH  21  22
ATOM     22  C   UNL     1      -0.826   7.993 -57.036  0.00  0.00    +0.000 C 
BRANCH  22  24
ATOM     23 CL   UNL     1       3.985   9.921 -53.932  0.00  0.00    +0.000 Cl
ATOM     24  C   UNL     1       0.378   8.480 -56.261  0.00  0.00    +0.000 A 
ATOM     25  C   UNL     1       0.300   8.690 -54.876  0.00  0.00    +0.000 A 
ATOM     26  C   UNL     1       1.593   8.751 -56.917  0.00  0.00    +0.000 A 
ATOM     27  C   UNL     1       1.412   9.136 -54.157  0.00  0.00    +0.000 A 
ATOM     28  C   UNL     1       2.705   9.198 -56.198  0.00  0.00    +0.000 A 
ATOM     29  C   UNL     1       2.611   9.384 -54.819  0.00  0.00    +0.000 A 
ENDBRANCH  22  24
ENDBRANCH  21  22
ENDBRANCH   5  21
TORSDOF 7
ENDMDL
MODEL 3
REMARK VINA RESULT:      -5.4      1.929      2.516
REMARK  Name = 9637149
REMARK  7 active torsions:
REMARK  status: ('A' for Active; 'I' for Inactive)
REMARK    1  A    between atoms: S_4  and  C_11
REMARK    2  A    between atoms: S_4  and  C_14
REMARK    3  A    between atoms: O_6  and  N_9
REMARK    4  A    between atoms: O_6  and  C_21
REMARK    5  A    between atoms: C_10  and  C_16
REMARK    6  A    between atoms: C_14  and  C_15
REMARK    7  A    between atoms: C_20  and  C_21
REMARK                            x       y       z     vdW  Elec       q    Type
REMARK                         _______ _______ _______ _____ _____    ______ ____
ROOT
ATOM      1  S   UNL     1     -12.746   4.295 -28.982  0.00  0.00    +0.000 S 
ATOM      2  N   UNL     1     -13.581   4.969 -31.312  0.00  0.00    +0.000 N 
ATOM      3  N   UNL     1     -11.540   4.089 -31.512  0.00  0.00    +0.000 NA
ATOM      4  C   UNL     1     -13.292   5.064 -32.648  0.00  0.00    +0.000 A 
ATOM      5  C   UNL     1     -12.011   4.519 -32.740  0.00  0.00    +0.000 A 
ATOM      6  C   UNL     1     -12.509   4.398 -30.699  0.00  0.00    +0.000 A 
ATOM      7  C   UNL     1     -14.611   5.342 -30.474  0.00  0.00    +0.000 A 
ATOM      8  C   UNL     1     -14.331   5.061 -29.189  0.00  0.00    +0.000 A 
ENDROOT
BRANCH   4  10
ATOM      9  N   UNL     1     -13.940   6.844 -34.075  0.00  0.00    +0.000 NA
ATOM     10  C   UNL     1     -14.165   5.660 -33.613  0.00  0.00    +0.000 C 
BRANCH   9  11
ATOM     11  O   UNL     1     -14.991   7.228 -34.923  0.00  0.00    +0.000 OA
BRANCH  11  12
ATOM     12  C   UNL     1     -15.577   8.413 -34.374  0.00  0.00    +0.000 C 
BRANCH  12  15
ATOM     13 CL   UNL     1     -19.962   6.528 -32.345  0.00  0.00    +0.000 Cl
ATOM     14 CL   UNL     1     -21.626   8.289 -34.518  0.00  0.00    +0.000 Cl
ATOM     15  C   UNL     1     -17.085   8.364 -34.437  0.00  0.00    +0.000 A 
ATOM     16  C   UNL     1     -17.787   7.574 -33.512  0.00  0.00    +0.000 A 
ATOM     17  C   UNL     1     -17.813   9.140 -35.348  0.00  0.00    +0.000 A 
ATOM     18  C   UNL     1     -19.185   7.533 -33.516  0.00  0.00    +0.000 A 
ATOM     19  C   UNL     1     -19.210   9.099 -35.357  0.00  0.00    +0.000 A 
ATOM     20  C   UNL     1     -19.900   8.295 -34.446  0.00  0.00    +0.000 A 
ENDBRANCH  12  15
ENDBRANCH  11  12
ENDBRANCH   9  11
ENDBRANCH   4  10
BRANCH   5  21
ATOM     21  S   UNL     1     -11.035   4.373 -34.189  0.00  0.00    +0.000 S 
BRANCH  21  22
ATOM     22  C   UNL     1     -10.291   6.024 -34.288  0.00  0.00    +0.000 C 
BRANCH  22  24
ATOM     23 CL   UNL     1      -5.060   5.923 -37.309  0.00  0.00    +0.000 Cl
ATOM     24  C   UNL     1      -8.980   6.003 -35.042  0.00  0.00    +0.000 A 
ATOM     25  C   UNL     1      -8.060   4.963 -34.845  0.00  0.00    +0.000 A 
ATOM     26  C   UNL     1      -8.650   7.035 -35.940  0.00  0.00    +0.000 A 
ATOM     27  C   UNL     1      -6.849   4.938 -35.543  0.00  0.00    +0.000 A 
ATOM     28  C   UNL     1      -7.439   7.011 -36.637  0.00  0.00    +0.000 A 
ATOM     29  C   UNL     1      -6.545   5.959 -36.439  0.00  0.00    +0.000 A 
ENDBRANCH  22  24
ENDBRANCH  21  22
ENDBRANCH   5  21
TORSDOF 7
ENDMDL
MODEL 4
REMARK VINA RESULT:      -5.3     16.719     19.202
REMARK  Name = 9637149
REMARK  7 active torsions:
REMARK  status: ('A' for Active; 'I' for Inactive)
REMARK    1  A    between atoms: S_4  and  C_11
REMARK    2  A    between atoms: S_4  and  C_14
REMARK    3  A    between atoms: O_6  and  N_9
REMARK    4  A    between atoms: O_6  and  C_21
REMARK    5  A    between atoms: C_10  and  C_16
REMARK    6  A    between atoms: C_14  and  C_15
REMARK    7  A    between atoms: C_20  and  C_21
REMARK                            x       y       z     vdW  Elec       q    Type
REMARK                         _______ _______ _______ _____ _____    ______ ____
ROOT
ATOM      1  S   UNL     1     -25.153  12.157 -52.194  0.00  0.00    +0.000 S 
ATOM      2  N   UNL     1     -24.409  10.466 -50.415  0.00  0.00    +0.000 N 
ATOM      3  N   UNL     1     -24.114   9.557 -52.431  0.00  0.00    +0.000 NA
ATOM      4  C   UNL     1     -23.940   9.204 -50.161  0.00  0.00    +0.000 A 
ATOM      5  C   UNL     1     -23.776   8.659 -51.435  0.00  0.00    +0.000 A 
ATOM      6  C   UNL     1     -24.498  10.608 -51.765  0.00  0.00    +0.000 A 
ATOM      7  C   UNL     1     -24.843  11.548 -49.677  0.00  0.00    +0.000 A 
ATOM      8  C   UNL     1     -25.282  12.543 -50.469  0.00  0.00    +0.000 A 
ENDROOT
BRANCH   4  10
ATOM      9  N   UNL     1     -24.011   7.430 -48.589  0.00  0.00    +0.000 NA
ATOM     10  C   UNL     1     -23.760   8.669 -48.846  0.00  0.00    +0.000 C 
BRANCH   9  11
ATOM     11  O   UNL     1     -23.848   7.189 -47.215  0.00  0.00    +0.000 OA
BRANCH  11  12
ATOM     12  C   UNL     1     -24.878   7.909 -46.527  0.00  0.00    +0.000 C 
BRANCH  12  15
ATOM     13 CL   UNL     1     -22.873   6.711 -41.896  0.00  0.00    +0.000 Cl
ATOM     14 CL   UNL     1     -22.836   9.886 -41.184  0.00  0.00    +0.000 Cl
ATOM     15  C   UNL     1     -24.399   8.407 -45.184  0.00  0.00    +0.000 A 
ATOM     16  C   UNL     1     -23.921   7.487 -44.238  0.00  0.00    +0.000 A 
ATOM     17  C   UNL     1     -24.351   9.774 -44.878  0.00  0.00    +0.000 A 
ATOM     18  C   UNL     1     -23.435   7.916 -42.998  0.00  0.00    +0.000 A 
ATOM     19  C   UNL     1     -23.869  10.206 -43.639  0.00  0.00    +0.000 A 
ATOM     20  C   UNL     1     -23.414   9.282 -42.696  0.00  0.00    +0.000 A 
ENDBRANCH  12  15
ENDBRANCH  11  12
ENDBRANCH   9  11
ENDBRANCH   4  10
BRANCH   5  21
ATOM     21  S   UNL     1     -23.234   7.037 -51.820  0.00  0.00    +0.000 S 
BRANCH  21  22
ATOM     22  C   UNL     1     -23.705   6.907 -53.567  0.00  0.00    +0.000 C 
BRANCH  22  24
ATOM     23 CL   UNL     1     -18.853   6.524 -57.146  0.00  0.00    +0.000 Cl
ATOM     24  C   UNL     1     -22.493   6.812 -54.467  0.00  0.00    +0.000 A 
ATOM     25  C   UNL     1     -21.495   7.797 -54.428  0.00  0.00    +0.000 A 
ATOM     26  C   UNL     1     -22.353   5.745 -55.374  0.00  0.00    +0.000 A 
ATOM     27  C   UNL     1     -20.372   7.709 -55.256  0.00  0.00    +0.000 A 
ATOM     28  C   UNL     1     -21.230   5.659 -56.202  0.00  0.00    +0.000 A 
ATOM     29  C   UNL     1     -20.242   6.640 -56.136  0.00  0.00    +0.000 A 
ENDBRANCH  22  24
ENDBRANCH  21  22
ENDBRANCH   5  21
TORSDOF 7
ENDMDL
MODEL 5
REMARK VINA RESULT:      -5.3     19.340     21.489
REMARK  Name = 9637149
REMARK  7 active torsions:
REMARK  status: ('A' for Active; 'I' for Inactive)
REMARK    1  A    between atoms: S_4  and  C_11
REMARK    2  A    between atoms: S_4  and  C_14
REMARK    3  A    between atoms: O_6  and  N_9
REMARK    4  A    between atoms: O_6  and  C_21
REMARK    5  A    between atoms: C_10  and  C_16
REMARK    6  A    between atoms: C_14  and  C_15
REMARK    7  A    between atoms: C_20  and  C_21
REMARK                            x       y       z     vdW  Elec       q    Type
REMARK                         _______ _______ _______ _____ _____    ______ ____
ROOT
ATOM      1  S   UNL     1      -7.086  -7.705 -46.633  0.00  0.00    +0.000 S 
ATOM      2  N   UNL     1      -6.924  -5.661 -48.173  0.00  0.00    +0.000 N 
ATOM      3  N   UNL     1      -6.144  -7.442 -49.266  0.00  0.00    +0.000 NA
ATOM      4  C   UNL     1      -6.517  -5.171 -49.387  0.00  0.00    +0.000 A 
ATOM      5  C   UNL     1      -6.025  -6.302 -50.041  0.00  0.00    +0.000 A 
ATOM      6  C   UNL     1      -6.669  -6.997 -48.162  0.00  0.00    +0.000 A 
ATOM      7  C   UNL     1      -7.447  -5.149 -47.004  0.00  0.00    +0.000 A 
ATOM      8  C   UNL     1      -7.595  -6.104 -46.068  0.00  0.00    +0.000 A 
ENDROOT
BRANCH   4  10
ATOM      9  N   UNL     1      -7.714  -3.191 -49.904  0.00  0.00    +0.000 NA
ATOM     10  C   UNL     1      -6.581  -3.790 -49.752  0.00  0.00    +0.000 C 
BRANCH   9  11
ATOM     11  O   UNL     1      -7.499  -1.879 -50.355  0.00  0.00    +0.000 OA
BRANCH  11  12
ATOM     12  C   UNL     1      -6.599  -1.948 -51.467  0.00  0.00    +0.000 C 
BRANCH  12  15
ATOM     13 CL   UNL     1      -4.273   2.652 -50.890  0.00  0.00    +0.000 Cl
ATOM     14 CL   UNL     1      -5.409   3.500 -53.819  0.00  0.00    +0.000 Cl
ATOM     15  C   UNL     1      -6.332  -0.579 -52.047  0.00  0.00    +0.000 A 
ATOM     16  C   UNL     1      -5.543   0.332 -51.327  0.00  0.00    +0.000 A 
ATOM     17  C   UNL     1      -6.791  -0.214 -53.320  0.00  0.00    +0.000 A 
ATOM     18  C   UNL     1      -5.245   1.595 -51.850  0.00  0.00    +0.000 A 
ATOM     19  C   UNL     1      -6.498   1.048 -53.844  0.00  0.00    +0.000 A 
ATOM     20  C   UNL     1      -5.728   1.957 -53.112  0.00  0.00    +0.000 A 
ENDBRANCH  12  15
ENDBRANCH  11  12
ENDBRANCH   9  11
ENDBRANCH   4  10
BRANCH   5  21
ATOM     21  S   UNL     1      -5.310  -6.360 -51.641  0.00  0.00    +0.000 S 
BRANCH  21  22
ATOM     22  C   UNL     1      -3.694  -5.594 -51.338  0.00  0.00    +0.000 C 
BRANCH  22  24
ATOM     23 CL   UNL     1      -3.116  -0.335 -54.253  0.00  0.00    +0.000 Cl
ATOM     24  C   UNL     1      -3.554  -4.277 -52.068  0.00  0.00    +0.000 A 
ATOM     25  C   UNL     1      -2.908  -3.189 -51.461  0.00  0.00    +0.000 A 
ATOM     26  C   UNL     1      -4.086  -4.111 -53.360  0.00  0.00    +0.000 A 
ATOM     27  C   UNL     1      -2.774  -1.972 -52.135  0.00  0.00    +0.000 A 
ATOM     28  C   UNL     1      -3.952  -2.893 -54.033  0.00  0.00    +0.000 A 
ATOM     29  C   UNL     1      -3.292  -1.830 -53.418  0.00  0.00    +0.000 A 
ENDBRANCH  22  24
ENDBRANCH  21  22
ENDBRANCH   5  21
TORSDOF 7
ENDMDL
MODEL 6
REMARK VINA RESULT:      -5.3     15.642     18.262
REMARK  Name = 9637149
REMARK  7 active torsions:
REMARK  status: ('A' for Active; 'I' for Inactive)
REMARK    1  A    between atoms: S_4  and  C_11
REMARK    2  A    between atoms: S_4  and  C_14
REMARK    3  A    between atoms: O_6  and  N_9
REMARK    4  A    between atoms: O_6  and  C_21
REMARK    5  A    between atoms: C_10  and  C_16
REMARK    6  A    between atoms: C_14  and  C_15
REMARK    7  A    between atoms: C_20  and  C_21
REMARK                            x       y       z     vdW  Elec       q    Type
REMARK                         _______ _______ _______ _____ _____    ______ ____
ROOT
ATOM      1  S   UNL     1       3.674  11.970 -39.912  0.00  0.00    +0.000 S 
ATOM      2  N   UNL     1       1.947  12.593 -41.703  0.00  0.00    +0.000 N 
ATOM      3  N   UNL     1       1.141  10.901 -40.493  0.00  0.00    +0.000 NA
ATOM      4  C   UNL     1       0.737  12.302 -42.278  0.00  0.00    +0.000 A 
ATOM      5  C   UNL     1       0.265  11.237 -41.510  0.00  0.00    +0.000 A 
ATOM      6  C   UNL     1       2.130  11.729 -40.668  0.00  0.00    +0.000 A 
ATOM      7  C   UNL     1       2.993  13.461 -41.940  0.00  0.00    +0.000 A 
ATOM      8  C   UNL     1       4.005  13.264 -41.077  0.00  0.00    +0.000 A 
ENDROOT
BRANCH   4  10
ATOM      9  N   UNL     1       0.592  12.635 -44.621  0.00  0.00    +0.000 NA
ATOM     10  C   UNL     1       0.220  12.971 -43.431  0.00  0.00    +0.000 C 
BRANCH   9  11
ATOM     11  O   UNL     1       0.016  13.506 -45.560  0.00  0.00    +0.000 OA
BRANCH  11  12
ATOM     12  C   UNL     1      -1.400  13.301 -45.527  0.00  0.00    +0.000 C 
BRANCH  12  15
ATOM     13 CL   UNL     1      -4.697  16.025 -48.462  0.00  0.00    +0.000 Cl
ATOM     14 CL   UNL     1      -4.515  18.435 -46.282  0.00  0.00    +0.000 Cl
ATOM     15  C   UNL     1      -2.150  14.597 -45.724  0.00  0.00    +0.000 A 
ATOM     16  C   UNL     1      -2.975  14.751 -46.849  0.00  0.00    +0.000 A 
ATOM     17  C   UNL     1      -2.103  15.629 -44.778  0.00  0.00    +0.000 A 
ATOM     18  C   UNL     1      -3.713  15.923 -47.045  0.00  0.00    +0.000 A 
ATOM     19  C   UNL     1      -2.836  16.803 -44.971  0.00  0.00    +0.000 A 
ATOM     20  C   UNL     1      -3.640  16.956 -46.105  0.00  0.00    +0.000 A 
ENDBRANCH  12  15
ENDBRANCH  11  12
ENDBRANCH   9  11
ENDBRANCH   4  10
BRANCH   5  21
ATOM     21  S   UNL     1      -1.235  10.359 -41.744  0.00  0.00    +0.000 S 
BRANCH  21  22
ATOM     22  C   UNL     1      -2.407  11.403 -40.834  0.00  0.00    +0.000 C 
BRANCH  22  24
ATOM     23 CL   UNL     1      -5.959  14.549 -44.572  0.00  0.00    +0.000 Cl
ATOM     24  C   UNL     1      -3.300  12.187 -41.769  0.00  0.00    +0.000 A 
ATOM     25  C   UNL     1      -3.752  13.468 -41.419  0.00  0.00    +0.000 A 
ATOM     26  C   UNL     1      -3.710  11.640 -42.999  0.00  0.00    +0.000 A 
ATOM     27  C   UNL     1      -4.574  14.197 -42.283  0.00  0.00    +0.000 A 
ATOM     28  C   UNL     1      -4.533  12.369 -43.862  0.00  0.00    +0.000 A 
ATOM     29  C   UNL     1      -4.957  13.647 -43.502  0.00  0.00    +0.000 A 
ENDBRANCH  22  24
ENDBRANCH  21  22
ENDBRANCH   5  21
TORSDOF 7
ENDMDL
MODEL 7
REMARK VINA RESULT:      -5.2      5.065      9.529
REMARK  Name = 9637149
REMARK  7 active torsions:
REMARK  status: ('A' for Active; 'I' for Inactive)
REMARK    1  A    between atoms: S_4  and  C_11
REMARK    2  A    between atoms: S_4  and  C_14
REMARK    3  A    between atoms: O_6  and  N_9
REMARK    4  A    between atoms: O_6  and  C_21
REMARK    5  A    between atoms: C_10  and  C_16
REMARK    6  A    between atoms: C_14  and  C_15
REMARK    7  A    between atoms: C_20  and  C_21
REMARK                            x       y       z     vdW  Elec       q    Type
REMARK                         _______ _______ _______ _____ _____    ______ ____
ROOT
ATOM      1  S   UNL     1     -11.680   4.742 -36.220  0.00  0.00    +0.000 S 
ATOM      2  N   UNL     1     -11.492   7.097 -35.223  0.00  0.00    +0.000 N 
ATOM      3  N   UNL     1     -13.564   6.343 -34.886  0.00  0.00    +0.000 NA
ATOM      4  C   UNL     1     -12.139   8.131 -34.598  0.00  0.00    +0.000 A 
ATOM      5  C   UNL     1     -13.430   7.636 -34.411  0.00  0.00    +0.000 A 
ATOM      6  C   UNL     1     -12.385   6.082 -35.371  0.00  0.00    +0.000 A 
ATOM      7  C   UNL     1     -10.242   6.868 -35.759  0.00  0.00    +0.000 A 
ATOM      8  C   UNL     1     -10.167   5.656 -36.339  0.00  0.00    +0.000 A 
ENDROOT
BRANCH   4  10
ATOM      9  N   UNL     1     -11.317   9.773 -33.098  0.00  0.00    +0.000 NA
ATOM     10  C   UNL     1     -11.534   9.395 -34.313  0.00  0.00    +0.000 C 
BRANCH   9  11
ATOM     11  O   UNL     1     -10.810  11.083 -33.094  0.00  0.00    +0.000 OA
BRANCH  11  12
ATOM     12  C   UNL     1     -10.633  11.481 -34.458  0.00  0.00    +0.000 C 
BRANCH  12  15
ATOM     13 CL   UNL     1      -6.190  14.158 -34.427  0.00  0.00    +0.000 Cl
ATOM     14 CL   UNL     1      -7.915  16.864 -34.970  0.00  0.00    +0.000 Cl
ATOM     15  C   UNL     1      -9.965  12.832 -34.556  0.00  0.00    +0.000 A 
ATOM     16  C   UNL     1      -8.567  12.918 -34.452  0.00  0.00    +0.000 A 
ATOM     17  C   UNL     1     -10.694  13.999 -34.819  0.00  0.00    +0.000 A 
ATOM     18  C   UNL     1      -7.912  14.148 -34.575  0.00  0.00    +0.000 A 
ATOM     19  C   UNL     1     -10.042  15.230 -34.939  0.00  0.00    +0.000 A 
ATOM     20  C   UNL     1      -8.653  15.310 -34.815  0.00  0.00    +0.000 A 
ENDBRANCH  12  15
ENDBRANCH  11  12
ENDBRANCH   9  11
ENDBRANCH   4  10
BRANCH   5  21
ATOM     21  S   UNL     1     -14.785   8.484 -33.691  0.00  0.00    +0.000 S 
BRANCH  21  22
ATOM     22  C   UNL     1     -16.042   7.177 -33.642  0.00  0.00    +0.000 C 
BRANCH  22  24
ATOM     23 CL   UNL     1     -21.468   9.221 -35.337  0.00  0.00    +0.000 Cl
ATOM     24  C   UNL     1     -17.400   7.692 -34.062  0.00  0.00    +0.000 A 
ATOM     25  C   UNL     1     -17.541   8.480 -35.214  0.00  0.00    +0.000 A 
ATOM     26  C   UNL     1     -18.545   7.406 -33.296  0.00  0.00    +0.000 A 
ATOM     27  C   UNL     1     -18.795   8.953 -35.607  0.00  0.00    +0.000 A 
ATOM     28  C   UNL     1     -19.800   7.881 -33.689  0.00  0.00    +0.000 A 
ATOM     29  C   UNL     1     -19.920   8.649 -34.847  0.00  0.00    +0.000 A 
ENDBRANCH  22  24
ENDBRANCH  21  22
ENDBRANCH   5  21
TORSDOF 7
ENDMDL
MODEL 8
REMARK VINA RESULT:      -5.1     18.522     20.891
REMARK  Name = 9637149
REMARK  7 active torsions:
REMARK  status: ('A' for Active; 'I' for Inactive)
REMARK    1  A    between atoms: S_4  and  C_11
REMARK    2  A    between atoms: S_4  and  C_14
REMARK    3  A    between atoms: O_6  and  N_9
REMARK    4  A    between atoms: O_6  and  C_21
REMARK    5  A    between atoms: C_10  and  C_16
REMARK    6  A    between atoms: C_14  and  C_15
REMARK    7  A    between atoms: C_20  and  C_21
REMARK                            x       y       z     vdW  Elec       q    Type
REMARK                         _______ _______ _______ _____ _____    ______ ____
ROOT
ATOM      1  S   UNL     1     -25.659   7.181 -45.913  0.00  0.00    +0.000 S 
ATOM      2  N   UNL     1     -24.352   7.399 -48.110  0.00  0.00    +0.000 N 
ATOM      3  N   UNL     1     -25.553   5.520 -48.177  0.00  0.00    +0.000 NA
ATOM      4  C   UNL     1     -24.033   6.827 -49.313  0.00  0.00    +0.000 A 
ATOM      5  C   UNL     1     -24.787   5.653 -49.322  0.00  0.00    +0.000 A 
ATOM      6  C   UNL     1     -25.241   6.579 -47.487  0.00  0.00    +0.000 A 
ATOM      7  C   UNL     1     -23.972   8.513 -47.390  0.00  0.00    +0.000 A 
ATOM      8  C   UNL     1     -24.571   8.553 -46.187  0.00  0.00    +0.000 A 
ENDROOT
BRANCH   4  10
ATOM      9  N   UNL     1     -23.469   8.050 -51.265  0.00  0.00    +0.000 NA
ATOM     10  C   UNL     1     -23.085   7.378 -50.232  0.00  0.00    +0.000 C 
BRANCH   9  11
ATOM     11  O   UNL     1     -22.355   8.391 -52.049  0.00  0.00    +0.000 OA
BRANCH  11  12
ATOM     12  C   UNL     1     -22.822   8.626 -53.382  0.00  0.00    +0.000 C 
BRANCH  12  15
ATOM     13 CL   UNL     1     -19.277   6.348 -56.406  0.00  0.00    +0.000 Cl
ATOM     14 CL   UNL     1     -21.404   3.945 -56.948  0.00  0.00    +0.000 Cl
ATOM     15  C   UNL     1     -22.487   7.470 -54.295  0.00  0.00    +0.000 A 
ATOM     16  C   UNL     1     -21.217   7.409 -54.890  0.00  0.00    +0.000 A 
ATOM     17  C   UNL     1     -23.384   6.416 -54.512  0.00  0.00    +0.000 A 
ATOM     18  C   UNL     1     -20.859   6.334 -55.713  0.00  0.00    +0.000 A 
ATOM     19  C   UNL     1     -23.031   5.342 -55.335  0.00  0.00    +0.000 A 
ATOM     20  C   UNL     1     -21.772   5.299 -55.940  0.00  0.00    +0.000 A 
ENDBRANCH  12  15
ENDBRANCH  11  12
ENDBRANCH   9  11
ENDBRANCH   4  10
BRANCH   5  21
ATOM     21  S   UNL     1     -24.809   4.429 -50.577  0.00  0.00    +0.000 S 
BRANCH  21  22
ATOM     22  C   UNL     1     -25.436   2.992 -49.665  0.00  0.00    +0.000 C 
BRANCH  22  24
ATOM     23 CL   UNL     1     -24.204  -2.172 -52.548  0.00  0.00    +0.000 Cl
ATOM     24  C   UNL     1     -25.127   1.697 -50.383  0.00  0.00    +0.000 A 
ATOM     25  C   UNL     1     -26.123   1.027 -51.109  0.00  0.00    +0.000 A 
ATOM     26  C   UNL     1     -23.841   1.129 -50.319  0.00  0.00    +0.000 A 
ATOM     27  C   UNL     1     -25.839  -0.168 -51.776  0.00  0.00    +0.000 A 
ATOM     28  C   UNL     1     -23.558  -0.066 -50.986  0.00  0.00    +0.000 A 
ATOM     29  C   UNL     1     -24.558  -0.707 -51.716  0.00  0.00    +0.000 A 
ENDBRANCH  22  24
ENDBRANCH  21  22
ENDBRANCH   5  21
TORSDOF 7
ENDMDL
MODEL 9
REMARK VINA RESULT:      -5.1     14.604     17.988
REMARK  Name = 9637149
REMARK  7 active torsions:
REMARK  status: ('A' for Active; 'I' for Inactive)
REMARK    1  A    between atoms: S_4  and  C_11
REMARK    2  A    between atoms: S_4  and  C_14
REMARK    3  A    between atoms: O_6  and  N_9
REMARK    4  A    between atoms: O_6  and  C_21
REMARK    5  A    between atoms: C_10  and  C_16
REMARK    6  A    between atoms: C_14  and  C_15
REMARK    7  A    between atoms: C_20  and  C_21
REMARK                            x       y       z     vdW  Elec       q    Type
REMARK                         _______ _______ _______ _____ _____    ______ ____
ROOT
ATOM      1  S   UNL     1     -13.154  21.732 -45.884  0.00  0.00    +0.000 S 
ATOM      2  N   UNL     1     -11.620  20.040 -44.717  0.00  0.00    +0.000 N 
ATOM      3  N   UNL     1     -13.563  19.044 -45.178  0.00  0.00    +0.000 NA
ATOM      4  C   UNL     1     -11.491  18.776 -44.205  0.00  0.00    +0.000 A 
ATOM      5  C   UNL     1     -12.720  18.183 -44.497  0.00  0.00    +0.000 A 
ATOM      6  C   UNL     1     -12.862  20.137 -45.265  0.00  0.00    +0.000 A 
ATOM      7  C   UNL     1     -10.864  21.193 -44.760  0.00  0.00    +0.000 A 
ATOM      8  C   UNL     1     -11.532  22.202 -45.346  0.00  0.00    +0.000 A 
ENDROOT
BRANCH   4  10
ATOM      9  N   UNL     1      -9.479  17.528 -44.068  0.00  0.00    +0.000 NA
ATOM     10  C   UNL     1     -10.333  18.314 -43.503  0.00  0.00    +0.000 C 
BRANCH   9  11
ATOM     11  O   UNL     1      -8.498  17.149 -43.138  0.00  0.00    +0.000 OA
BRANCH  11  12
ATOM     12  C   UNL     1      -7.238  17.148 -43.817  0.00  0.00    +0.000 C 
BRANCH  12  15
ATOM     13 CL   UNL     1      -4.635  14.978 -39.890  0.00  0.00    +0.000 Cl
ATOM     14 CL   UNL     1      -3.824  12.539 -41.886  0.00  0.00    +0.000 Cl
ATOM     15  C   UNL     1      -6.360  16.010 -43.352  0.00  0.00    +0.000 A 
ATOM     16  C   UNL     1      -5.919  15.982 -42.019  0.00  0.00    +0.000 A 
ATOM     17  C   UNL     1      -6.029  14.940 -44.193  0.00  0.00    +0.000 A 
ATOM     18  C   UNL     1      -5.136  14.924 -41.543  0.00  0.00    +0.000 A 
ATOM     19  C   UNL     1      -5.245  13.884 -43.722  0.00  0.00    +0.000 A 
ATOM     20  C   UNL     1      -4.793  13.873 -42.399  0.00  0.00    +0.000 A 
ENDBRANCH  12  15
ENDBRANCH  11  12
ENDBRANCH   9  11
ENDBRANCH   4  10
BRANCH   5  21
ATOM     21  S   UNL     1     -13.228  16.559 -44.075  0.00  0.00    +0.000 S 
BRANCH  21  22
ATOM     22  C   UNL     1     -12.765  15.639 -45.567  0.00  0.00    +0.000 C 
BRANCH  22  24
ATOM     23 CL   UNL     1     -17.324  15.317 -49.518  0.00  0.00    +0.000 Cl
ATOM     24  C   UNL     1     -13.909  15.561 -46.554  0.00  0.00    +0.000 A 
ATOM     25  C   UNL     1     -13.760  16.050 -47.860  0.00  0.00    +0.000 A 
ATOM     26  C   UNL     1     -15.149  15.016 -46.174  0.00  0.00    +0.000 A 
ATOM     27  C   UNL     1     -14.814  15.977 -48.775  0.00  0.00    +0.000 A 
ATOM     28  C   UNL     1     -16.203  14.943 -47.089  0.00  0.00    +0.000 A 
ATOM     29  C   UNL     1     -16.029  15.420 -48.388  0.00  0.00    +0.000 A 
ENDBRANCH  22  24
ENDBRANCH  21  22
ENDBRANCH   5  21
TORSDOF 7
ENDMDL
MODEL 10
REMARK VINA RESULT:      -5.0     17.890     21.298
REMARK  Name = 9637149
REMARK  7 active torsions:
REMARK  status: ('A' for Active; 'I' for Inactive)
REMARK    1  A    between atoms: S_4  and  C_11
REMARK    2  A    between atoms: S_4  and  C_14
REMARK    3  A    between atoms: O_6  and  N_9
REMARK    4  A    between atoms: O_6  and  C_21
REMARK    5  A    between atoms: C_10  and  C_16
REMARK    6  A    between atoms: C_14  and  C_15
REMARK    7  A    between atoms: C_20  and  C_21
REMARK                            x       y       z     vdW  Elec       q    Type
REMARK                         _______ _______ _______ _____ _____    ______ ____
ROOT
ATOM      1  S   UNL     1      -6.032  -4.767 -56.530  0.00  0.00    +0.000 S 
ATOM      2  N   UNL     1      -6.384  -4.434 -54.011  0.00  0.00    +0.000 N 
ATOM      3  N   UNL     1      -6.973  -2.559 -55.068  0.00  0.00    +0.000 NA
ATOM      4  C   UNL     1      -6.743  -3.570 -53.010  0.00  0.00    +0.000 A 
ATOM      5  C   UNL     1      -7.094  -2.408 -53.699  0.00  0.00    +0.000 A 
ATOM      6  C   UNL     1      -6.531  -3.777 -55.194  0.00  0.00    +0.000 A 
ATOM      7  C   UNL     1      -5.882  -5.716 -54.105  0.00  0.00    +0.000 A 
ATOM      8  C   UNL     1      -5.631  -6.057 -55.382  0.00  0.00    +0.000 A 
ENDROOT
BRANCH   4  10
ATOM      9  N   UNL     1      -7.691  -3.723 -50.842  0.00  0.00    +0.000 NA
ATOM     10  C   UNL     1      -6.673  -3.889 -51.617  0.00  0.00    +0.000 C 
BRANCH   9  11
ATOM     11  O   UNL     1      -7.330  -4.015 -49.517  0.00  0.00    +0.000 OA
BRANCH  11  12
ATOM     12  C   UNL     1      -8.295  -4.938 -49.001  0.00  0.00    +0.000 C 
BRANCH  12  15
ATOM     13 CL   UNL     1     -10.753  -6.463 -44.695  0.00  0.00    +0.000 Cl
ATOM     14 CL   UNL     1      -8.618  -4.724 -42.961  0.00  0.00    +0.000 Cl
ATOM     15  C   UNL     1      -8.388  -4.855 -47.496  0.00  0.00    +0.000 A 
ATOM     16  C   UNL     1      -9.390  -5.575 -46.827  0.00  0.00    +0.000 A 
ATOM     17  C   UNL     1      -7.457  -4.134 -46.737  0.00  0.00    +0.000 A 
ATOM     18  C   UNL     1      -9.484  -5.550 -45.431  0.00  0.00    +0.000 A 
ATOM     19  C   UNL     1      -7.549  -4.104 -45.342  0.00  0.00    +0.000 A 
ATOM     20  C   UNL     1      -8.562  -4.808 -44.685  0.00  0.00    +0.000 A 
ENDBRANCH  12  15
ENDBRANCH  11  12
ENDBRANCH   9  11
ENDBRANCH   4  10
BRANCH   5  21
ATOM     21  S   UNL     1      -7.617  -0.889 -52.995  0.00  0.00    +0.000 S 
BRANCH  21  22
ATOM     22  C   UNL     1      -6.117  -0.363 -52.122  0.00  0.00    +0.000 C 
BRANCH  22  24
ATOM     23 CL   UNL     1      -4.395   5.190 -53.763  0.00  0.00    +0.000 Cl
ATOM     24  C   UNL     1      -5.691   1.029 -52.533  0.00  0.00    +0.000 A 
ATOM     25  C   UNL     1      -4.926   1.826 -51.669  0.00  0.00    +0.000 A 
ATOM     26  C   UNL     1      -6.069   1.558 -53.781  0.00  0.00    +0.000 A 
ATOM     27  C   UNL     1      -4.527   3.111 -52.047  0.00  0.00    +0.000 A 
ATOM     28  C   UNL     1      -5.671   2.843 -54.159  0.00  0.00    +0.000 A 
ATOM     29  C   UNL     1      -4.897   3.613 -53.291  0.00  0.00    +0.000 A 
ENDBRANCH  22  24
ENDBRANCH  21  22
ENDBRANCH   5  21
TORSDOF 7
ENDMDL
