MODEL 1
REMARK VINA RESULT:      -6.7      0.000      0.000
REMARK  Name = 9637109
REMARK  6 active torsions:
REMARK  status: ('A' for Active; 'I' for Inactive)
REMARK    1  A    between atoms: O_4  and  N_7
REMARK    2  A    between atoms: O_4  and  C_22
REMARK    3  A    between atoms: C_8  and  C_10
REMARK    4  A    between atoms: C_9  and  C_15
REMARK    5  A    between atoms: C_16  and  C_20
REMARK    6  A    between atoms: C_21  and  C_22
REMARK                            x       y       z     vdW  Elec       q    Type
REMARK                         _______ _______ _______ _____ _____    ______ ____
ROOT
ATOM      1  S   UNL     1     -20.500  -0.983  26.812  0.00  0.00    +0.000 S 
ATOM      2  N   UNL     1     -18.511   0.358  25.897  0.00  0.00    +0.000 N 
ATOM      3  N   UNL     1     -18.350   0.260  28.119  0.00  0.00    +0.000 NA
ATOM      4  C   UNL     1     -17.296   0.996  27.585  0.00  0.00    +0.000 A 
ATOM      5  C   UNL     1     -17.383   1.076  26.188  0.00  0.00    +0.000 A 
ATOM      6  C   UNL     1     -19.031  -0.093  27.070  0.00  0.00    +0.000 A 
ATOM      7  C   UNL     1     -19.243   0.041  24.770  0.00  0.00    +0.000 A 
ATOM      8  C   UNL     1     -20.339  -0.673  25.075  0.00  0.00    +0.000 A 
ENDROOT
BRANCH   4   9
ATOM      9  C   UNL     1     -16.269   1.576  28.449  0.00  0.00    +0.000 A 
ATOM     10  C   UNL     1     -16.049   2.956  28.537  0.00  0.00    +0.000 A 
ATOM     11  C   UNL     1     -15.451   0.727  29.206  0.00  0.00    +0.000 A 
ATOM     12  C   UNL     1     -14.288   2.629  30.174  0.00  0.00    +0.000 A 
ATOM     13  C   UNL     1     -15.085   3.480  29.405  0.00  0.00    +0.000 A 
ATOM     14  C   UNL     1     -14.467   1.246  30.055  0.00  0.00    +0.000 A 
ATOM     15  C   UNL     1     -13.214   3.186  31.059  0.00  0.00    +0.000 C 
ENDBRANCH   4   9
BRANCH   5  17
ATOM     16  N   UNL     1     -17.018   1.871  23.999  0.00  0.00    +0.000 NA
ATOM     17  C   UNL     1     -16.588   1.755  25.209  0.00  0.00    +0.000 C 
BRANCH  16  18
ATOM     18  O   UNL     1     -16.110   2.609  23.231  0.00  0.00    +0.000 OA
BRANCH  18  19
ATOM     19  C   UNL     1     -16.186   3.970  23.667  0.00  0.00    +0.000 C 
BRANCH  19  22
ATOM     20 CL   UNL     1     -18.002   5.243  21.425  0.00  0.00    +0.000 Cl
ATOM     21  F   UNL     1     -13.474   4.669  23.742  0.00  0.00    +0.000 F 
ATOM     22  C   UNL     1     -15.571   4.888  22.651  0.00  0.00    +0.000 A 
ATOM     23  C   UNL     1     -16.304   5.501  21.626  0.00  0.00    +0.000 A 
ATOM     24  C   UNL     1     -14.211   5.205  22.758  0.00  0.00    +0.000 A 
ATOM     25  C   UNL     1     -15.681   6.379  20.729  0.00  0.00    +0.000 A 
ATOM     26  C   UNL     1     -13.587   6.083  21.877  0.00  0.00    +0.000 A 
ATOM     27  C   UNL     1     -14.324   6.671  20.854  0.00  0.00    +0.000 A 
ENDBRANCH  19  22
ENDBRANCH  18  19
ENDBRANCH  16  18
ENDBRANCH   5  17
TORSDOF 5
ENDMDL
MODEL 2
REMARK VINA RESULT:      -6.4     32.278     35.262
REMARK  Name = 9637109
REMARK  6 active torsions:
REMARK  status: ('A' for Active; 'I' for Inactive)
REMARK    1  A    between atoms: O_4  and  N_7
REMARK    2  A    between atoms: O_4  and  C_22
REMARK    3  A    between atoms: C_8  and  C_10
REMARK    4  A    between atoms: C_9  and  C_15
REMARK    5  A    between atoms: C_16  and  C_20
REMARK    6  A    between atoms: C_21  and  C_22
REMARK                            x       y       z     vdW  Elec       q    Type
REMARK                         _______ _______ _______ _____ _____    ______ ____
ROOT
ATOM      1  S   UNL     1       5.910  10.948   1.752  0.00  0.00    +0.000 S 
ATOM      2  N   UNL     1       7.702   9.111   1.781  0.00  0.00    +0.000 N 
ATOM      3  N   UNL     1       6.907   9.372   3.849  0.00  0.00    +0.000 NA
ATOM      4  C   UNL     1       7.897   8.393   3.826  0.00  0.00    +0.000 A 
ATOM      5  C   UNL     1       8.416   8.218   2.535  0.00  0.00    +0.000 A 
ATOM      6  C   UNL     1       6.836   9.755   2.609  0.00  0.00    +0.000 A 
ATOM      7  C   UNL     1       7.684   9.534   0.468  0.00  0.00    +0.000 A 
ATOM      8  C   UNL     1       6.785  10.513   0.275  0.00  0.00    +0.000 A 
ENDROOT
BRANCH   4   9
ATOM      9  C   UNL     1       8.283   7.684   5.045  0.00  0.00    +0.000 A 
ATOM     10  C   UNL     1       8.605   6.321   5.056  0.00  0.00    +0.000 A 
ATOM     11  C   UNL     1       8.314   8.379   6.261  0.00  0.00    +0.000 A 
ATOM     12  C   UNL     1       9.060   6.388   7.438  0.00  0.00    +0.000 A 
ATOM     13  C   UNL     1       9.010   5.684   6.233  0.00  0.00    +0.000 A 
ATOM     14  C   UNL     1       8.692   7.738   7.446  0.00  0.00    +0.000 A 
ATOM     15  C   UNL     1       9.436   5.691   8.711  0.00  0.00    +0.000 C 
ENDBRANCH   4   9
BRANCH   5  17
ATOM     16  N   UNL     1      10.608   7.911   1.723  0.00  0.00    +0.000 NA
ATOM     17  C   UNL     1       9.466   7.391   2.021  0.00  0.00    +0.000 C 
BRANCH  16  18
ATOM     18  O   UNL     1      11.494   6.919   1.291  0.00  0.00    +0.000 OA
BRANCH  18  19
ATOM     19  C   UNL     1      10.802   5.668   1.356  0.00  0.00    +0.000 C 
BRANCH  19  22
ATOM     20 CL   UNL     1       9.422   5.570  -1.479  0.00  0.00    +0.000 Cl
ATOM     21  F   UNL     1      13.027   4.029   1.812  0.00  0.00    +0.000 F 
ATOM     22  C   UNL     1      11.321   4.720   0.313  0.00  0.00    +0.000 A 
ATOM     23  C   UNL     1      10.773   4.616  -0.972  0.00  0.00    +0.000 A 
ATOM     24  C   UNL     1      12.447   3.941   0.606  0.00  0.00    +0.000 A 
ATOM     25  C   UNL     1      11.325   3.740  -1.916  0.00  0.00    +0.000 A 
ATOM     26  C   UNL     1      13.007   3.075  -0.329  0.00  0.00    +0.000 A 
ATOM     27  C   UNL     1      12.441   2.970  -1.595  0.00  0.00    +0.000 A 
ENDBRANCH  19  22
ENDBRANCH  18  19
ENDBRANCH  16  18
ENDBRANCH   5  17
TORSDOF 5
ENDMDL
MODEL 3
REMARK VINA RESULT:      -6.2     32.197     35.119
REMARK  Name = 9637109
REMARK  6 active torsions:
REMARK  status: ('A' for Active; 'I' for Inactive)
REMARK    1  A    between atoms: O_4  and  N_7
REMARK    2  A    between atoms: O_4  and  C_22
REMARK    3  A    between atoms: C_8  and  C_10
REMARK    4  A    between atoms: C_9  and  C_15
REMARK    5  A    between atoms: C_16  and  C_20
REMARK    6  A    between atoms: C_21  and  C_22
REMARK                            x       y       z     vdW  Elec       q    Type
REMARK                         _______ _______ _______ _____ _____    ______ ____
ROOT
ATOM      1  S   UNL     1       6.615  11.530   3.516  0.00  0.00    +0.000 S 
ATOM      2  N   UNL     1       8.311   9.657   3.065  0.00  0.00    +0.000 N 
ATOM      3  N   UNL     1       7.499   9.409   5.128  0.00  0.00    +0.000 NA
ATOM      4  C   UNL     1       8.438   8.419   4.849  0.00  0.00    +0.000 A 
ATOM      5  C   UNL     1       8.966   8.562   3.559  0.00  0.00    +0.000 A 
ATOM      6  C   UNL     1       7.466  10.107   4.031  0.00  0.00    +0.000 A 
ATOM      7  C   UNL     1       8.334  10.410   1.908  0.00  0.00    +0.000 A 
ATOM      8  C   UNL     1       7.489  11.452   1.978  0.00  0.00    +0.000 A 
ENDROOT
BRANCH   4   9
ATOM      9  C   UNL     1       8.769   7.396   5.840  0.00  0.00    +0.000 A 
ATOM     10  C   UNL     1       9.228   6.122   5.484  0.00  0.00    +0.000 A 
ATOM     11  C   UNL     1       8.602   7.681   7.202  0.00  0.00    +0.000 A 
ATOM     12  C   UNL     1       9.428   5.479   7.815  0.00  0.00    +0.000 A 
ATOM     13  C   UNL     1       9.574   5.180   6.460  0.00  0.00    +0.000 A 
ATOM     14  C   UNL     1       8.922   6.732   8.180  0.00  0.00    +0.000 A 
ATOM     15  C   UNL     1       9.741   4.451   8.860  0.00  0.00    +0.000 C 
ENDBRANCH   4   9
BRANCH   5  17
ATOM     16  N   UNL     1       9.658   7.090   1.851  0.00  0.00    +0.000 NA
ATOM     17  C   UNL     1       9.981   7.844   2.847  0.00  0.00    +0.000 C 
BRANCH  16  18
ATOM     18  O   UNL     1      10.804   6.530   1.276  0.00  0.00    +0.000 OA
BRANCH  18  19
ATOM     19  C   UNL     1      10.707   5.110   1.424  0.00  0.00    +0.000 C 
BRANCH  19  22
ATOM     20 CL   UNL     1      13.352   3.406   1.650  0.00  0.00    +0.000 Cl
ATOM     21  F   UNL     1       9.384   5.195  -1.043  0.00  0.00    +0.000 F 
ATOM     22  C   UNL     1      11.243   4.412   0.208  0.00  0.00    +0.000 A 
ATOM     23  C   UNL     1      12.406   3.630   0.220  0.00  0.00    +0.000 A 
ATOM     24  C   UNL     1      10.521   4.486  -0.990  0.00  0.00    +0.000 A 
ATOM     25  C   UNL     1      12.837   2.972  -0.940  0.00  0.00    +0.000 A 
ATOM     26  C   UNL     1      10.937   3.827  -2.143  0.00  0.00    +0.000 A 
ATOM     27  C   UNL     1      12.102   3.069  -2.121  0.00  0.00    +0.000 A 
ENDBRANCH  19  22
ENDBRANCH  18  19
ENDBRANCH  16  18
ENDBRANCH   5  17
TORSDOF 5
ENDMDL
MODEL 4
REMARK VINA RESULT:      -6.2     32.333     35.255
REMARK  Name = 9637109
REMARK  6 active torsions:
REMARK  status: ('A' for Active; 'I' for Inactive)
REMARK    1  A    between atoms: O_4  and  N_7
REMARK    2  A    between atoms: O_4  and  C_22
REMARK    3  A    between atoms: C_8  and  C_10
REMARK    4  A    between atoms: C_9  and  C_15
REMARK    5  A    between atoms: C_16  and  C_20
REMARK    6  A    between atoms: C_21  and  C_22
REMARK                            x       y       z     vdW  Elec       q    Type
REMARK                         _______ _______ _______ _____ _____    ______ ____
ROOT
ATOM      1  S   UNL     1       5.739  10.925   1.958  0.00  0.00    +0.000 S 
ATOM      2  N   UNL     1       7.702   9.271   1.959  0.00  0.00    +0.000 N 
ATOM      3  N   UNL     1       6.819   9.341   4.007  0.00  0.00    +0.000 NA
ATOM      4  C   UNL     1       7.900   8.464   3.970  0.00  0.00    +0.000 A 
ATOM      5  C   UNL     1       8.475   8.411   2.692  0.00  0.00    +0.000 A 
ATOM      6  C   UNL     1       6.750   9.782   2.786  0.00  0.00    +0.000 A 
ATOM      7  C   UNL     1       7.683   9.762   0.669  0.00  0.00    +0.000 A 
ATOM      8  C   UNL     1       6.699  10.659   0.494  0.00  0.00    +0.000 A 
ENDROOT
BRANCH   4   9
ATOM      9  C   UNL     1       8.315   7.730   5.164  0.00  0.00    +0.000 A 
ATOM     10  C   UNL     1       8.602   6.359   5.146  0.00  0.00    +0.000 A 
ATOM     11  C   UNL     1       8.412   8.408   6.387  0.00  0.00    +0.000 A 
ATOM     12  C   UNL     1       9.151   6.384   7.509  0.00  0.00    +0.000 A 
ATOM     13  C   UNL     1       9.035   5.696   6.299  0.00  0.00    +0.000 A 
ATOM     14  C   UNL     1       8.819   7.742   7.548  0.00  0.00    +0.000 A 
ATOM     15  C   UNL     1       9.558   5.662   8.758  0.00  0.00    +0.000 C 
ENDBRANCH   4   9
BRANCH   5  17
ATOM     16  N   UNL     1       9.627   7.318   0.949  0.00  0.00    +0.000 NA
ATOM     17  C   UNL     1       9.617   7.719   2.176  0.00  0.00    +0.000 C 
BRANCH  16  18
ATOM     18  O   UNL     1      10.853   6.715   0.647  0.00  0.00    +0.000 OA
BRANCH  18  19
ATOM     19  C   UNL     1      11.559   6.538   1.879  0.00  0.00    +0.000 C 
BRANCH  19  22
ATOM     20 CL   UNL     1      14.579   7.441   1.769  0.00  0.00    +0.000 Cl
ATOM     21  F   UNL     1      10.983   3.799   1.779  0.00  0.00    +0.000 F 
ATOM     22  C   UNL     1      12.635   5.502   1.728  0.00  0.00    +0.000 A 
ATOM     23  C   UNL     1      14.001   5.814   1.678  0.00  0.00    +0.000 A 
ATOM     24  C   UNL     1      12.275   4.149   1.700  0.00  0.00    +0.000 A 
ATOM     25  C   UNL     1      14.962   4.799   1.575  0.00  0.00    +0.000 A 
ATOM     26  C   UNL     1      13.224   3.135   1.607  0.00  0.00    +0.000 A 
ATOM     27  C   UNL     1      14.574   3.461   1.540  0.00  0.00    +0.000 A 
ENDBRANCH  19  22
ENDBRANCH  18  19
ENDBRANCH  16  18
ENDBRANCH   5  17
TORSDOF 5
ENDMDL
MODEL 5
REMARK VINA RESULT:      -6.2     18.744     19.451
REMARK  Name = 9637109
REMARK  6 active torsions:
REMARK  status: ('A' for Active; 'I' for Inactive)
REMARK    1  A    between atoms: O_4  and  N_7
REMARK    2  A    between atoms: O_4  and  C_22
REMARK    3  A    between atoms: C_8  and  C_10
REMARK    4  A    between atoms: C_9  and  C_15
REMARK    5  A    between atoms: C_16  and  C_20
REMARK    6  A    between atoms: C_21  and  C_22
REMARK                            x       y       z     vdW  Elec       q    Type
REMARK                         _______ _______ _______ _____ _____    ______ ____
ROOT
ATOM      1  S   UNL     1     -12.396  -9.357  17.493  0.00  0.00    +0.000 S 
ATOM      2  N   UNL     1     -10.337  -9.663  15.992  0.00  0.00    +0.000 N 
ATOM      3  N   UNL     1      -9.784 -10.191  18.087  0.00  0.00    +0.000 NA
ATOM      4  C   UNL     1      -8.685 -10.329  17.242  0.00  0.00    +0.000 A 
ATOM      5  C   UNL     1      -9.010  -9.994  15.921  0.00  0.00    +0.000 A 
ATOM      6  C   UNL     1     -10.730  -9.799  17.287  0.00  0.00    +0.000 A 
ATOM      7  C   UNL     1     -11.309  -9.198  15.129  0.00  0.00    +0.000 A 
ATOM      8  C   UNL     1     -12.472  -8.980  15.764  0.00  0.00    +0.000 A 
ENDROOT
BRANCH   4   9
ATOM      9  C   UNL     1      -7.391 -10.775  17.757  0.00  0.00    +0.000 A 
ATOM     10  C   UNL     1      -6.194 -10.107  17.470  0.00  0.00    +0.000 A 
ATOM     11  C   UNL     1      -7.330 -11.927  18.550  0.00  0.00    +0.000 A 
ATOM     12  C   UNL     1      -4.928 -11.674  18.821  0.00  0.00    +0.000 A 
ATOM     13  C   UNL     1      -4.979 -10.537  18.012  0.00  0.00    +0.000 A 
ATOM     14  C   UNL     1      -6.111 -12.377  19.073  0.00  0.00    +0.000 A 
ATOM     15  C   UNL     1      -3.618 -12.171  19.353  0.00  0.00    +0.000 C 
ENDBRANCH   4   9
BRANCH   5  17
ATOM     16  N   UNL     1      -7.760 -10.999  14.193  0.00  0.00    +0.000 NA
ATOM     17  C   UNL     1      -8.227  -9.921  14.724  0.00  0.00    +0.000 C 
BRANCH  16  18
ATOM     18  O   UNL     1      -7.073 -10.700  13.011  0.00  0.00    +0.000 OA
BRANCH  18  19
ATOM     19  C   UNL     1      -6.167 -11.778  12.756  0.00  0.00    +0.000 C 
BRANCH  19  22
ATOM     20 CL   UNL     1      -4.179 -10.018  11.055  0.00  0.00    +0.000 Cl
ATOM     21  F   UNL     1      -5.349 -12.636  15.295  0.00  0.00    +0.000 F 
ATOM     22  C   UNL     1      -4.804 -11.465  13.303  0.00  0.00    +0.000 A 
ATOM     23  C   UNL     1      -3.862 -10.686  12.618  0.00  0.00    +0.000 A 
ATOM     24  C   UNL     1      -4.468 -11.914  14.586  0.00  0.00    +0.000 A 
ATOM     25  C   UNL     1      -2.619 -10.396  13.196  0.00  0.00    +0.000 A 
ATOM     26  C   UNL     1      -3.240 -11.623  15.171  0.00  0.00    +0.000 A 
ATOM     27  C   UNL     1      -2.307 -10.863  14.472  0.00  0.00    +0.000 A 
ENDBRANCH  19  22
ENDBRANCH  18  19
ENDBRANCH  16  18
ENDBRANCH   5  17
TORSDOF 5
ENDMDL
MODEL 6
REMARK VINA RESULT:      -6.1      1.881      2.264
REMARK  Name = 9637109
REMARK  6 active torsions:
REMARK  status: ('A' for Active; 'I' for Inactive)
REMARK    1  A    between atoms: O_4  and  N_7
REMARK    2  A    between atoms: O_4  and  C_22
REMARK    3  A    between atoms: C_8  and  C_10
REMARK    4  A    between atoms: C_9  and  C_15
REMARK    5  A    between atoms: C_16  and  C_20
REMARK    6  A    between atoms: C_21  and  C_22
REMARK                            x       y       z     vdW  Elec       q    Type
REMARK                         _______ _______ _______ _____ _____    ______ ____
ROOT
ATOM      1  S   UNL     1     -21.765   2.372  24.647  0.00  0.00    +0.000 S 
ATOM      2  N   UNL     1     -19.287   2.916  24.254  0.00  0.00    +0.000 N 
ATOM      3  N   UNL     1     -19.556   2.279  26.375  0.00  0.00    +0.000 NA
ATOM      4  C   UNL     1     -18.224   2.599  26.126  0.00  0.00    +0.000 A 
ATOM      5  C   UNL     1     -18.035   3.010  24.799  0.00  0.00    +0.000 A 
ATOM      6  C   UNL     1     -20.132   2.482  25.228  0.00  0.00    +0.000 A 
ATOM      7  C   UNL     1     -19.882   3.189  23.039  0.00  0.00    +0.000 A 
ATOM      8  C   UNL     1     -21.204   2.956  23.071  0.00  0.00    +0.000 A 
ENDROOT
BRANCH   4   9
ATOM      9  C   UNL     1     -17.214   2.491  27.178  0.00  0.00    +0.000 A 
ATOM     10  C   UNL     1     -16.518   3.600  27.674  0.00  0.00    +0.000 A 
ATOM     11  C   UNL     1     -16.905   1.229  27.704  0.00  0.00    +0.000 A 
ATOM     12  C   UNL     1     -15.301   2.208  29.244  0.00  0.00    +0.000 A 
ATOM     13  C   UNL     1     -15.588   3.466  28.709  0.00  0.00    +0.000 A 
ATOM     14  C   UNL     1     -15.955   1.087  28.722  0.00  0.00    +0.000 A 
ATOM     15  C   UNL     1     -14.261   2.055  30.313  0.00  0.00    +0.000 C 
ENDBRANCH   4   9
BRANCH   5  17
ATOM     16  N   UNL     1     -16.311   2.734  23.214  0.00  0.00    +0.000 NA
ATOM     17  C   UNL     1     -16.884   3.486  24.091  0.00  0.00    +0.000 C 
BRANCH  16  18
ATOM     18  O   UNL     1     -15.246   3.415  22.614  0.00  0.00    +0.000 OA
BRANCH  18  19
ATOM     19  C   UNL     1     -15.348   4.791  22.995  0.00  0.00    +0.000 C 
BRANCH  19  22
ATOM     20 CL   UNL     1     -16.867   6.884  21.191  0.00  0.00    +0.000 Cl
ATOM     21  F   UNL     1     -12.552   4.682  22.844  0.00  0.00    +0.000 F 
ATOM     22  C   UNL     1     -14.566   5.660  22.054  0.00  0.00    +0.000 A 
ATOM     23  C   UNL     1     -15.159   6.620  21.222  0.00  0.00    +0.000 A 
ATOM     24  C   UNL     1     -13.169   5.562  22.042  0.00  0.00    +0.000 A 
ATOM     25  C   UNL     1     -14.373   7.429  20.392  0.00  0.00    +0.000 A 
ATOM     26  C   UNL     1     -12.380   6.369  21.227  0.00  0.00    +0.000 A 
ATOM     27  C   UNL     1     -12.984   7.305  20.394  0.00  0.00    +0.000 A 
ENDBRANCH  19  22
ENDBRANCH  18  19
ENDBRANCH  16  18
ENDBRANCH   5  17
TORSDOF 5
ENDMDL
MODEL 7
REMARK VINA RESULT:      -6.0     28.120     29.494
REMARK  Name = 9637109
REMARK  6 active torsions:
REMARK  status: ('A' for Active; 'I' for Inactive)
REMARK    1  A    between atoms: O_4  and  N_7
REMARK    2  A    between atoms: O_4  and  C_22
REMARK    3  A    between atoms: C_8  and  C_10
REMARK    4  A    between atoms: C_9  and  C_15
REMARK    5  A    between atoms: C_16  and  C_20
REMARK    6  A    between atoms: C_21  and  C_22
REMARK                            x       y       z     vdW  Elec       q    Type
REMARK                         _______ _______ _______ _____ _____    ______ ____
ROOT
ATOM      1  S   UNL     1       6.210  17.247  20.941  0.00  0.00    +0.000 S 
ATOM      2  N   UNL     1       8.373  15.869  21.043  0.00  0.00    +0.000 N 
ATOM      3  N   UNL     1       7.939  16.676  23.076  0.00  0.00    +0.000 NA
ATOM      4  C   UNL     1       9.117  15.934  23.086  0.00  0.00    +0.000 A 
ATOM      5  C   UNL     1       9.413  15.424  21.815  0.00  0.00    +0.000 A 
ATOM      6  C   UNL     1       7.545  16.596  21.840  0.00  0.00    +0.000 A 
ATOM      7  C   UNL     1       8.006  15.810  19.714  0.00  0.00    +0.000 A 
ATOM      8  C   UNL     1       6.873  16.494  19.481  0.00  0.00    +0.000 A 
ENDROOT
BRANCH   4   9
ATOM      9  C   UNL     1       9.887  15.760  24.317  0.00  0.00    +0.000 A 
ATOM     10  C   UNL     1      10.208  14.499  24.835  0.00  0.00    +0.000 A 
ATOM     11  C   UNL     1      10.307  16.892  25.029  0.00  0.00    +0.000 A 
ATOM     12  C   UNL     1      11.415  15.501  26.685  0.00  0.00    +0.000 A 
ATOM     13  C   UNL     1      10.981  14.369  25.993  0.00  0.00    +0.000 A 
ATOM     14  C   UNL     1      11.058  16.765  26.203  0.00  0.00    +0.000 A 
ATOM     15  C   UNL     1      12.193  15.363  27.959  0.00  0.00    +0.000 C 
ENDBRANCH   4   9
BRANCH   5  17
ATOM     16  N   UNL     1      10.606  13.405  21.570  0.00  0.00    +0.000 NA
ATOM     17  C   UNL     1      10.519  14.666  21.312  0.00  0.00    +0.000 C 
BRANCH  16  18
ATOM     18  O   UNL     1      11.731  12.859  20.942  0.00  0.00    +0.000 OA
BRANCH  18  19
ATOM     19  C   UNL     1      12.288  11.885  21.831  0.00  0.00    +0.000 C 
BRANCH  19  22
ATOM     20 CL   UNL     1      13.017  10.506  19.090  0.00  0.00    +0.000 Cl
ATOM     21  F   UNL     1      10.713  10.464  23.661  0.00  0.00    +0.000 F 
ATOM     22  C   UNL     1      11.749  10.518  21.525  0.00  0.00    +0.000 A 
ATOM     23  C   UNL     1      12.027   9.830  20.337  0.00  0.00    +0.000 A 
ATOM     24  C   UNL     1      10.980   9.860  22.493  0.00  0.00    +0.000 A 
ATOM     25  C   UNL     1      11.525   8.539  20.124  0.00  0.00    +0.000 A 
ATOM     26  C   UNL     1      10.486   8.574  22.294  0.00  0.00    +0.000 A 
ATOM     27  C   UNL     1      10.756   7.911  21.101  0.00  0.00    +0.000 A 
ENDBRANCH  19  22
ENDBRANCH  18  19
ENDBRANCH  16  18
ENDBRANCH   5  17
TORSDOF 5
ENDMDL
MODEL 8
REMARK VINA RESULT:      -6.0     17.168     20.358
REMARK  Name = 9637109
REMARK  6 active torsions:
REMARK  status: ('A' for Active; 'I' for Inactive)
REMARK    1  A    between atoms: O_4  and  N_7
REMARK    2  A    between atoms: O_4  and  C_22
REMARK    3  A    between atoms: C_8  and  C_10
REMARK    4  A    between atoms: C_9  and  C_15
REMARK    5  A    between atoms: C_16  and  C_20
REMARK    6  A    between atoms: C_21  and  C_22
REMARK                            x       y       z     vdW  Elec       q    Type
REMARK                         _______ _______ _______ _____ _____    ______ ____
ROOT
ATOM      1  S   UNL     1      -3.051  -7.842  41.758  0.00  0.00    +0.000 S 
ATOM      2  N   UNL     1      -5.254  -7.409  40.515  0.00  0.00    +0.000 N 
ATOM      3  N   UNL     1      -4.688  -9.551  40.250  0.00  0.00    +0.000 NA
ATOM      4  C   UNL     1      -5.873  -9.271  39.574  0.00  0.00    +0.000 A 
ATOM      5  C   UNL     1      -6.243  -7.927  39.722  0.00  0.00    +0.000 A 
ATOM      6  C   UNL     1      -4.375  -8.410  40.789  0.00  0.00    +0.000 A 
ATOM      7  C   UNL     1      -4.918  -6.175  41.032  0.00  0.00    +0.000 A 
ATOM      8  C   UNL     1      -3.768  -6.223  41.724  0.00  0.00    +0.000 A 
ENDROOT
BRANCH   4   9
ATOM      9  C   UNL     1      -6.579 -10.313  38.829  0.00  0.00    +0.000 A 
ATOM     10  C   UNL     1      -6.491 -10.435  37.437  0.00  0.00    +0.000 A 
ATOM     11  C   UNL     1      -7.397 -11.216  39.521  0.00  0.00    +0.000 A 
ATOM     12  C   UNL     1      -7.942 -12.380  37.458  0.00  0.00    +0.000 A 
ATOM     13  C   UNL     1      -7.147 -11.469  36.760  0.00  0.00    +0.000 A 
ATOM     14  C   UNL     1      -8.076 -12.235  38.844  0.00  0.00    +0.000 A 
ATOM     15  C   UNL     1      -8.693 -13.451  36.728  0.00  0.00    +0.000 C 
ENDBRANCH   4   9
BRANCH   5  17
ATOM     16  N   UNL     1      -8.517  -7.308  39.650  0.00  0.00    +0.000 NA
ATOM     17  C   UNL     1      -7.324  -7.159  39.182  0.00  0.00    +0.000 C 
BRANCH  16  18
ATOM     18  O   UNL     1      -9.400  -6.428  39.015  0.00  0.00    +0.000 OA
BRANCH  18  19
ATOM     19  C   UNL     1     -10.206  -5.822  40.032  0.00  0.00    +0.000 C 
BRANCH  19  22
ATOM     20 CL   UNL     1      -8.122  -4.665  42.097  0.00  0.00    +0.000 Cl
ATOM     21  F   UNL     1     -11.487  -4.040  38.291  0.00  0.00    +0.000 F 
ATOM     22  C   UNL     1      -9.964  -4.341  40.087  0.00  0.00    +0.000 A 
ATOM     23  C   UNL     1      -9.053  -3.744  40.968  0.00  0.00    +0.000 A 
ATOM     24  C   UNL     1     -10.629  -3.511  39.176  0.00  0.00    +0.000 A 
ATOM     25  C   UNL     1      -8.842  -2.359  40.947  0.00  0.00    +0.000 A 
ATOM     26  C   UNL     1     -10.418  -2.136  39.143  0.00  0.00    +0.000 A 
ATOM     27  C   UNL     1      -9.523  -1.554  40.035  0.00  0.00    +0.000 A 
ENDBRANCH  19  22
ENDBRANCH  18  19
ENDBRANCH  16  18
ENDBRANCH   5  17
TORSDOF 5
ENDMDL
MODEL 9
REMARK VINA RESULT:      -6.0     18.624     19.297
REMARK  Name = 9637109
REMARK  6 active torsions:
REMARK  status: ('A' for Active; 'I' for Inactive)
REMARK    1  A    between atoms: O_4  and  N_7
REMARK    2  A    between atoms: O_4  and  C_22
REMARK    3  A    between atoms: C_8  and  C_10
REMARK    4  A    between atoms: C_9  and  C_15
REMARK    5  A    between atoms: C_16  and  C_20
REMARK    6  A    between atoms: C_21  and  C_22
REMARK                            x       y       z     vdW  Elec       q    Type
REMARK                         _______ _______ _______ _____ _____    ______ ____
ROOT
ATOM      1  S   UNL     1     -12.383  -9.512  17.636  0.00  0.00    +0.000 S 
ATOM      2  N   UNL     1     -10.190  -9.425  16.306  0.00  0.00    +0.000 N 
ATOM      3  N   UNL     1      -9.795 -10.383  18.282  0.00  0.00    +0.000 NA
ATOM      4  C   UNL     1      -8.622 -10.301  17.535  0.00  0.00    +0.000 A 
ATOM      5  C   UNL     1      -8.848  -9.695  16.291  0.00  0.00    +0.000 A 
ATOM      6  C   UNL     1     -10.686  -9.852  17.498  0.00  0.00    +0.000 A 
ATOM      7  C   UNL     1     -11.105  -8.811  15.476  0.00  0.00    +0.000 A 
ATOM      8  C   UNL     1     -12.328  -8.769  16.029  0.00  0.00    +0.000 A 
ENDROOT
BRANCH   4   9
ATOM      9  C   UNL     1      -7.358 -10.812  18.061  0.00  0.00    +0.000 A 
ATOM     10  C   UNL     1      -6.999 -10.693  19.410  0.00  0.00    +0.000 A 
ATOM     11  C   UNL     1      -6.450 -11.427  17.189  0.00  0.00    +0.000 A 
ATOM     12  C   UNL     1      -4.909 -11.861  19.017  0.00  0.00    +0.000 A 
ATOM     13  C   UNL     1      -5.798 -11.229  19.888  0.00  0.00    +0.000 A 
ATOM     14  C   UNL     1      -5.237 -11.942  17.659  0.00  0.00    +0.000 A 
ATOM     15  C   UNL     1      -3.596 -12.383  19.516  0.00  0.00    +0.000 C 
ENDBRANCH   4   9
BRANCH   5  17
ATOM     16  N   UNL     1      -7.860 -10.114  14.192  0.00  0.00    +0.000 NA
ATOM     17  C   UNL     1      -7.969  -9.340  15.218  0.00  0.00    +0.000 C 
BRANCH  16  18
ATOM     18  O   UNL     1      -6.992  -9.550  13.250  0.00  0.00    +0.000 OA
BRANCH  18  19
ATOM     19  C   UNL     1      -6.443 -10.623  12.477  0.00  0.00    +0.000 C 
BRANCH  19  22
ATOM     20 CL   UNL     1      -3.764 -11.754  13.699  0.00  0.00    +0.000 Cl
ATOM     21  F   UNL     1      -6.284  -8.958  10.229  0.00  0.00    +0.000 F 
ATOM     22  C   UNL     1      -5.128 -10.222  11.874  0.00  0.00    +0.000 A 
ATOM     23  C   UNL     1      -3.892 -10.682  12.349  0.00  0.00    +0.000 A 
ATOM     24  C   UNL     1      -5.124  -9.398  10.741  0.00  0.00    +0.000 A 
ATOM     25  C   UNL     1      -2.699 -10.302  11.719  0.00  0.00    +0.000 A 
ATOM     26  C   UNL     1      -3.944  -9.024  10.105  0.00  0.00    +0.000 A 
ATOM     27  C   UNL     1      -2.724  -9.474  10.598  0.00  0.00    +0.000 A 
ENDBRANCH  19  22
ENDBRANCH  18  19
ENDBRANCH  16  18
ENDBRANCH   5  17
TORSDOF 5
ENDMDL
MODEL 10
REMARK VINA RESULT:      -5.8     17.684     18.794
REMARK  Name = 9637109
REMARK  6 active torsions:
REMARK  status: ('A' for Active; 'I' for Inactive)
REMARK    1  A    between atoms: O_4  and  N_7
REMARK    2  A    between atoms: O_4  and  C_22
REMARK    3  A    between atoms: C_8  and  C_10
REMARK    4  A    between atoms: C_9  and  C_15
REMARK    5  A    between atoms: C_16  and  C_20
REMARK    6  A    between atoms: C_21  and  C_22
REMARK                            x       y       z     vdW  Elec       q    Type
REMARK                         _______ _______ _______ _____ _____    ______ ____
ROOT
ATOM      1  S   UNL     1     -12.336 -16.188  16.720  0.00  0.00    +0.000 S 
ATOM      2  N   UNL     1     -10.400 -14.711  17.531  0.00  0.00    +0.000 N 
ATOM      3  N   UNL     1     -11.999 -13.403  16.688  0.00  0.00    +0.000 NA
ATOM      4  C   UNL     1     -10.920 -12.637  17.125  0.00  0.00    +0.000 A 
ATOM      5  C   UNL     1      -9.901 -13.442  17.652  0.00  0.00    +0.000 A 
ATOM      6  C   UNL     1     -11.632 -14.620  16.960  0.00  0.00    +0.000 A 
ATOM      7  C   UNL     1      -9.964 -15.995  17.783  0.00  0.00    +0.000 A 
ATOM      8  C   UNL     1     -10.874 -16.911  17.409  0.00  0.00    +0.000 A 
ENDROOT
BRANCH   4   9
ATOM      9  C   UNL     1     -10.937 -11.180  17.010  0.00  0.00    +0.000 A 
ATOM     10  C   UNL     1     -11.236 -10.341  18.091  0.00  0.00    +0.000 A 
ATOM     11  C   UNL     1     -10.666 -10.587  15.770  0.00  0.00    +0.000 A 
ATOM     12  C   UNL     1     -10.909  -8.364  16.723  0.00  0.00    +0.000 A 
ATOM     13  C   UNL     1     -11.202  -8.949  17.957  0.00  0.00    +0.000 A 
ATOM     14  C   UNL     1     -10.658  -9.195  15.625  0.00  0.00    +0.000 A 
ATOM     15  C   UNL     1     -10.932  -6.874  16.563  0.00  0.00    +0.000 C 
ENDBRANCH   4   9
BRANCH   5  17
ATOM     16  N   UNL     1      -8.465 -12.711  19.374  0.00  0.00    +0.000 NA
ATOM     17  C   UNL     1      -8.598 -13.137  18.163  0.00  0.00    +0.000 C 
BRANCH  16  18
ATOM     18  O   UNL     1      -7.111 -12.527  19.676  0.00  0.00    +0.000 OA
BRANCH  18  19
ATOM     19  C   UNL     1      -6.853 -11.119  19.649  0.00  0.00    +0.000 C 
BRANCH  19  22
ATOM     20 CL   UNL     1      -3.874 -12.116  19.372  0.00  0.00    +0.000 Cl
ATOM     21  F   UNL     1      -7.962  -9.632  17.549  0.00  0.00    +0.000 F 
ATOM     22  C   UNL     1      -6.060 -10.749  18.430  0.00  0.00    +0.000 A 
ATOM     23  C   UNL     1      -4.735 -11.154  18.222  0.00  0.00    +0.000 A 
ATOM     24  C   UNL     1      -6.683 -10.015  17.412  0.00  0.00    +0.000 A 
ATOM     25  C   UNL     1      -4.058 -10.808  17.045  0.00  0.00    +0.000 A 
ATOM     26  C   UNL     1      -6.021  -9.676  16.236  0.00  0.00    +0.000 A 
ATOM     27  C   UNL     1      -4.700 -10.071  16.052  0.00  0.00    +0.000 A 
ENDBRANCH  19  22
ENDBRANCH  18  19
ENDBRANCH  16  18
ENDBRANCH   5  17
TORSDOF 5
ENDMDL
