MODEL 1
REMARK VINA RESULT:      -5.9      0.000      0.000
REMARK  Name = 9637344
REMARK  7 active torsions:
REMARK  status: ('A' for Active; 'I' for Inactive)
REMARK    1  A    between atoms: S_3  and  C_10
REMARK    2  A    between atoms: S_3  and  C_13
REMARK    3  A    between atoms: O_5  and  N_8
REMARK    4  A    between atoms: O_5  and  C_20
REMARK    5  A    between atoms: C_9  and  C_15
REMARK    6  A    between atoms: C_13  and  C_14
REMARK    7  A    between atoms: C_17  and  C_20
REMARK                            x       y       z     vdW  Elec       q    Type
REMARK                         _______ _______ _______ _____ _____    ______ ____
ROOT
ATOM      1  S   UNL     1     -10.539   9.706 -31.643  0.00  0.00    +0.000 S 
ATOM      2  N   UNL     1     -12.383   8.995 -33.280  0.00  0.00    +0.000 N 
ATOM      3  N   UNL     1     -10.499   7.912 -33.812  0.00  0.00    +0.000 NA
ATOM      4  C   UNL     1     -12.716   8.217 -34.357  0.00  0.00    +0.000 A 
ATOM      5  C   UNL     1     -11.516   7.586 -34.686  0.00  0.00    +0.000 A 
ATOM      6  C   UNL     1     -11.072   8.755 -32.996  0.00  0.00    +0.000 A 
ATOM      7  C   UNL     1     -12.997   9.934 -32.477  0.00  0.00    +0.000 A 
ATOM      8  C   UNL     1     -12.157  10.424 -31.550  0.00  0.00    +0.000 A 
ENDROOT
BRANCH   4  10
ATOM      9  N   UNL     1     -14.993   7.624 -34.248  0.00  0.00    +0.000 NA
ATOM     10  C   UNL     1     -14.010   8.086 -34.952  0.00  0.00    +0.000 C 
BRANCH   9  11
ATOM     11  O   UNL     1     -16.129   7.469 -35.063  0.00  0.00    +0.000 OA
BRANCH  11  12
ATOM     12  C   UNL     1     -16.808   8.728 -35.102  0.00  0.00    +0.000 C 
BRANCH  12  15
ATOM     13 CL   UNL     1     -21.663   9.991 -36.478  0.00  0.00    +0.000 Cl
ATOM     14 CL   UNL     1     -22.728   8.154 -34.012  0.00  0.00    +0.000 Cl
ATOM     15  C   UNL     1     -18.288   8.550 -34.882  0.00  0.00    +0.000 A 
ATOM     16  C   UNL     1     -19.216   9.223 -35.691  0.00  0.00    +0.000 A 
ATOM     17  C   UNL     1     -18.761   7.753 -33.829  0.00  0.00    +0.000 A 
ATOM     18  C   UNL     1     -20.590   9.113 -35.446  0.00  0.00    +0.000 A 
ATOM     19  C   UNL     1     -20.132   7.641 -33.584  0.00  0.00    +0.000 A 
ATOM     20  C   UNL     1     -21.049   8.322 -34.388  0.00  0.00    +0.000 A 
ENDBRANCH  12  15
ENDBRANCH  11  12
ENDBRANCH   9  11
ENDBRANCH   4  10
BRANCH   5  21
ATOM     21  S   UNL     1     -11.284   6.507 -36.047  0.00  0.00    +0.000 S 
BRANCH  21  22
ATOM     22  C   UNL     1     -10.035   5.348 -35.417  0.00  0.00    +0.000 C 
BRANCH  22  23
ATOM     23  C   UNL     1      -8.751   5.441 -36.217  0.00  0.00    +0.000 A 
ATOM     24  C   UNL     1      -8.312   4.355 -36.990  0.00  0.00    +0.000 A 
ATOM     25  C   UNL     1      -7.956   6.601 -36.178  0.00  0.00    +0.000 A 
ATOM     26  C   UNL     1      -7.123   4.428 -37.716  0.00  0.00    +0.000 A 
ATOM     27  C   UNL     1      -6.766   6.672 -36.908  0.00  0.00    +0.000 A 
ATOM     28  C   UNL     1      -6.350   5.587 -37.675  0.00  0.00    +0.000 A 
ENDBRANCH  22  23
ENDBRANCH  21  22
ENDBRANCH   5  21
TORSDOF 7
ENDMDL
MODEL 2
REMARK VINA RESULT:      -5.6      1.900      2.637
REMARK  Name = 9637344
REMARK  7 active torsions:
REMARK  status: ('A' for Active; 'I' for Inactive)
REMARK    1  A    between atoms: S_3  and  C_10
REMARK    2  A    between atoms: S_3  and  C_13
REMARK    3  A    between atoms: O_5  and  N_8
REMARK    4  A    between atoms: O_5  and  C_20
REMARK    5  A    between atoms: C_9  and  C_15
REMARK    6  A    between atoms: C_13  and  C_14
REMARK    7  A    between atoms: C_17  and  C_20
REMARK                            x       y       z     vdW  Elec       q    Type
REMARK                         _______ _______ _______ _____ _____    ______ ____
ROOT
ATOM      1  S   UNL     1      -9.878   8.646 -29.111  0.00  0.00    +0.000 S 
ATOM      2  N   UNL     1     -11.487   8.340 -31.087  0.00  0.00    +0.000 N 
ATOM      3  N   UNL     1      -9.423   8.665 -31.890  0.00  0.00    +0.000 NA
ATOM      4  C   UNL     1     -11.625   8.283 -32.450  0.00  0.00    +0.000 A 
ATOM      5  C   UNL     1     -10.332   8.526 -32.917  0.00  0.00    +0.000 A 
ATOM      6  C   UNL     1     -10.166   8.546 -30.822  0.00  0.00    +0.000 A 
ATOM      7  C   UNL     1     -12.307   8.279 -29.980  0.00  0.00    +0.000 A 
ATOM      8  C   UNL     1     -11.616   8.430 -28.838  0.00  0.00    +0.000 A 
ENDROOT
BRANCH   4  10
ATOM      9  N   UNL     1     -13.316   6.808 -33.165  0.00  0.00    +0.000 NA
ATOM     10  C   UNL     1     -12.823   8.004 -33.178  0.00  0.00    +0.000 C 
BRANCH   9  11
ATOM     11  O   UNL     1     -14.415   6.737 -34.039  0.00  0.00    +0.000 OA
BRANCH  11  12
ATOM     12  C   UNL     1     -15.069   8.010 -34.015  0.00  0.00    +0.000 C 
BRANCH  12  15
ATOM     13 CL   UNL     1     -19.715   9.367 -35.923  0.00  0.00    +0.000 Cl
ATOM     14 CL   UNL     1     -21.082   7.491 -33.642  0.00  0.00    +0.000 Cl
ATOM     15  C   UNL     1     -16.567   7.847 -33.974  0.00  0.00    +0.000 A 
ATOM     16  C   UNL     1     -17.385   8.549 -34.871  0.00  0.00    +0.000 A 
ATOM     17  C   UNL     1     -17.169   7.034 -33.003  0.00  0.00    +0.000 A 
ATOM     18  C   UNL     1     -18.780   8.452 -34.792  0.00  0.00    +0.000 A 
ATOM     19  C   UNL     1     -18.560   6.935 -32.923  0.00  0.00    +0.000 A 
ATOM     20  C   UNL     1     -19.369   7.645 -33.814  0.00  0.00    +0.000 A 
ENDBRANCH  12  15
ENDBRANCH  11  12
ENDBRANCH   9  11
ENDBRANCH   4  10
BRANCH   5  21
ATOM     21  S   UNL     1      -9.880   8.656 -34.606  0.00  0.00    +0.000 S 
BRANCH  21  22
ATOM     22  C   UNL     1      -8.885   7.156 -34.858  0.00  0.00    +0.000 C 
BRANCH  22  23
ATOM     23  C   UNL     1      -9.594   6.177 -35.773  0.00  0.00    +0.000 A 
ATOM     24  C   UNL     1     -10.968   6.303 -36.024  0.00  0.00    +0.000 A 
ATOM     25  C   UNL     1      -8.899   5.106 -36.362  0.00  0.00    +0.000 A 
ATOM     26  C   UNL     1     -11.629   5.396 -36.852  0.00  0.00    +0.000 A 
ATOM     27  C   UNL     1      -9.564   4.199 -37.193  0.00  0.00    +0.000 A 
ATOM     28  C   UNL     1     -10.926   4.344 -37.438  0.00  0.00    +0.000 A 
ENDBRANCH  22  23
ENDBRANCH  21  22
ENDBRANCH   5  21
TORSDOF 7
ENDMDL
MODEL 3
REMARK VINA RESULT:      -5.4     21.215     23.501
REMARK  Name = 9637344
REMARK  7 active torsions:
REMARK  status: ('A' for Active; 'I' for Inactive)
REMARK    1  A    between atoms: S_3  and  C_10
REMARK    2  A    between atoms: S_3  and  C_13
REMARK    3  A    between atoms: O_5  and  N_8
REMARK    4  A    between atoms: O_5  and  C_20
REMARK    5  A    between atoms: C_9  and  C_15
REMARK    6  A    between atoms: C_13  and  C_14
REMARK    7  A    between atoms: C_17  and  C_20
REMARK                            x       y       z     vdW  Elec       q    Type
REMARK                         _______ _______ _______ _____ _____    ______ ____
ROOT
ATOM      1  S   UNL     1     -24.383   4.769 -61.061  0.00  0.00    +0.000 S 
ATOM      2  N   UNL     1     -24.601   6.176 -58.926  0.00  0.00    +0.000 N 
ATOM      3  N   UNL     1     -23.216   4.466 -58.517  0.00  0.00    +0.000 NA
ATOM      4  C   UNL     1     -24.219   6.335 -57.619  0.00  0.00    +0.000 A 
ATOM      5  C   UNL     1     -23.391   5.237 -57.386  0.00  0.00    +0.000 A 
ATOM      6  C   UNL     1     -23.960   5.072 -59.403  0.00  0.00    +0.000 A 
ATOM      7  C   UNL     1     -25.447   6.798 -59.819  0.00  0.00    +0.000 A 
ATOM      8  C   UNL     1     -25.461   6.176 -61.010  0.00  0.00    +0.000 A 
ENDROOT
BRANCH   4  10
ATOM      9  N   UNL     1     -23.715   8.325 -56.465  0.00  0.00    +0.000 NA
ATOM     10  C   UNL     1     -24.583   7.408 -56.746  0.00  0.00    +0.000 C 
BRANCH   9  11
ATOM     11  O   UNL     1     -24.246   9.203 -55.502  0.00  0.00    +0.000 OA
BRANCH  11  12
ATOM     12  C   UNL     1     -23.154   9.699 -54.722  0.00  0.00    +0.000 C 
BRANCH  12  15
ATOM     13 CL   UNL     1     -24.852  10.734 -49.914  0.00  0.00    +0.000 Cl
ATOM     14 CL   UNL     1     -23.398   7.995 -48.925  0.00  0.00    +0.000 Cl
ATOM     15  C   UNL     1     -23.275   9.260 -53.284  0.00  0.00    +0.000 A 
ATOM     16  C   UNL     1     -23.955  10.056 -52.351  0.00  0.00    +0.000 A 
ATOM     17  C   UNL     1     -22.662   8.078 -52.847  0.00  0.00    +0.000 A 
ATOM     18  C   UNL     1     -24.011   9.685 -51.002  0.00  0.00    +0.000 A 
ATOM     19  C   UNL     1     -22.718   7.705 -51.501  0.00  0.00    +0.000 A 
ATOM     20  C   UNL     1     -23.389   8.508 -50.575  0.00  0.00    +0.000 A 
ENDBRANCH  12  15
ENDBRANCH  11  12
ENDBRANCH   9  11
ENDBRANCH   4  10
BRANCH   5  21
ATOM     21  S   UNL     1     -22.647   4.844 -55.848  0.00  0.00    +0.000 S 
BRANCH  21  22
ATOM     22  C   UNL     1     -20.906   4.606 -56.308  0.00  0.00    +0.000 C 
BRANCH  22  23
ATOM     23  C   UNL     1     -20.152   5.921 -56.295  0.00  0.00    +0.000 A 
ATOM     24  C   UNL     1     -20.562   6.969 -55.458  0.00  0.00    +0.000 A 
ATOM     25  C   UNL     1     -19.048   6.131 -57.142  0.00  0.00    +0.000 A 
ATOM     26  C   UNL     1     -19.883   8.188 -55.453  0.00  0.00    +0.000 A 
ATOM     27  C   UNL     1     -18.369   7.352 -57.133  0.00  0.00    +0.000 A 
ATOM     28  C   UNL     1     -18.785   8.378 -56.291  0.00  0.00    +0.000 A 
ENDBRANCH  22  23
ENDBRANCH  21  22
ENDBRANCH   5  21
TORSDOF 7
ENDMDL
MODEL 4
REMARK VINA RESULT:      -5.4      2.173      2.452
REMARK  Name = 9637344
REMARK  7 active torsions:
REMARK  status: ('A' for Active; 'I' for Inactive)
REMARK    1  A    between atoms: S_3  and  C_10
REMARK    2  A    between atoms: S_3  and  C_13
REMARK    3  A    between atoms: O_5  and  N_8
REMARK    4  A    between atoms: O_5  and  C_20
REMARK    5  A    between atoms: C_9  and  C_15
REMARK    6  A    between atoms: C_13  and  C_14
REMARK    7  A    between atoms: C_17  and  C_20
REMARK                            x       y       z     vdW  Elec       q    Type
REMARK                         _______ _______ _______ _____ _____    ______ ____
ROOT
ATOM      1  S   UNL     1     -12.373   5.539 -29.557  0.00  0.00    +0.000 S 
ATOM      2  N   UNL     1     -13.032   6.833 -31.673  0.00  0.00    +0.000 N 
ATOM      3  N   UNL     1     -10.854   6.333 -31.790  0.00  0.00    +0.000 NA
ATOM      4  C   UNL     1     -12.615   7.353 -32.870  0.00  0.00    +0.000 A 
ATOM      5  C   UNL     1     -11.251   7.059 -32.894  0.00  0.00    +0.000 A 
ATOM      6  C   UNL     1     -11.956   6.228 -31.096  0.00  0.00    +0.000 A 
ATOM      7  C   UNL     1     -14.195   6.797 -30.931  0.00  0.00    +0.000 A 
ATOM      8  C   UNL     1     -14.024   6.150 -29.766  0.00  0.00    +0.000 A 
ENDROOT
BRANCH   4  10
ATOM      9  N   UNL     1     -14.290   7.320 -34.525  0.00  0.00    +0.000 NA
ATOM     10  C   UNL     1     -13.427   8.007 -33.849  0.00  0.00    +0.000 C 
BRANCH   9  11
ATOM     11  O   UNL     1     -14.882   8.136 -35.506  0.00  0.00    +0.000 OA
BRANCH  11  12
ATOM     12  C   UNL     1     -16.218   7.666 -35.708  0.00  0.00    +0.000 C 
BRANCH  12  15
ATOM     13 CL   UNL     1     -21.122   9.403 -35.785  0.00  0.00    +0.000 Cl
ATOM     14 CL   UNL     1     -20.156  11.897 -33.931  0.00  0.00    +0.000 Cl
ATOM     15  C   UNL     1     -17.226   8.679 -35.227  0.00  0.00    +0.000 A 
ATOM     16  C   UNL     1     -18.568   8.595 -35.625  0.00  0.00    +0.000 A 
ATOM     17  C   UNL     1     -16.825   9.753 -34.419  0.00  0.00    +0.000 A 
ATOM     18  C   UNL     1     -19.492   9.572 -35.234  0.00  0.00    +0.000 A 
ATOM     19  C   UNL     1     -17.746  10.729 -34.028  0.00  0.00    +0.000 A 
ATOM     20  C   UNL     1     -19.079  10.643 -34.436  0.00  0.00    +0.000 A 
ENDBRANCH  12  15
ENDBRANCH  11  12
ENDBRANCH   9  11
ENDBRANCH   4  10
BRANCH   5  21
ATOM     21  S   UNL     1     -10.137   7.545 -34.157  0.00  0.00    +0.000 S 
BRANCH  21  22
ATOM     22  C   UNL     1     -10.384   6.253 -35.411  0.00  0.00    +0.000 C 
BRANCH  22  23
ATOM     23  C   UNL     1      -9.086   5.927 -36.122  0.00  0.00    +0.000 A 
ATOM     24  C   UNL     1      -8.910   4.687 -36.753  0.00  0.00    +0.000 A 
ATOM     25  C   UNL     1      -8.019   6.844 -36.138  0.00  0.00    +0.000 A 
ATOM     26  C   UNL     1      -7.712   4.374 -37.395  0.00  0.00    +0.000 A 
ATOM     27  C   UNL     1      -6.820   6.529 -36.783  0.00  0.00    +0.000 A 
ATOM     28  C   UNL     1      -6.667   5.296 -37.410  0.00  0.00    +0.000 A 
ENDBRANCH  22  23
ENDBRANCH  21  22
ENDBRANCH   5  21
TORSDOF 7
ENDMDL
MODEL 5
REMARK VINA RESULT:      -5.4     22.914     25.124
REMARK  Name = 9637344
REMARK  7 active torsions:
REMARK  status: ('A' for Active; 'I' for Inactive)
REMARK    1  A    between atoms: S_3  and  C_10
REMARK    2  A    between atoms: S_3  and  C_13
REMARK    3  A    between atoms: O_5  and  N_8
REMARK    4  A    between atoms: O_5  and  C_20
REMARK    5  A    between atoms: C_9  and  C_15
REMARK    6  A    between atoms: C_13  and  C_14
REMARK    7  A    between atoms: C_17  and  C_20
REMARK                            x       y       z     vdW  Elec       q    Type
REMARK                         _______ _______ _______ _____ _____    ______ ____
ROOT
ATOM      1  S   UNL     1     -23.438  10.491 -59.491  0.00  0.00    +0.000 S 
ATOM      2  N   UNL     1     -21.029  11.020 -58.783  0.00  0.00    +0.000 N 
ATOM      3  N   UNL     1     -21.526   8.939 -58.127  0.00  0.00    +0.000 NA
ATOM      4  C   UNL     1     -19.892  10.562 -58.169  0.00  0.00    +0.000 A 
ATOM      5  C   UNL     1     -20.247   9.282 -57.741  0.00  0.00    +0.000 A 
ATOM      6  C   UNL     1     -21.944  10.011 -58.744  0.00  0.00    +0.000 A 
ATOM      7  C   UNL     1     -21.466  12.190 -59.367  0.00  0.00    +0.000 A 
ATOM      8  C   UNL     1     -22.735  12.090 -59.797  0.00  0.00    +0.000 A 
ENDROOT
BRANCH   4  10
ATOM      9  N   UNL     1     -18.036  11.662 -59.113  0.00  0.00    +0.000 NA
ATOM     10  C   UNL     1     -18.647  11.254 -58.048  0.00  0.00    +0.000 C 
BRANCH   9  11
ATOM     11  O   UNL     1     -16.785  12.202 -58.765  0.00  0.00    +0.000 OA
BRANCH  11  12
ATOM     12  C   UNL     1     -15.806  11.173 -58.941  0.00  0.00    +0.000 C 
BRANCH  12  15
ATOM     13 CL   UNL     1     -12.595  14.973 -57.416  0.00  0.00    +0.000 Cl
ATOM     14 CL   UNL     1     -10.422  12.679 -56.637  0.00  0.00    +0.000 Cl
ATOM     15  C   UNL     1     -14.492  11.565 -58.314  0.00  0.00    +0.000 A 
ATOM     16  C   UNL     1     -14.168  12.916 -58.122  0.00  0.00    +0.000 A 
ATOM     17  C   UNL     1     -13.551  10.587 -57.964  0.00  0.00    +0.000 A 
ATOM     18  C   UNL     1     -12.922  13.285 -57.602  0.00  0.00    +0.000 A 
ATOM     19  C   UNL     1     -12.306  10.952 -57.444  0.00  0.00    +0.000 A 
ATOM     20  C   UNL     1     -11.987  12.301 -57.264  0.00  0.00    +0.000 A 
ENDBRANCH  12  15
ENDBRANCH  11  12
ENDBRANCH   9  11
ENDBRANCH   4  10
BRANCH   5  21
ATOM     21  S   UNL     1     -19.219   8.210 -56.811  0.00  0.00    +0.000 S 
BRANCH  21  22
ATOM     22  C   UNL     1     -20.278   7.785 -55.397  0.00  0.00    +0.000 C 
BRANCH  22  23
ATOM     23  C   UNL     1     -21.038   6.499 -55.650  0.00  0.00    +0.000 A 
ATOM     24  C   UNL     1     -20.409   5.409 -56.268  0.00  0.00    +0.000 A 
ATOM     25  C   UNL     1     -22.396   6.380 -55.301  0.00  0.00    +0.000 A 
ATOM     26  C   UNL     1     -21.107   4.227 -56.520  0.00  0.00    +0.000 A 
ATOM     27  C   UNL     1     -23.093   5.195 -55.552  0.00  0.00    +0.000 A 
ATOM     28  C   UNL     1     -22.450   4.121 -56.160  0.00  0.00    +0.000 A 
ENDBRANCH  22  23
ENDBRANCH  21  22
ENDBRANCH   5  21
TORSDOF 7
ENDMDL
MODEL 6
REMARK VINA RESULT:      -5.3     19.742     22.245
REMARK  Name = 9637344
REMARK  7 active torsions:
REMARK  status: ('A' for Active; 'I' for Inactive)
REMARK    1  A    between atoms: S_3  and  C_10
REMARK    2  A    between atoms: S_3  and  C_13
REMARK    3  A    between atoms: O_5  and  N_8
REMARK    4  A    between atoms: O_5  and  C_20
REMARK    5  A    between atoms: C_9  and  C_15
REMARK    6  A    between atoms: C_13  and  C_14
REMARK    7  A    between atoms: C_17  and  C_20
REMARK                            x       y       z     vdW  Elec       q    Type
REMARK                         _______ _______ _______ _____ _____    ______ ____
ROOT
ATOM      1  S   UNL     1      -4.253  15.232 -48.125  0.00  0.00    +0.000 S 
ATOM      2  N   UNL     1      -4.254  14.939 -50.675  0.00  0.00    +0.000 N 
ATOM      3  N   UNL     1      -5.974  13.790 -49.823  0.00  0.00    +0.000 NA
ATOM      4  C   UNL     1      -4.872  14.375 -51.759  0.00  0.00    +0.000 A 
ATOM      5  C   UNL     1      -5.913  13.638 -51.193  0.00  0.00    +0.000 A 
ATOM      6  C   UNL     1      -4.962  14.575 -49.569  0.00  0.00    +0.000 A 
ATOM      7  C   UNL     1      -3.138  15.713 -50.431  0.00  0.00    +0.000 A 
ATOM      8  C   UNL     1      -2.979  15.961 -49.120  0.00  0.00    +0.000 A 
ENDROOT
BRANCH   4  10
ATOM      9  N   UNL     1      -5.188  15.391 -53.860  0.00  0.00    +0.000 NA
ATOM     10  C   UNL     1      -4.521  14.553 -53.134  0.00  0.00    +0.000 C 
BRANCH   9  11
ATOM     11  O   UNL     1      -4.752  15.313 -55.196  0.00  0.00    +0.000 OA
BRANCH  11  12
ATOM     12  C   UNL     1      -5.612  16.145 -55.980  0.00  0.00    +0.000 C 
BRANCH  12  15
ATOM     13 CL   UNL     1     -10.519  15.001 -57.279  0.00  0.00    +0.000 Cl
ATOM     14 CL   UNL     1      -9.353  12.618 -59.164  0.00  0.00    +0.000 Cl
ATOM     15  C   UNL     1      -6.556  15.314 -56.811  0.00  0.00    +0.000 A 
ATOM     16  C   UNL     1      -7.943  15.514 -56.731  0.00  0.00    +0.000 A 
ATOM     17  C   UNL     1      -6.067  14.290 -57.635  0.00  0.00    +0.000 A 
ATOM     18  C   UNL     1      -8.825  14.699 -57.450  0.00  0.00    +0.000 A 
ATOM     19  C   UNL     1      -6.946  13.477 -58.355  0.00  0.00    +0.000 A 
ATOM     20  C   UNL     1      -8.325  13.676 -58.262  0.00  0.00    +0.000 A 
ENDBRANCH  12  15
ENDBRANCH  11  12
ENDBRANCH   9  11
ENDBRANCH   4  10
BRANCH   5  21
ATOM     21  S   UNL     1      -7.027  12.619 -52.083  0.00  0.00    +0.000 S 
BRANCH  21  22
ATOM     22  C   UNL     1      -8.056  13.837 -52.954  0.00  0.00    +0.000 C 
BRANCH  22  23
ATOM     23  C   UNL     1      -9.115  13.155 -53.797  0.00  0.00    +0.000 A 
ATOM     24  C   UNL     1     -10.478  13.364 -53.537  0.00  0.00    +0.000 A 
ATOM     25  C   UNL     1      -8.758  12.276 -54.835  0.00  0.00    +0.000 A 
ATOM     26  C   UNL     1     -11.457  12.726 -54.298  0.00  0.00    +0.000 A 
ATOM     27  C   UNL     1      -9.741  11.640 -55.598  0.00  0.00    +0.000 A 
ATOM     28  C   UNL     1     -11.088  11.865 -55.330  0.00  0.00    +0.000 A 
ENDBRANCH  22  23
ENDBRANCH  21  22
ENDBRANCH   5  21
TORSDOF 7
ENDMDL
MODEL 7
REMARK VINA RESULT:      -5.3     22.278     23.824
REMARK  Name = 9637344
REMARK  7 active torsions:
REMARK  status: ('A' for Active; 'I' for Inactive)
REMARK    1  A    between atoms: S_3  and  C_10
REMARK    2  A    between atoms: S_3  and  C_13
REMARK    3  A    between atoms: O_5  and  N_8
REMARK    4  A    between atoms: O_5  and  C_20
REMARK    5  A    between atoms: C_9  and  C_15
REMARK    6  A    between atoms: C_13  and  C_14
REMARK    7  A    between atoms: C_17  and  C_20
REMARK                            x       y       z     vdW  Elec       q    Type
REMARK                         _______ _______ _______ _____ _____    ______ ____
ROOT
ATOM      1  S   UNL     1     -20.044  16.225 -55.236  0.00  0.00    +0.000 S 
ATOM      2  N   UNL     1     -20.003  13.797 -56.068  0.00  0.00    +0.000 N 
ATOM      3  N   UNL     1     -21.827  14.089 -54.805  0.00  0.00    +0.000 NA
ATOM      4  C   UNL     1     -20.635  12.582 -56.074  0.00  0.00    +0.000 A 
ATOM      5  C   UNL     1     -21.743  12.787 -55.251  0.00  0.00    +0.000 A 
ATOM      6  C   UNL     1     -20.765  14.646 -55.321  0.00  0.00    +0.000 A 
ATOM      7  C   UNL     1     -18.838  14.339 -56.570  0.00  0.00    +0.000 A 
ATOM      8  C   UNL     1     -18.694  15.628 -56.218  0.00  0.00    +0.000 A 
ENDROOT
BRANCH   4  10
ATOM      9  N   UNL     1     -20.138  11.462 -58.086  0.00  0.00    +0.000 NA
ATOM     10  C   UNL     1     -20.237  11.414 -56.797  0.00  0.00    +0.000 C 
BRANCH   9  11
ATOM     11  O   UNL     1     -19.854  10.180 -58.589  0.00  0.00    +0.000 OA
BRANCH  11  12
ATOM     12  C   UNL     1     -19.044   9.506 -57.622  0.00  0.00    +0.000 C 
BRANCH  12  15
ATOM     13 CL   UNL     1     -22.400   5.735 -58.884  0.00  0.00    +0.000 Cl
ATOM     14 CL   UNL     1     -21.116   3.938 -56.494  0.00  0.00    +0.000 Cl
ATOM     15  C   UNL     1     -19.534   8.098 -57.393  0.00  0.00    +0.000 A 
ATOM     16  C   UNL     1     -20.587   7.576 -58.160  0.00  0.00    +0.000 A 
ATOM     17  C   UNL     1     -18.983   7.309 -56.374  0.00  0.00    +0.000 A 
ATOM     18  C   UNL     1     -21.088   6.294 -57.905  0.00  0.00    +0.000 A 
ATOM     19  C   UNL     1     -19.482   6.029 -56.118  0.00  0.00    +0.000 A 
ATOM     20  C   UNL     1     -20.537   5.520 -56.880  0.00  0.00    +0.000 A 
ENDBRANCH  12  15
ENDBRANCH  11  12
ENDBRANCH   9  11
ENDBRANCH   4  10
BRANCH   5  21
ATOM     21  S   UNL     1     -22.909  11.557 -54.805  0.00  0.00    +0.000 S 
BRANCH  21  22
ATOM     22  C   UNL     1     -22.739  10.353 -56.155  0.00  0.00    +0.000 C 
BRANCH  22  23
ATOM     23  C   UNL     1     -22.901   8.934 -55.646  0.00  0.00    +0.000 A 
ATOM     24  C   UNL     1     -23.844   8.072 -56.224  0.00  0.00    +0.000 A 
ATOM     25  C   UNL     1     -22.135   8.462 -54.565  0.00  0.00    +0.000 A 
ATOM     26  C   UNL     1     -24.010   6.771 -55.749  0.00  0.00    +0.000 A 
ATOM     27  C   UNL     1     -22.302   7.157 -54.092  0.00  0.00    +0.000 A 
ATOM     28  C   UNL     1     -23.237   6.313 -54.683  0.00  0.00    +0.000 A 
ENDBRANCH  22  23
ENDBRANCH  21  22
ENDBRANCH   5  21
TORSDOF 7
ENDMDL
MODEL 8
REMARK VINA RESULT:      -5.2     23.748     25.935
REMARK  Name = 9637344
REMARK  7 active torsions:
REMARK  status: ('A' for Active; 'I' for Inactive)
REMARK    1  A    between atoms: S_3  and  C_10
REMARK    2  A    between atoms: S_3  and  C_13
REMARK    3  A    between atoms: O_5  and  N_8
REMARK    4  A    between atoms: O_5  and  C_20
REMARK    5  A    between atoms: C_9  and  C_15
REMARK    6  A    between atoms: C_13  and  C_14
REMARK    7  A    between atoms: C_17  and  C_20
REMARK                            x       y       z     vdW  Elec       q    Type
REMARK                         _______ _______ _______ _____ _____    ______ ____
ROOT
ATOM      1  S   UNL     1     -20.430  11.942 -62.461  0.00  0.00    +0.000 S 
ATOM      2  N   UNL     1     -20.256  11.001 -60.080  0.00  0.00    +0.000 N 
ATOM      3  N   UNL     1     -22.125  10.213 -61.025  0.00  0.00    +0.000 NA
ATOM      4  C   UNL     1     -20.825  10.202 -59.123  0.00  0.00    +0.000 A 
ATOM      5  C   UNL     1     -22.002   9.759 -59.728  0.00  0.00    +0.000 A 
ATOM      6  C   UNL     1     -21.057  10.948 -61.181  0.00  0.00    +0.000 A 
ATOM      7  C   UNL     1     -19.155  11.825 -60.192  0.00  0.00    +0.000 A 
ATOM      8  C   UNL     1     -19.094  12.415 -61.397  0.00  0.00    +0.000 A 
ENDROOT
BRANCH   4  10
ATOM      9  N   UNL     1     -19.322   9.041 -57.731  0.00  0.00    +0.000 NA
ATOM     10  C   UNL     1     -20.288   9.895 -57.834  0.00  0.00    +0.000 C 
BRANCH   9  11
ATOM     11  O   UNL     1     -19.039   8.805 -56.373  0.00  0.00    +0.000 OA
BRANCH  11  12
ATOM     12  C   UNL     1     -18.897   7.392 -56.201  0.00  0.00    +0.000 C 
BRANCH  12  15
ATOM     13 CL   UNL     1     -22.088   3.303 -56.601  0.00  0.00    +0.000 Cl
ATOM     14 CL   UNL     1     -24.298   4.996 -54.916  0.00  0.00    +0.000 Cl
ATOM     15  C   UNL     1     -20.216   6.757 -55.840  0.00  0.00    +0.000 A 
ATOM     16  C   UNL     1     -20.528   5.462 -56.280  0.00  0.00    +0.000 A 
ATOM     17  C   UNL     1     -21.173   7.471 -55.106  0.00  0.00    +0.000 A 
ATOM     18  C   UNL     1     -21.778   4.895 -56.004  0.00  0.00    +0.000 A 
ATOM     19  C   UNL     1     -22.421   6.907 -54.828  0.00  0.00    +0.000 A 
ATOM     20  C   UNL     1     -22.728   5.621 -55.278  0.00  0.00    +0.000 A 
ENDBRANCH  12  15
ENDBRANCH  11  12
ENDBRANCH   9  11
ENDBRANCH   4  10
BRANCH   5  21
ATOM     21  S   UNL     1     -23.212   8.750 -58.960  0.00  0.00    +0.000 S 
BRANCH  21  22
ATOM     22  C   UNL     1     -22.430   7.110 -58.997  0.00  0.00    +0.000 C 
BRANCH  22  23
ATOM     23  C   UNL     1     -23.251   6.132 -59.814  0.00  0.00    +0.000 A 
ATOM     24  C   UNL     1     -23.739   6.493 -61.078  0.00  0.00    +0.000 A 
ATOM     25  C   UNL     1     -23.567   4.856 -59.312  0.00  0.00    +0.000 A 
ATOM     26  C   UNL     1     -24.509   5.603 -61.828  0.00  0.00    +0.000 A 
ATOM     27  C   UNL     1     -24.337   3.967 -60.066  0.00  0.00    +0.000 A 
ATOM     28  C   UNL     1     -24.807   4.339 -61.322  0.00  0.00    +0.000 A 
ENDBRANCH  22  23
ENDBRANCH  21  22
ENDBRANCH   5  21
TORSDOF 7
ENDMDL
MODEL 9
REMARK VINA RESULT:      -5.1     18.569     20.013
REMARK  Name = 9637344
REMARK  7 active torsions:
REMARK  status: ('A' for Active; 'I' for Inactive)
REMARK    1  A    between atoms: S_3  and  C_10
REMARK    2  A    between atoms: S_3  and  C_13
REMARK    3  A    between atoms: O_5  and  N_8
REMARK    4  A    between atoms: O_5  and  C_20
REMARK    5  A    between atoms: C_9  and  C_15
REMARK    6  A    between atoms: C_13  and  C_14
REMARK    7  A    between atoms: C_17  and  C_20
REMARK                            x       y       z     vdW  Elec       q    Type
REMARK                         _______ _______ _______ _____ _____    ______ ____
ROOT
ATOM      1  S   UNL     1     -24.934  11.280 -49.559  0.00  0.00    +0.000 S 
ATOM      2  N   UNL     1     -24.431   8.805 -50.019  0.00  0.00    +0.000 N 
ATOM      3  N   UNL     1     -24.314   9.929 -51.950  0.00  0.00    +0.000 NA
ATOM      4  C   UNL     1     -24.110   7.861 -50.958  0.00  0.00    +0.000 A 
ATOM      5  C   UNL     1     -24.082   8.585 -52.151  0.00  0.00    +0.000 A 
ATOM      6  C   UNL     1     -24.517  10.004 -50.662  0.00  0.00    +0.000 A 
ATOM      7  C   UNL     1     -24.707   8.841 -48.668  0.00  0.00    +0.000 A 
ATOM      8  C   UNL     1     -25.004  10.084 -48.252  0.00  0.00    +0.000 A 
ENDROOT
BRANCH   4  10
ATOM      9  N   UNL     1     -24.735   5.591 -51.024  0.00  0.00    +0.000 NA
ATOM     10  C   UNL     1     -23.841   6.476 -50.722  0.00  0.00    +0.000 C 
BRANCH   9  11
ATOM     11  O   UNL     1     -24.308   4.320 -50.597  0.00  0.00    +0.000 OA
BRANCH  11  12
ATOM     12  C   UNL     1     -25.461   3.476 -50.536  0.00  0.00    +0.000 C 
BRANCH  12  15
ATOM     13 CL   UNL     1     -25.712  -0.989 -47.877  0.00  0.00    +0.000 Cl
ATOM     14 CL   UNL     1     -26.076   0.770 -45.163  0.00  0.00    +0.000 Cl
ATOM     15  C   UNL     1     -25.554   2.785 -49.199  0.00  0.00    +0.000 A 
ATOM     16  C   UNL     1     -25.552   1.384 -49.118  0.00  0.00    +0.000 A 
ATOM     17  C   UNL     1     -25.701   3.530 -48.021  0.00  0.00    +0.000 A 
ATOM     18  C   UNL     1     -25.706   0.740 -47.885  0.00  0.00    +0.000 A 
ATOM     19  C   UNL     1     -25.854   2.889 -46.789  0.00  0.00    +0.000 A 
ATOM     20  C   UNL     1     -25.860   1.494 -46.718  0.00  0.00    +0.000 A 
ENDBRANCH  12  15
ENDBRANCH  11  12
ENDBRANCH   9  11
ENDBRANCH   4  10
BRANCH   5  21
ATOM     21  S   UNL     1     -23.798   7.899 -53.739  0.00  0.00    +0.000 S 
BRANCH  21  22
ATOM     22  C   UNL     1     -22.144   8.532 -54.145  0.00  0.00    +0.000 C 
BRANCH  22  23
ATOM     23  C   UNL     1     -21.365   7.533 -54.976  0.00  0.00    +0.000 A 
ATOM     24  C   UNL     1     -21.942   6.310 -55.346  0.00  0.00    +0.000 A 
ATOM     25  C   UNL     1     -20.039   7.794 -55.367  0.00  0.00    +0.000 A 
ATOM     26  C   UNL     1     -21.224   5.378 -56.097  0.00  0.00    +0.000 A 
ATOM     27  C   UNL     1     -19.323   6.860 -56.121  0.00  0.00    +0.000 A 
ATOM     28  C   UNL     1     -19.914   5.654 -56.485  0.00  0.00    +0.000 A 
ENDBRANCH  22  23
ENDBRANCH  21  22
ENDBRANCH   5  21
TORSDOF 7
ENDMDL
MODEL 10
REMARK VINA RESULT:      -5.0     22.211     26.019
REMARK  Name = 9637344
REMARK  7 active torsions:
REMARK  status: ('A' for Active; 'I' for Inactive)
REMARK    1  A    between atoms: S_3  and  C_10
REMARK    2  A    between atoms: S_3  and  C_13
REMARK    3  A    between atoms: O_5  and  N_8
REMARK    4  A    between atoms: O_5  and  C_20
REMARK    5  A    between atoms: C_9  and  C_15
REMARK    6  A    between atoms: C_13  and  C_14
REMARK    7  A    between atoms: C_17  and  C_20
REMARK                            x       y       z     vdW  Elec       q    Type
REMARK                         _______ _______ _______ _____ _____    ______ ____
ROOT
ATOM      1  S   UNL     1      -8.011  -4.413 -61.560  0.00  0.00    +0.000 S 
ATOM      2  N   UNL     1      -7.093  -2.871 -59.725  0.00  0.00    +0.000 N 
ATOM      3  N   UNL     1      -7.658  -1.620 -61.493  0.00  0.00    +0.000 NA
ATOM      4  C   UNL     1      -6.801  -1.584 -59.355  0.00  0.00    +0.000 A 
ATOM      5  C   UNL     1      -7.128  -0.838 -60.488  0.00  0.00    +0.000 A 
ATOM      6  C   UNL     1      -7.613  -2.822 -60.984  0.00  0.00    +0.000 A 
ATOM      7  C   UNL     1      -6.970  -4.135 -59.187  0.00  0.00    +0.000 A 
ATOM      8  C   UNL     1      -7.406  -5.083 -60.034  0.00  0.00    +0.000 A 
ENDROOT
BRANCH   4  10
ATOM      9  N   UNL     1      -5.144  -1.539 -57.682  0.00  0.00    +0.000 NA
ATOM     10  C   UNL     1      -6.311  -1.150 -58.084  0.00  0.00    +0.000 C 
BRANCH   9  11
ATOM     11  O   UNL     1      -4.922  -1.094 -56.366  0.00  0.00    +0.000 OA
BRANCH  11  12
ATOM     12  C   UNL     1      -6.197  -0.986 -55.726  0.00  0.00    +0.000 C 
BRANCH  12  15
ATOM     13 CL   UNL     1      -4.878   3.368 -53.202  0.00  0.00    +0.000 Cl
ATOM     14 CL   UNL     1      -5.537   1.826 -50.414  0.00  0.00    +0.000 Cl
ATOM     15  C   UNL     1      -6.083  -0.250 -54.415  0.00  0.00    +0.000 A 
ATOM     16  C   UNL     1      -5.631   1.077 -54.379  0.00  0.00    +0.000 A 
ATOM     17  C   UNL     1      -6.373  -0.900 -53.207  0.00  0.00    +0.000 A 
ATOM     18  C   UNL     1      -5.459   1.740 -53.158  0.00  0.00    +0.000 A 
ATOM     19  C   UNL     1      -6.203  -0.239 -51.987  0.00  0.00    +0.000 A 
ATOM     20  C   UNL     1      -5.743   1.080 -51.959  0.00  0.00    +0.000 A 
ENDBRANCH  12  15
ENDBRANCH  11  12
ENDBRANCH   9  11
ENDBRANCH   4  10
BRANCH   5  21
ATOM     21  S   UNL     1      -6.899   0.891 -60.656  0.00  0.00    +0.000 S 
BRANCH  21  22
ATOM     22  C   UNL     1      -5.147   1.096 -60.217  0.00  0.00    +0.000 C 
BRANCH  22  23
ATOM     23  C   UNL     1      -4.962   2.220 -59.218  0.00  0.00    +0.000 A 
ATOM     24  C   UNL     1      -5.379   3.523 -59.524  0.00  0.00    +0.000 A 
ATOM     25  C   UNL     1      -4.340   1.989 -57.977  0.00  0.00    +0.000 A 
ATOM     26  C   UNL     1      -5.196   4.566 -58.615  0.00  0.00    +0.000 A 
ATOM     27  C   UNL     1      -4.160   3.035 -57.067  0.00  0.00    +0.000 A 
ATOM     28  C   UNL     1      -4.587   4.320 -57.386  0.00  0.00    +0.000 A 
ENDBRANCH  22  23
ENDBRANCH  21  22
ENDBRANCH   5  21
TORSDOF 7
ENDMDL
