MODEL 1
REMARK VINA RESULT:      -6.0      0.000      0.000
REMARK  Name = 9637254
REMARK  5 active torsions:
REMARK  status: ('A' for Active; 'I' for Inactive)
REMARK    1  A    between atoms: O_4  and  N_7
REMARK    2  A    between atoms: O_4  and  C_20
REMARK    3  A    between atoms: C_8  and  C_13
REMARK    4  A    between atoms: C_9  and  C_11
REMARK    5  A    between atoms: C_17  and  C_20
REMARK                            x       y       z     vdW  Elec       q    Type
REMARK                         _______ _______ _______ _____ _____    ______ ____
ROOT
ATOM      1  S   UNL     1      19.822   5.935  20.626  0.00  0.00    +0.000 S 
ATOM      2  N   UNL     1      18.092   7.725  21.255  0.00  0.00    +0.000 N 
ATOM      3  N   UNL     1      17.212   6.388  19.694  0.00  0.00    +0.000 NA
ATOM      4  C   UNL     1      16.820   8.203  21.065  0.00  0.00    +0.000 A 
ATOM      5  C   UNL     1      16.307   7.378  20.057  0.00  0.00    +0.000 A 
ATOM      6  C   UNL     1      18.253   6.652  20.430  0.00  0.00    +0.000 A 
ATOM      7  C   UNL     1      19.175   8.014  22.057  0.00  0.00    +0.000 A 
ATOM      8  C   UNL     1      20.191   7.158  21.851  0.00  0.00    +0.000 A 
ENDROOT
BRANCH   5   9
ATOM      9  C   UNL     1      14.998   7.489  19.424  0.00  0.00    +0.000 A 
ATOM     10  C   UNL     1      13.931   6.715  19.899  0.00  0.00    +0.000 A 
ATOM     11  C   UNL     1      14.772   8.337  18.329  0.00  0.00    +0.000 A 
ATOM     12  C   UNL     1      12.659   6.826  19.330  0.00  0.00    +0.000 A 
ATOM     13  C   UNL     1      13.497   8.464  17.773  0.00  0.00    +0.000 A 
ATOM     14  C   UNL     1      12.440   7.714  18.277  0.00  0.00    +0.000 A 
ENDBRANCH   5   9
BRANCH   4  16
ATOM     15  N   UNL     1      15.028   9.164  22.279  0.00  0.00    +0.000 NA
ATOM     16  C   UNL     1      16.216   9.285  21.781  0.00  0.00    +0.000 C 
BRANCH  15  17
ATOM     17  O   UNL     1      14.699  10.342  22.975  0.00  0.00    +0.000 OA
BRANCH  17  18
ATOM     18  C   UNL     1      13.665  11.020  22.252  0.00  0.00    +0.000 C 
BRANCH  18  21
ATOM     19 CL   UNL     1      14.433  13.794  23.505  0.00  0.00    +0.000 Cl
ATOM     20 CL   UNL     1      10.974   9.564  22.806  0.00  0.00    +0.000 Cl
ATOM     21  C   UNL     1      12.690  11.679  23.200  0.00  0.00    +0.000 A 
ATOM     22  C   UNL     1      12.961  12.929  23.788  0.00  0.00    +0.000 A 
ATOM     23  C   UNL     1      11.448  11.081  23.493  0.00  0.00    +0.000 A 
ATOM     24  C   UNL     1      12.031  13.551  24.633  0.00  0.00    +0.000 A 
ATOM     25  C   UNL     1      10.523  11.704  24.342  0.00  0.00    +0.000 A 
ATOM     26  C   UNL     1      10.813  12.941  24.910  0.00  0.00    +0.000 A 
ENDBRANCH  18  21
ENDBRANCH  17  18
ENDBRANCH  15  17
ENDBRANCH   4  16
TORSDOF 5
ENDMDL
MODEL 2
REMARK VINA RESULT:      -6.0      1.656      2.411
REMARK  Name = 9637254
REMARK  5 active torsions:
REMARK  status: ('A' for Active; 'I' for Inactive)
REMARK    1  A    between atoms: O_4  and  N_7
REMARK    2  A    between atoms: O_4  and  C_20
REMARK    3  A    between atoms: C_8  and  C_13
REMARK    4  A    between atoms: C_9  and  C_11
REMARK    5  A    between atoms: C_17  and  C_20
REMARK                            x       y       z     vdW  Elec       q    Type
REMARK                         _______ _______ _______ _____ _____    ______ ____
ROOT
ATOM      1  S   UNL     1      18.470   6.072  20.129  0.00  0.00    +0.000 S 
ATOM      2  N   UNL     1      17.128   7.990  21.185  0.00  0.00    +0.000 N 
ATOM      3  N   UNL     1      15.770   6.802  19.864  0.00  0.00    +0.000 NA
ATOM      4  C   UNL     1      15.902   8.591  21.316  0.00  0.00    +0.000 A 
ATOM      5  C   UNL     1      15.082   7.857  20.451  0.00  0.00    +0.000 A 
ATOM      6  C   UNL     1      16.979   6.939  20.330  0.00  0.00    +0.000 A 
ATOM      7  C   UNL     1      18.395   8.145  21.704  0.00  0.00    +0.000 A 
ATOM      8  C   UNL     1      19.242   7.207  21.245  0.00  0.00    +0.000 A 
ENDROOT
BRANCH   5   9
ATOM      9  C   UNL     1      13.678   8.115  20.156  0.00  0.00    +0.000 A 
ATOM     10  C   UNL     1      13.280   8.345  18.832  0.00  0.00    +0.000 A 
ATOM     11  C   UNL     1      12.703   8.163  21.164  0.00  0.00    +0.000 A 
ATOM     12  C   UNL     1      11.936   8.562  18.518  0.00  0.00    +0.000 A 
ATOM     13  C   UNL     1      11.357   8.360  20.849  0.00  0.00    +0.000 A 
ATOM     14  C   UNL     1      10.972   8.554  19.526  0.00  0.00    +0.000 A 
ENDBRANCH   5   9
BRANCH   4  16
ATOM     15  N   UNL     1      15.926  10.903  21.834  0.00  0.00    +0.000 NA
ATOM     16  C   UNL     1      15.599   9.697  22.173  0.00  0.00    +0.000 C 
BRANCH  15  17
ATOM     17  O   UNL     1      15.464  11.798  22.816  0.00  0.00    +0.000 OA
BRANCH  17  18
ATOM     18  C   UNL     1      14.808  12.889  22.159  0.00  0.00    +0.000 C 
BRANCH  18  21
ATOM     19 CL   UNL     1      12.698  11.690  20.166  0.00  0.00    +0.000 Cl
ATOM     20 CL   UNL     1      14.066  14.136  24.909  0.00  0.00    +0.000 Cl
ATOM     21  C   UNL     1      13.345  12.941  22.536  0.00  0.00    +0.000 A 
ATOM     22  C   UNL     1      12.346  12.411  21.699  0.00  0.00    +0.000 A 
ATOM     23  C   UNL     1      12.935  13.486  23.770  0.00  0.00    +0.000 A 
ATOM     24  C   UNL     1      10.996  12.426  22.080  0.00  0.00    +0.000 A 
ATOM     25  C   UNL     1      11.585  13.504  24.145  0.00  0.00    +0.000 A 
ATOM     26  C   UNL     1      10.615  12.972  23.301  0.00  0.00    +0.000 A 
ENDBRANCH  18  21
ENDBRANCH  17  18
ENDBRANCH  15  17
ENDBRANCH   4  16
TORSDOF 5
ENDMDL
MODEL 3
REMARK VINA RESULT:      -5.8     27.762     30.833
REMARK  Name = 9637254
REMARK  5 active torsions:
REMARK  status: ('A' for Active; 'I' for Inactive)
REMARK    1  A    between atoms: O_4  and  N_7
REMARK    2  A    between atoms: O_4  and  C_20
REMARK    3  A    between atoms: C_8  and  C_13
REMARK    4  A    between atoms: C_9  and  C_11
REMARK    5  A    between atoms: C_17  and  C_20
REMARK                            x       y       z     vdW  Elec       q    Type
REMARK                         _______ _______ _______ _____ _____    ______ ____
ROOT
ATOM      1  S   UNL     1      -8.534  -9.389  17.709  0.00  0.00    +0.000 S 
ATOM      2  N   UNL     1      -6.899 -11.360  17.521  0.00  0.00    +0.000 N 
ATOM      3  N   UNL     1      -6.051  -9.613  16.414  0.00  0.00    +0.000 NA
ATOM      4  C   UNL     1      -5.687 -11.801  17.052  0.00  0.00    +0.000 A 
ATOM      5  C   UNL     1      -5.198 -10.706  16.330  0.00  0.00    +0.000 A 
ATOM      6  C   UNL     1      -7.045 -10.065  17.123  0.00  0.00    +0.000 A 
ATOM      7  C   UNL     1      -7.931 -11.857  18.288  0.00  0.00    +0.000 A 
ATOM      8  C   UNL     1      -8.893 -10.938  18.486  0.00  0.00    +0.000 A 
ENDROOT
BRANCH   5   9
ATOM      9  C   UNL     1      -3.958 -10.654  15.564  0.00  0.00    +0.000 A 
ATOM     10  C   UNL     1      -4.011 -10.624  14.164  0.00  0.00    +0.000 A 
ATOM     11  C   UNL     1      -2.699 -10.654  16.185  0.00  0.00    +0.000 A 
ATOM     12  C   UNL     1      -2.838 -10.541  13.407  0.00  0.00    +0.000 A 
ATOM     13  C   UNL     1      -1.529 -10.551  15.431  0.00  0.00    +0.000 A 
ATOM     14  C   UNL     1      -1.598 -10.488  14.043  0.00  0.00    +0.000 A 
ENDBRANCH   5   9
BRANCH   4  16
ATOM     15  N   UNL     1      -5.603 -14.148  16.744  0.00  0.00    +0.000 NA
ATOM     16  C   UNL     1      -5.111 -13.088  17.299  0.00  0.00    +0.000 C 
BRANCH  15  17
ATOM     17  O   UNL     1      -4.821 -15.261  17.103  0.00  0.00    +0.000 OA
BRANCH  17  18
ATOM     18  C   UNL     1      -4.811 -16.179  16.003  0.00  0.00    +0.000 C 
BRANCH  18  21
ATOM     19 CL   UNL     1      -3.309 -14.273  14.010  0.00  0.00    +0.000 Cl
ATOM     20 CL   UNL     1      -3.528 -18.719  17.257  0.00  0.00    +0.000 Cl
ATOM     21  C   UNL     1      -3.394 -16.522  15.604  0.00  0.00    +0.000 A 
ATOM     22  C   UNL     1      -2.655 -15.706  14.726  0.00  0.00    +0.000 A 
ATOM     23  C   UNL     1      -2.746 -17.654  16.137  0.00  0.00    +0.000 A 
ATOM     24  C   UNL     1      -1.327 -16.012  14.397  0.00  0.00    +0.000 A 
ATOM     25  C   UNL     1      -1.419 -17.958  15.802  0.00  0.00    +0.000 A 
ATOM     26  C   UNL     1      -0.708 -17.136  14.934  0.00  0.00    +0.000 A 
ENDBRANCH  18  21
ENDBRANCH  17  18
ENDBRANCH  15  17
ENDBRANCH   4  16
TORSDOF 5
ENDMDL
MODEL 4
REMARK VINA RESULT:      -5.4      5.011      8.685
REMARK  Name = 9637254
REMARK  5 active torsions:
REMARK  status: ('A' for Active; 'I' for Inactive)
REMARK    1  A    between atoms: O_4  and  N_7
REMARK    2  A    between atoms: O_4  and  C_20
REMARK    3  A    between atoms: C_8  and  C_13
REMARK    4  A    between atoms: C_9  and  C_11
REMARK    5  A    between atoms: C_17  and  C_20
REMARK                            x       y       z     vdW  Elec       q    Type
REMARK                         _______ _______ _______ _____ _____    ______ ____
ROOT
ATOM      1  S   UNL     1      11.842  17.109  27.575  0.00  0.00    +0.000 S 
ATOM      2  N   UNL     1      11.643  14.923  26.243  0.00  0.00    +0.000 N 
ATOM      3  N   UNL     1      10.653  16.563  25.089  0.00  0.00    +0.000 NA
ATOM      4  C   UNL     1      11.211  14.323  25.087  0.00  0.00    +0.000 A 
ATOM      5  C   UNL     1      10.560  15.357  24.404  0.00  0.00    +0.000 A 
ATOM      6  C   UNL     1      11.296  16.239  26.175  0.00  0.00    +0.000 A 
ATOM      7  C   UNL     1      12.340  14.560  27.375  0.00  0.00    +0.000 A 
ATOM      8  C   UNL     1      12.534  15.605  28.199  0.00  0.00    +0.000 A 
ENDROOT
BRANCH   5   9
ATOM      9  C   UNL     1       9.854  15.251  23.132  0.00  0.00    +0.000 A 
ATOM     10  C   UNL     1       8.453  15.247  23.118  0.00  0.00    +0.000 A 
ATOM     11  C   UNL     1      10.535  15.130  21.911  0.00  0.00    +0.000 A 
ATOM     12  C   UNL     1       7.752  15.178  21.910  0.00  0.00    +0.000 A 
ATOM     13  C   UNL     1       9.837  15.082  20.703  0.00  0.00    +0.000 A 
ATOM     14  C   UNL     1       8.446  15.112  20.702  0.00  0.00    +0.000 A 
ENDBRANCH   5   9
BRANCH   4  16
ATOM     15  N   UNL     1      10.430  12.140  24.601  0.00  0.00    +0.000 NA
ATOM     16  C   UNL     1      11.427  12.957  24.720  0.00  0.00    +0.000 C 
BRANCH  15  17
ATOM     17  O   UNL     1      10.910  10.887  24.179  0.00  0.00    +0.000 OA
BRANCH  17  18
ATOM     18  C   UNL     1      11.236  10.975  22.786  0.00  0.00    +0.000 C 
BRANCH  18  21
ATOM     19 CL   UNL     1      14.225  11.933  22.880  0.00  0.00    +0.000 Cl
ATOM     20 CL   UNL     1      10.377   8.079  22.047  0.00  0.00    +0.000 Cl
ATOM     21  C   UNL     1      12.323   9.988  22.427  0.00  0.00    +0.000 A 
ATOM     22  C   UNL     1      13.685  10.343  22.461  0.00  0.00    +0.000 A 
ATOM     23  C   UNL     1      12.009   8.657  22.088  0.00  0.00    +0.000 A 
ATOM     24  C   UNL     1      14.687   9.407  22.168  0.00  0.00    +0.000 A 
ATOM     25  C   UNL     1      13.014   7.725  21.791  0.00  0.00    +0.000 A 
ATOM     26  C   UNL     1      14.353   8.100  21.833  0.00  0.00    +0.000 A 
ENDBRANCH  18  21
ENDBRANCH  17  18
ENDBRANCH  15  17
ENDBRANCH   4  16
TORSDOF 5
ENDMDL
MODEL 5
REMARK VINA RESULT:      -5.4      5.607      9.515
REMARK  Name = 9637254
REMARK  5 active torsions:
REMARK  status: ('A' for Active; 'I' for Inactive)
REMARK    1  A    between atoms: O_4  and  N_7
REMARK    2  A    between atoms: O_4  and  C_20
REMARK    3  A    between atoms: C_8  and  C_13
REMARK    4  A    between atoms: C_9  and  C_11
REMARK    5  A    between atoms: C_17  and  C_20
REMARK                            x       y       z     vdW  Elec       q    Type
REMARK                         _______ _______ _______ _____ _____    ______ ____
ROOT
ATOM      1  S   UNL     1      12.102  18.100  25.511  0.00  0.00    +0.000 S 
ATOM      2  N   UNL     1      11.181  15.847  24.692  0.00  0.00    +0.000 N 
ATOM      3  N   UNL     1       9.753  17.465  24.108  0.00  0.00    +0.000 NA
ATOM      4  C   UNL     1      10.185  15.201  24.005  0.00  0.00    +0.000 A 
ATOM      5  C   UNL     1       9.286  16.225  23.688  0.00  0.00    +0.000 A 
ATOM      6  C   UNL     1      10.874  17.175  24.704  0.00  0.00    +0.000 A 
ATOM      7  C   UNL     1      12.372  15.517  25.301  0.00  0.00    +0.000 A 
ATOM      8  C   UNL     1      12.996  16.600  25.798  0.00  0.00    +0.000 A 
ENDROOT
BRANCH   5   9
ATOM      9  C   UNL     1       8.004  16.080  23.008  0.00  0.00    +0.000 A 
ATOM     10  C   UNL     1       7.944  15.393  21.788  0.00  0.00    +0.000 A 
ATOM     11  C   UNL     1       6.821  16.628  23.525  0.00  0.00    +0.000 A 
ATOM     12  C   UNL     1       6.723  15.212  21.131  0.00  0.00    +0.000 A 
ATOM     13  C   UNL     1       5.598  16.430  22.881  0.00  0.00    +0.000 A 
ATOM     14  C   UNL     1       5.548  15.718  21.687  0.00  0.00    +0.000 A 
ENDBRANCH   5   9
BRANCH   4  16
ATOM     15  N   UNL     1      10.278  12.920  24.641  0.00  0.00    +0.000 NA
ATOM     16  C   UNL     1      10.148  13.802  23.702  0.00  0.00    +0.000 C 
BRANCH  15  17
ATOM     17  O   UNL     1      10.146  11.634  24.086  0.00  0.00    +0.000 OA
BRANCH  17  18
ATOM     18  C   UNL     1      11.436  11.012  24.079  0.00  0.00    +0.000 C 
BRANCH  18  21
ATOM     19 CL   UNL     1      10.375   8.428  22.645  0.00  0.00    +0.000 Cl
ATOM     20 CL   UNL     1      13.334  13.073  22.732  0.00  0.00    +0.000 Cl
ATOM     21  C   UNL     1      11.889  10.732  22.665  0.00  0.00    +0.000 A 
ATOM     22  C   UNL     1      11.443   9.601  21.955  0.00  0.00    +0.000 A 
ATOM     23  C   UNL     1      12.744  11.625  21.988  0.00  0.00    +0.000 A 
ATOM     24  C   UNL     1      11.836   9.375  20.628  0.00  0.00    +0.000 A 
ATOM     25  C   UNL     1      13.138  11.393  20.663  0.00  0.00    +0.000 A 
ATOM     26  C   UNL     1      12.683  10.269  19.982  0.00  0.00    +0.000 A 
ENDBRANCH  18  21
ENDBRANCH  17  18
ENDBRANCH  15  17
ENDBRANCH   4  16
TORSDOF 5
ENDMDL
MODEL 6
REMARK VINA RESULT:      -5.3     32.731     35.346
REMARK  Name = 9637254
REMARK  5 active torsions:
REMARK  status: ('A' for Active; 'I' for Inactive)
REMARK    1  A    between atoms: O_4  and  N_7
REMARK    2  A    between atoms: O_4  and  C_20
REMARK    3  A    between atoms: C_8  and  C_13
REMARK    4  A    between atoms: C_9  and  C_11
REMARK    5  A    between atoms: C_17  and  C_20
REMARK                            x       y       z     vdW  Elec       q    Type
REMARK                         _______ _______ _______ _____ _____    ______ ____
ROOT
ATOM      1  S   UNL     1     -15.682  -6.176  41.082  0.00  0.00    +0.000 S 
ATOM      2  N   UNL     1     -13.193  -6.774  40.894  0.00  0.00    +0.000 N 
ATOM      3  N   UNL     1     -13.406  -4.550  40.831  0.00  0.00    +0.000 NA
ATOM      4  C   UNL     1     -11.907  -6.304  40.804  0.00  0.00    +0.000 A 
ATOM      5  C   UNL     1     -12.070  -4.916  40.724  0.00  0.00    +0.000 A 
ATOM      6  C   UNL     1     -14.023  -5.694  40.919  0.00  0.00    +0.000 A 
ATOM      7  C   UNL     1     -13.821  -7.996  41.003  0.00  0.00    +0.000 A 
ATOM      8  C   UNL     1     -15.155  -7.865  41.110  0.00  0.00    +0.000 A 
ENDROOT
BRANCH   5   9
ATOM      9  C   UNL     1     -11.015  -3.925  40.549  0.00  0.00    +0.000 A 
ATOM     10  C   UNL     1     -10.776  -3.387  39.278  0.00  0.00    +0.000 A 
ATOM     11  C   UNL     1     -10.207  -3.502  41.616  0.00  0.00    +0.000 A 
ATOM     12  C   UNL     1      -9.792  -2.411  39.089  0.00  0.00    +0.000 A 
ATOM     13  C   UNL     1      -9.239  -2.514  41.433  0.00  0.00    +0.000 A 
ATOM     14  C   UNL     1      -9.035  -1.964  40.172  0.00  0.00    +0.000 A 
ENDBRANCH   5   9
BRANCH   4  16
ATOM     15  N   UNL     1     -10.369  -7.777  39.766  0.00  0.00    +0.000 NA
ATOM     16  C   UNL     1     -10.720  -7.104  40.814  0.00  0.00    +0.000 C 
BRANCH  15  17
ATOM     17  O   UNL     1      -9.146  -8.423  40.022  0.00  0.00    +0.000 OA
BRANCH  17  18
ATOM     18  C   UNL     1      -8.241  -8.113  38.956  0.00  0.00    +0.000 C 
BRANCH  18  21
ATOM     19 CL   UNL     1      -6.249 -10.510  39.333  0.00  0.00    +0.000 Cl
ATOM     20 CL   UNL     1      -7.512  -5.153  39.573  0.00  0.00    +0.000 Cl
ATOM     21  C   UNL     1      -6.858  -7.825  39.493  0.00  0.00    +0.000 A 
ATOM     22  C   UNL     1      -5.908  -8.848  39.674  0.00  0.00    +0.000 A 
ATOM     23  C   UNL     1      -6.455  -6.508  39.788  0.00  0.00    +0.000 A 
ATOM     24  C   UNL     1      -4.613  -8.564  40.133  0.00  0.00    +0.000 A 
ATOM     25  C   UNL     1      -5.161  -6.228  40.251  0.00  0.00    +0.000 A 
ATOM     26  C   UNL     1      -4.239  -7.256  40.421  0.00  0.00    +0.000 A 
ENDBRANCH  18  21
ENDBRANCH  17  18
ENDBRANCH  15  17
ENDBRANCH   4  16
TORSDOF 5
ENDMDL
MODEL 7
REMARK VINA RESULT:      -5.2     22.255     23.922
REMARK  Name = 9637254
REMARK  5 active torsions:
REMARK  status: ('A' for Active; 'I' for Inactive)
REMARK    1  A    between atoms: O_4  and  N_7
REMARK    2  A    between atoms: O_4  and  C_20
REMARK    3  A    between atoms: C_8  and  C_13
REMARK    4  A    between atoms: C_9  and  C_11
REMARK    5  A    between atoms: C_17  and  C_20
REMARK                            x       y       z     vdW  Elec       q    Type
REMARK                         _______ _______ _______ _____ _____    ______ ____
ROOT
ATOM      1  S   UNL     1       5.328  -4.678  39.427  0.00  0.00    +0.000 S 
ATOM      2  N   UNL     1       5.774  -6.562  37.741  0.00  0.00    +0.000 N 
ATOM      3  N   UNL     1       7.294  -4.950  37.440  0.00  0.00    +0.000 NA
ATOM      4  C   UNL     1       6.583  -7.030  36.736  0.00  0.00    +0.000 A 
ATOM      5  C   UNL     1       7.497  -5.988  36.539  0.00  0.00    +0.000 A 
ATOM      6  C   UNL     1       6.254  -5.343  38.118  0.00  0.00    +0.000 A 
ATOM      7  C   UNL     1       4.684  -7.008  38.456  0.00  0.00    +0.000 A 
ATOM      8  C   UNL     1       4.309  -6.124  39.398  0.00  0.00    +0.000 A 
ENDROOT
BRANCH   5   9
ATOM      9  C   UNL     1       8.552  -5.935  35.534  0.00  0.00    +0.000 A 
ATOM     10  C   UNL     1       8.616  -4.844  34.656  0.00  0.00    +0.000 A 
ATOM     11  C   UNL     1       9.503  -6.958  35.398  0.00  0.00    +0.000 A 
ATOM     12  C   UNL     1       9.636  -4.753  33.704  0.00  0.00    +0.000 A 
ATOM     13  C   UNL     1      10.533  -6.859  34.461  0.00  0.00    +0.000 A 
ATOM     14  C   UNL     1      10.604  -5.754  33.619  0.00  0.00    +0.000 A 
ENDBRANCH   5   9
BRANCH   4  16
ATOM     15  N   UNL     1       5.397  -8.629  35.453  0.00  0.00    +0.000 NA
ATOM     16  C   UNL     1       6.472  -8.305  36.096  0.00  0.00    +0.000 C 
BRANCH  15  17
ATOM     17  O   UNL     1       5.571  -9.900  34.876  0.00  0.00    +0.000 OA
BRANCH  17  18
ATOM     18  C   UNL     1       6.894  -9.969  34.329  0.00  0.00    +0.000 C 
BRANCH  18  21
ATOM     19 CL   UNL     1       6.865  -7.287  32.698  0.00  0.00    +0.000 Cl
ATOM     20 CL   UNL     1       6.890 -12.787  33.014  0.00  0.00    +0.000 Cl
ATOM     21  C   UNL     1       6.848 -10.042  32.821  0.00  0.00    +0.000 A 
ATOM     22  C   UNL     1       6.848  -8.881  32.024  0.00  0.00    +0.000 A 
ATOM     23  C   UNL     1       6.851 -11.284  32.155  0.00  0.00    +0.000 A 
ATOM     24  C   UNL     1       6.848  -8.961  30.624  0.00  0.00    +0.000 A 
ATOM     25  C   UNL     1       6.847 -11.359  30.755  0.00  0.00    +0.000 A 
ATOM     26  C   UNL     1       6.848 -10.198  29.990  0.00  0.00    +0.000 A 
ENDBRANCH  18  21
ENDBRANCH  17  18
ENDBRANCH  15  17
ENDBRANCH   4  16
TORSDOF 5
ENDMDL
MODEL 8
REMARK VINA RESULT:      -5.2     32.593     34.487
REMARK  Name = 9637254
REMARK  5 active torsions:
REMARK  status: ('A' for Active; 'I' for Inactive)
REMARK    1  A    between atoms: O_4  and  N_7
REMARK    2  A    between atoms: O_4  and  C_20
REMARK    3  A    between atoms: C_8  and  C_13
REMARK    4  A    between atoms: C_9  and  C_11
REMARK    5  A    between atoms: C_17  and  C_20
REMARK                            x       y       z     vdW  Elec       q    Type
REMARK                         _______ _______ _______ _____ _____    ______ ____
ROOT
ATOM      1  S   UNL     1      -4.090 -15.477   5.818  0.00  0.00    +0.000 S 
ATOM      2  N   UNL     1      -1.787 -15.680   4.701  0.00  0.00    +0.000 N 
ATOM      3  N   UNL     1      -1.649 -16.476   6.786  0.00  0.00    +0.000 NA
ATOM      4  C   UNL     1      -0.489 -16.108   4.825  0.00  0.00    +0.000 A 
ATOM      5  C   UNL     1      -0.418 -16.562   6.147  0.00  0.00    +0.000 A 
ATOM      6  C   UNL     1      -2.417 -15.938   5.882  0.00  0.00    +0.000 A 
ATOM      7  C   UNL     1      -2.583 -15.126   3.722  0.00  0.00    +0.000 A 
ATOM      8  C   UNL     1      -3.846 -14.946   4.148  0.00  0.00    +0.000 A 
ENDROOT
BRANCH   5   9
ATOM      9  C   UNL     1       0.766 -17.070   6.831  0.00  0.00    +0.000 A 
ATOM     10  C   UNL     1       1.435 -16.255   7.753  0.00  0.00    +0.000 A 
ATOM     11  C   UNL     1       1.278 -18.352   6.578  0.00  0.00    +0.000 A 
ATOM     12  C   UNL     1       2.553 -16.729   8.445  0.00  0.00    +0.000 A 
ATOM     13  C   UNL     1       2.382 -18.834   7.283  0.00  0.00    +0.000 A 
ATOM     14  C   UNL     1       3.016 -18.025   8.221  0.00  0.00    +0.000 A 
ENDBRANCH   5   9
BRANCH   4  16
ATOM     15  N   UNL     1       0.722 -17.131   3.065  0.00  0.00    +0.000 NA
ATOM     16  C   UNL     1       0.503 -16.084   3.794  0.00  0.00    +0.000 C 
BRANCH  15  17
ATOM     17  O   UNL     1       1.697 -16.823   2.098  0.00  0.00    +0.000 OA
BRANCH  17  18
ATOM     18  C   UNL     1       1.965 -15.417   2.161  0.00  0.00    +0.000 C 
BRANCH  18  21
ATOM     19 CL   UNL     1       4.985 -16.183   2.550  0.00  0.00    +0.000 Cl
ATOM     20 CL   UNL     1       0.876 -13.914  -0.334  0.00  0.00    +0.000 Cl
ATOM     21  C   UNL     1       2.957 -15.013   1.094  0.00  0.00    +0.000 A 
ATOM     22  C   UNL     1       4.323 -15.334   1.195  0.00  0.00    +0.000 A 
ATOM     23  C   UNL     1       2.535 -14.335  -0.067  0.00  0.00    +0.000 A 
ATOM     24  C   UNL     1       5.227 -14.992   0.179  0.00  0.00    +0.000 A 
ATOM     25  C   UNL     1       3.442 -13.990  -1.079  0.00  0.00    +0.000 A 
ATOM     26  C   UNL     1       4.787 -14.320  -0.957  0.00  0.00    +0.000 A 
ENDBRANCH  18  21
ENDBRANCH  17  18
ENDBRANCH  15  17
ENDBRANCH   4  16
TORSDOF 5
ENDMDL
MODEL 9
REMARK VINA RESULT:      -5.1     15.692     18.446
REMARK  Name = 9637254
REMARK  5 active torsions:
REMARK  status: ('A' for Active; 'I' for Inactive)
REMARK    1  A    between atoms: O_4  and  N_7
REMARK    2  A    between atoms: O_4  and  C_20
REMARK    3  A    between atoms: C_8  and  C_13
REMARK    4  A    between atoms: C_9  and  C_11
REMARK    5  A    between atoms: C_17  and  C_20
REMARK                            x       y       z     vdW  Elec       q    Type
REMARK                         _______ _______ _______ _____ _____    ______ ____
ROOT
ATOM      1  S   UNL     1       5.618  11.262   1.132  0.00  0.00    +0.000 S 
ATOM      2  N   UNL     1       7.483  11.177   2.894  0.00  0.00    +0.000 N 
ATOM      3  N   UNL     1       7.003   9.090   2.252  0.00  0.00    +0.000 NA
ATOM      4  C   UNL     1       8.354  10.387   3.601  0.00  0.00    +0.000 A 
ATOM      5  C   UNL     1       8.006   9.087   3.214  0.00  0.00    +0.000 A 
ATOM      6  C   UNL     1       6.728  10.355   2.112  0.00  0.00    +0.000 A 
ATOM      7  C   UNL     1       7.223  12.523   2.751  0.00  0.00    +0.000 A 
ATOM      8  C   UNL     1       6.251  12.750   1.850  0.00  0.00    +0.000 A 
ENDROOT
BRANCH   5   9
ATOM      9  C   UNL     1       8.581   7.845   3.718  0.00  0.00    +0.000 A 
ATOM     10  C   UNL     1       9.765   7.353   3.154  0.00  0.00    +0.000 A 
ATOM     11  C   UNL     1       7.972   7.106   4.743  0.00  0.00    +0.000 A 
ATOM     12  C   UNL     1      10.354   6.182   3.639  0.00  0.00    +0.000 A 
ATOM     13  C   UNL     1       8.570   5.947   5.243  0.00  0.00    +0.000 A 
ATOM     14  C   UNL     1       9.764   5.489   4.695  0.00  0.00    +0.000 A 
ENDBRANCH   5   9
BRANCH   4  16
ATOM     15  N   UNL     1       9.262  10.663   5.771  0.00  0.00    +0.000 NA
ATOM     16  C   UNL     1       9.370  10.851   4.496  0.00  0.00    +0.000 C 
BRANCH  15  17
ATOM     17  O   UNL     1      10.414  11.160   6.409  0.00  0.00    +0.000 OA
BRANCH  17  18
ATOM     18  C   UNL     1      10.586  10.453   7.643  0.00  0.00    +0.000 C 
BRANCH  18  21
ATOM     19 CL   UNL     1      13.590  10.527   6.731  0.00  0.00    +0.000 Cl
ATOM     20 CL   UNL     1       9.007   7.825   8.164  0.00  0.00    +0.000 Cl
ATOM     21  C   UNL     1      11.305   9.143   7.415  0.00  0.00    +0.000 A 
ATOM     22  C   UNL     1      12.655   9.099   7.020  0.00  0.00    +0.000 A 
ATOM     23  C   UNL     1      10.655   7.912   7.638  0.00  0.00    +0.000 A 
ATOM     24  C   UNL     1      13.324   7.878   6.853  0.00  0.00    +0.000 A 
ATOM     25  C   UNL     1      11.326   6.694   7.466  0.00  0.00    +0.000 A 
ATOM     26  C   UNL     1      12.661   6.676   7.076  0.00  0.00    +0.000 A 
ENDBRANCH  18  21
ENDBRANCH  17  18
ENDBRANCH  15  17
ENDBRANCH   4  16
TORSDOF 5
ENDMDL
MODEL 10
REMARK VINA RESULT:      -5.0     29.986     32.361
REMARK  Name = 9637254
REMARK  5 active torsions:
REMARK  status: ('A' for Active; 'I' for Inactive)
REMARK    1  A    between atoms: O_4  and  N_7
REMARK    2  A    between atoms: O_4  and  C_20
REMARK    3  A    between atoms: C_8  and  C_13
REMARK    4  A    between atoms: C_9  and  C_11
REMARK    5  A    between atoms: C_17  and  C_20
REMARK                            x       y       z     vdW  Elec       q    Type
REMARK                         _______ _______ _______ _____ _____    ______ ____
ROOT
ATOM      1  S   UNL     1      -8.372 -10.195  38.761  0.00  0.00    +0.000 S 
ATOM      2  N   UNL     1      -6.669  -8.419  39.495  0.00  0.00    +0.000 N 
ATOM      3  N   UNL     1      -8.730  -7.596  39.766  0.00  0.00    +0.000 NA
ATOM      4  C   UNL     1      -6.477  -7.169  40.026  0.00  0.00    +0.000 A 
ATOM      5  C   UNL     1      -7.775  -6.661  40.146  0.00  0.00    +0.000 A 
ATOM      6  C   UNL     1      -8.013  -8.613  39.381  0.00  0.00    +0.000 A 
ATOM      7  C   UNL     1      -5.889  -9.488  39.109  0.00  0.00    +0.000 A 
ATOM      8  C   UNL     1      -6.635 -10.524  38.687  0.00  0.00    +0.000 A 
ENDROOT
BRANCH   5   9
ATOM      9  C   UNL     1      -8.149  -5.327  40.604  0.00  0.00    +0.000 A 
ATOM     10  C   UNL     1      -8.396  -4.318  39.665  0.00  0.00    +0.000 A 
ATOM     11  C   UNL     1      -8.251  -5.011  41.968  0.00  0.00    +0.000 A 
ATOM     12  C   UNL     1      -8.786  -3.040  40.077  0.00  0.00    +0.000 A 
ATOM     13  C   UNL     1      -8.661  -3.741  42.380  0.00  0.00    +0.000 A 
ATOM     14  C   UNL     1      -8.934  -2.758  41.434  0.00  0.00    +0.000 A 
ENDBRANCH   5   9
BRANCH   4  16
ATOM     15  N   UNL     1      -4.473  -6.038  39.463  0.00  0.00    +0.000 NA
ATOM     16  C   UNL     1      -5.214  -6.589  40.369  0.00  0.00    +0.000 C 
BRANCH  15  17
ATOM     17  O   UNL     1      -3.325  -5.500  40.072  0.00  0.00    +0.000 OA
BRANCH  17  18
ATOM     18  C   UNL     1      -3.302  -5.920  41.441  0.00  0.00    +0.000 C 
BRANCH  18  21
ATOM     19 CL   UNL     1      -0.323  -5.049  40.965  0.00  0.00    +0.000 Cl
ATOM     20 CL   UNL     1      -5.145  -4.649  43.599  0.00  0.00    +0.000 Cl
ATOM     21  C   UNL     1      -2.714  -4.843  42.323  0.00  0.00    +0.000 A 
ATOM     22  C   UNL     1      -1.391  -4.392  42.157  0.00  0.00    +0.000 A 
ATOM     23  C   UNL     1      -3.492  -4.216  43.317  0.00  0.00    +0.000 A 
ATOM     24  C   UNL     1      -0.870  -3.361  42.953  0.00  0.00    +0.000 A 
ATOM     25  C   UNL     1      -2.966  -3.189  44.113  0.00  0.00    +0.000 A 
ATOM     26  C   UNL     1      -1.656  -2.760  43.930  0.00  0.00    +0.000 A 
ENDBRANCH  18  21
ENDBRANCH  17  18
ENDBRANCH  15  17
ENDBRANCH   4  16
TORSDOF 5
ENDMDL
