MODEL 1
REMARK VINA RESULT:      -6.1      0.000      0.000
REMARK  Name = 9637149
REMARK  7 active torsions:
REMARK  status: ('A' for Active; 'I' for Inactive)
REMARK    1  A    between atoms: S_4  and  C_11
REMARK    2  A    between atoms: S_4  and  C_14
REMARK    3  A    between atoms: O_6  and  N_9
REMARK    4  A    between atoms: O_6  and  C_21
REMARK    5  A    between atoms: C_10  and  C_16
REMARK    6  A    between atoms: C_14  and  C_15
REMARK    7  A    between atoms: C_20  and  C_21
REMARK                            x       y       z     vdW  Elec       q    Type
REMARK                         _______ _______ _______ _____ _____    ______ ____
ROOT
ATOM      1  S   UNL     1      11.499  16.647  27.508  0.00  0.00    +0.000 S 
ATOM      2  N   UNL     1      11.596  14.685  25.859  0.00  0.00    +0.000 N 
ATOM      3  N   UNL     1      10.121  16.179  25.104  0.00  0.00    +0.000 NA
ATOM      4  C   UNL     1      11.092  14.126  24.714  0.00  0.00    +0.000 A 
ATOM      5  C   UNL     1      10.168  15.074  24.273  0.00  0.00    +0.000 A 
ATOM      6  C   UNL     1      10.979  15.884  26.038  0.00  0.00    +0.000 A 
ATOM      7  C   UNL     1      12.485  14.324  26.850  0.00  0.00    +0.000 A 
ATOM      8  C   UNL     1      12.554  15.256  27.817  0.00  0.00    +0.000 A 
ENDROOT
BRANCH   4  10
ATOM      9  N   UNL     1      10.706  11.807  24.399  0.00  0.00    +0.000 NA
ATOM     10  C   UNL     1      11.466  12.835  24.224  0.00  0.00    +0.000 C 
BRANCH   9  11
ATOM     11  O   UNL     1      11.347  10.656  23.914  0.00  0.00    +0.000 OA
BRANCH  11  12
ATOM     12  C   UNL     1      10.624  10.216  22.759  0.00  0.00    +0.000 C 
BRANCH  12  15
ATOM     13 CL   UNL     1      12.584   6.943  19.245  0.00  0.00    +0.000 Cl
ATOM     14 CL   UNL     1      14.197   9.447  17.934  0.00  0.00    +0.000 Cl
ATOM     15  C   UNL     1      11.542  10.026  21.574  0.00  0.00    +0.000 A 
ATOM     16  C   UNL     1      11.670   8.752  21.000  0.00  0.00    +0.000 A 
ATOM     17  C   UNL     1      12.218  11.102  20.983  0.00  0.00    +0.000 A 
ATOM     18  C   UNL     1      12.482   8.546  19.879  0.00  0.00    +0.000 A 
ATOM     19  C   UNL     1      13.032  10.900  19.865  0.00  0.00    +0.000 A 
ATOM     20  C   UNL     1      13.170   9.624  19.312  0.00  0.00    +0.000 A 
ENDBRANCH  12  15
ENDBRANCH  11  12
ENDBRANCH   9  11
ENDBRANCH   4  10
BRANCH   5  21
ATOM     21  S   UNL     1       9.136  14.956  22.860  0.00  0.00    +0.000 S 
BRANCH  21  22
ATOM     22  C   UNL     1       8.429  16.625  22.792  0.00  0.00    +0.000 C 
BRANCH  22  24
ATOM     23 CL   UNL     1       2.674  16.709  24.627  0.00  0.00    +0.000 Cl
ATOM     24  C   UNL     1       6.989  16.642  23.254  0.00  0.00    +0.000 A 
ATOM     25  C   UNL     1       6.515  17.675  24.076  0.00  0.00    +0.000 A 
ATOM     26  C   UNL     1       6.104  15.613  22.884  0.00  0.00    +0.000 A 
ATOM     27  C   UNL     1       5.184  17.695  24.502  0.00  0.00    +0.000 A 
ATOM     28  C   UNL     1       4.773  15.633  23.311  0.00  0.00    +0.000 A 
ATOM     29  C   UNL     1       4.317  16.678  24.114  0.00  0.00    +0.000 A 
ENDBRANCH  22  24
ENDBRANCH  21  22
ENDBRANCH   5  21
TORSDOF 7
ENDMDL
MODEL 2
REMARK VINA RESULT:      -6.1     24.472     28.167
REMARK  Name = 9637149
REMARK  7 active torsions:
REMARK  status: ('A' for Active; 'I' for Inactive)
REMARK    1  A    between atoms: S_4  and  C_11
REMARK    2  A    between atoms: S_4  and  C_14
REMARK    3  A    between atoms: O_6  and  N_9
REMARK    4  A    between atoms: O_6  and  C_21
REMARK    5  A    between atoms: C_10  and  C_16
REMARK    6  A    between atoms: C_14  and  C_15
REMARK    7  A    between atoms: C_20  and  C_21
REMARK                            x       y       z     vdW  Elec       q    Type
REMARK                         _______ _______ _______ _____ _____    ______ ____
ROOT
ATOM      1  S   UNL     1     -20.064   6.243  22.992  0.00  0.00    +0.000 S 
ATOM      2  N   UNL     1     -18.280   5.218  24.523  0.00  0.00    +0.000 N 
ATOM      3  N   UNL     1     -17.266   6.135  22.760  0.00  0.00    +0.000 NA
ATOM      4  C   UNL     1     -16.949   4.947  24.708  0.00  0.00    +0.000 A 
ATOM      5  C   UNL     1     -16.345   5.521  23.589  0.00  0.00    +0.000 A 
ATOM      6  C   UNL     1     -18.400   5.909  23.357  0.00  0.00    +0.000 A 
ATOM      7  C   UNL     1     -19.467   4.928  25.163  0.00  0.00    +0.000 A 
ATOM      8  C   UNL     1     -20.526   5.398  24.480  0.00  0.00    +0.000 A 
ENDROOT
BRANCH   4  10
ATOM      9  N   UNL     1     -16.469   2.899  25.804  0.00  0.00    +0.000 NA
ATOM     10  C   UNL     1     -16.435   4.189  25.808  0.00  0.00    +0.000 C 
BRANCH   9  11
ATOM     11  O   UNL     1     -15.997   2.410  27.032  0.00  0.00    +0.000 OA
BRANCH  11  12
ATOM     12  C   UNL     1     -16.053   3.486  27.975  0.00  0.00    +0.000 C 
BRANCH  12  15
ATOM     13 CL   UNL     1     -15.221  -0.538  31.139  0.00  0.00    +0.000 Cl
ATOM     14 CL   UNL     1     -14.537   1.578  33.515  0.00  0.00    +0.000 Cl
ATOM     15  C   UNL     1     -15.704   3.018  29.368  0.00  0.00    +0.000 A 
ATOM     16  C   UNL     1     -15.633   1.642  29.634  0.00  0.00    +0.000 A 
ATOM     17  C   UNL     1     -15.379   3.919  30.390  0.00  0.00    +0.000 A 
ATOM     18  C   UNL     1     -15.277   1.172  30.903  0.00  0.00    +0.000 A 
ATOM     19  C   UNL     1     -15.026   3.454  31.660  0.00  0.00    +0.000 A 
ATOM     20  C   UNL     1     -14.977   2.082  31.922  0.00  0.00    +0.000 A 
ENDBRANCH  12  15
ENDBRANCH  11  12
ENDBRANCH   9  11
ENDBRANCH   4  10
BRANCH   5  21
ATOM     21  S   UNL     1     -14.637   5.497  23.191  0.00  0.00    +0.000 S 
BRANCH  21  22
ATOM     22  C   UNL     1     -14.684   5.745  21.395  0.00  0.00    +0.000 C 
BRANCH  22  24
ATOM     23 CL   UNL     1     -10.454   9.646  19.557  0.00  0.00    +0.000 Cl
ATOM     24  C   UNL     1     -13.627   6.725  20.938  0.00  0.00    +0.000 A 
ATOM     25  C   UNL     1     -12.265   6.441  21.117  0.00  0.00    +0.000 A 
ATOM     26  C   UNL     1     -13.989   7.948  20.344  0.00  0.00    +0.000 A 
ATOM     27  C   UNL     1     -11.285   7.342  20.692  0.00  0.00    +0.000 A 
ATOM     28  C   UNL     1     -13.009   8.849  19.920  0.00  0.00    +0.000 A 
ATOM     29  C   UNL     1     -11.660   8.540  20.092  0.00  0.00    +0.000 A 
ENDBRANCH  22  24
ENDBRANCH  21  22
ENDBRANCH   5  21
TORSDOF 7
ENDMDL
MODEL 3
REMARK VINA RESULT:      -5.4     23.411     26.913
REMARK  Name = 9637149
REMARK  7 active torsions:
REMARK  status: ('A' for Active; 'I' for Inactive)
REMARK    1  A    between atoms: S_4  and  C_11
REMARK    2  A    between atoms: S_4  and  C_14
REMARK    3  A    between atoms: O_6  and  N_9
REMARK    4  A    between atoms: O_6  and  C_21
REMARK    5  A    between atoms: C_10  and  C_16
REMARK    6  A    between atoms: C_14  and  C_15
REMARK    7  A    between atoms: C_20  and  C_21
REMARK                            x       y       z     vdW  Elec       q    Type
REMARK                         _______ _______ _______ _____ _____    ______ ____
ROOT
ATOM      1  S   UNL     1     -18.620   4.854  19.799  0.00  0.00    +0.000 S 
ATOM      2  N   UNL     1     -16.305   5.686  20.523  0.00  0.00    +0.000 N 
ATOM      3  N   UNL     1     -17.064   4.261  22.062  0.00  0.00    +0.000 NA
ATOM      4  C   UNL     1     -15.331   5.667  21.487  0.00  0.00    +0.000 A 
ATOM      5  C   UNL     1     -15.837   4.779  22.438  0.00  0.00    +0.000 A 
ATOM      6  C   UNL     1     -17.298   4.848  20.925  0.00  0.00    +0.000 A 
ATOM      7  C   UNL     1     -16.537   6.354  19.338  0.00  0.00    +0.000 A 
ATOM      8  C   UNL     1     -17.734   6.033  18.816  0.00  0.00    +0.000 A 
ENDROOT
BRANCH   4  10
ATOM      9  N   UNL     1     -14.116   7.650  21.948  0.00  0.00    +0.000 NA
ATOM     10  C   UNL     1     -14.144   6.465  21.439  0.00  0.00    +0.000 C 
BRANCH   9  11
ATOM     11  O   UNL     1     -12.874   8.250  21.681  0.00  0.00    +0.000 OA
BRANCH  11  12
ATOM     12  C   UNL     1     -12.164   7.389  20.785  0.00  0.00    +0.000 C 
BRANCH  12  15
ATOM     13 CL   UNL     1     -12.608   8.405  15.718  0.00  0.00    +0.000 Cl
ATOM     14 CL   UNL     1     -10.149  10.516  16.011  0.00  0.00    +0.000 Cl
ATOM     15  C   UNL     1     -11.635   8.150  19.592  0.00  0.00    +0.000 A 
ATOM     16  C   UNL     1     -12.244   7.975  18.339  0.00  0.00    +0.000 A 
ATOM     17  C   UNL     1     -10.597   9.083  19.712  0.00  0.00    +0.000 A 
ATOM     18  C   UNL     1     -11.804   8.691  17.220  0.00  0.00    +0.000 A 
ATOM     19  C   UNL     1     -10.153   9.798  18.596  0.00  0.00    +0.000 A 
ATOM     20  C   UNL     1     -10.751   9.602  17.348  0.00  0.00    +0.000 A 
ENDBRANCH  12  15
ENDBRANCH  11  12
ENDBRANCH   9  11
ENDBRANCH   4  10
BRANCH   5  21
ATOM     21  S   UNL     1     -15.088   4.331  23.959  0.00  0.00    +0.000 S 
BRANCH  21  22
ATOM     22  C   UNL     1     -16.112   2.921  24.460  0.00  0.00    +0.000 C 
BRANCH  22  24
ATOM     23 CL   UNL     1     -18.857   3.945  29.744  0.00  0.00    +0.000 Cl
ATOM     24  C   UNL     1     -16.802   3.173  25.783  0.00  0.00    +0.000 A 
ATOM     25  C   UNL     1     -16.088   3.094  26.988  0.00  0.00    +0.000 A 
ATOM     26  C   UNL     1     -18.176   3.472  25.831  0.00  0.00    +0.000 A 
ATOM     27  C   UNL     1     -16.722   3.331  28.211  0.00  0.00    +0.000 A 
ATOM     28  C   UNL     1     -18.810   3.708  27.054  0.00  0.00    +0.000 A 
ATOM     29  C   UNL     1     -18.078   3.641  28.239  0.00  0.00    +0.000 A 
ENDBRANCH  22  24
ENDBRANCH  21  22
ENDBRANCH   5  21
TORSDOF 7
ENDMDL
MODEL 4
REMARK VINA RESULT:      -5.3     29.914     31.686
REMARK  Name = 9637149
REMARK  7 active torsions:
REMARK  status: ('A' for Active; 'I' for Inactive)
REMARK    1  A    between atoms: S_4  and  C_11
REMARK    2  A    between atoms: S_4  and  C_14
REMARK    3  A    between atoms: O_6  and  N_9
REMARK    4  A    between atoms: O_6  and  C_21
REMARK    5  A    between atoms: C_10  and  C_16
REMARK    6  A    between atoms: C_14  and  C_15
REMARK    7  A    between atoms: C_20  and  C_21
REMARK                            x       y       z     vdW  Elec       q    Type
REMARK                         _______ _______ _______ _____ _____    ______ ____
ROOT
ATOM      1  S   UNL     1     -16.174  -8.726  15.006  0.00  0.00    +0.000 S 
ATOM      2  N   UNL     1     -13.778  -7.978  15.531  0.00  0.00    +0.000 N 
ATOM      3  N   UNL     1     -14.587  -6.689  13.899  0.00  0.00    +0.000 NA
ATOM      4  C   UNL     1     -12.743  -7.140  15.206  0.00  0.00    +0.000 A 
ATOM      5  C   UNL     1     -13.273  -6.357  14.180  0.00  0.00    +0.000 A 
ATOM      6  C   UNL     1     -14.827  -7.669  14.721  0.00  0.00    +0.000 A 
ATOM      7  C   UNL     1     -13.986  -9.036  16.390  0.00  0.00    +0.000 A 
ATOM      8  C   UNL     1     -15.215  -9.561  16.240  0.00  0.00    +0.000 A 
ENDROOT
BRANCH   4  10
ATOM      9  N   UNL     1     -10.525  -7.967  15.346  0.00  0.00    +0.000 NA
ATOM     10  C   UNL     1     -11.449  -7.197  15.814  0.00  0.00    +0.000 C 
BRANCH   9  11
ATOM     11  O   UNL     1      -9.395  -7.909  16.178  0.00  0.00    +0.000 OA
BRANCH  11  12
ATOM     12  C   UNL     1      -9.676  -8.694  17.341  0.00  0.00    +0.000 C 
BRANCH  12  15
ATOM     13 CL   UNL     1      -4.724  -9.966  16.469  0.00  0.00    +0.000 Cl
ATOM     14 CL   UNL     1      -4.984 -12.233  18.789  0.00  0.00    +0.000 Cl
ATOM     15  C   UNL     1      -8.519  -9.602  17.687  0.00  0.00    +0.000 A 
ATOM     16  C   UNL     1      -7.293  -9.438  17.022  0.00  0.00    +0.000 A 
ATOM     17  C   UNL     1      -8.611 -10.561  18.704  0.00  0.00    +0.000 A 
ATOM     18  C   UNL     1      -6.189 -10.236  17.343  0.00  0.00    +0.000 A 
ATOM     19  C   UNL     1      -7.511 -11.362  19.024  0.00  0.00    +0.000 A 
ATOM     20  C   UNL     1      -6.300 -11.206  18.344  0.00  0.00    +0.000 A 
ENDBRANCH  12  15
ENDBRANCH  11  12
ENDBRANCH   9  11
ENDBRANCH   4  10
BRANCH   5  21
ATOM     21  S   UNL     1     -12.443  -5.097  13.285  0.00  0.00    +0.000 S 
BRANCH  21  22
ATOM     22  C   UNL     1     -13.733  -3.826  13.177  0.00  0.00    +0.000 C 
BRANCH  22  24
ATOM     23 CL   UNL     1     -14.899  -2.297   7.450  0.00  0.00    +0.000 Cl
ATOM     24  C   UNL     1     -14.025  -3.448  11.741  0.00  0.00    +0.000 A 
ATOM     25  C   UNL     1     -15.205  -2.766  11.409  0.00  0.00    +0.000 A 
ATOM     26  C   UNL     1     -13.130  -3.790  10.711  0.00  0.00    +0.000 A 
ATOM     27  C   UNL     1     -15.476  -2.412  10.084  0.00  0.00    +0.000 A 
ATOM     28  C   UNL     1     -13.402  -3.436   9.387  0.00  0.00    +0.000 A 
ATOM     29  C   UNL     1     -14.572  -2.744   9.080  0.00  0.00    +0.000 A 
ENDBRANCH  22  24
ENDBRANCH  21  22
ENDBRANCH   5  21
TORSDOF 7
ENDMDL
MODEL 5
REMARK VINA RESULT:      -5.3     16.768     20.383
REMARK  Name = 9637149
REMARK  7 active torsions:
REMARK  status: ('A' for Active; 'I' for Inactive)
REMARK    1  A    between atoms: S_4  and  C_11
REMARK    2  A    between atoms: S_4  and  C_14
REMARK    3  A    between atoms: O_6  and  N_9
REMARK    4  A    between atoms: O_6  and  C_21
REMARK    5  A    between atoms: C_10  and  C_16
REMARK    6  A    between atoms: C_14  and  C_15
REMARK    7  A    between atoms: C_20  and  C_21
REMARK                            x       y       z     vdW  Elec       q    Type
REMARK                         _______ _______ _______ _____ _____    ______ ____
ROOT
ATOM      1  S   UNL     1      -0.203   8.197  39.684  0.00  0.00    +0.000 S 
ATOM      2  N   UNL     1      -2.050   8.781  38.003  0.00  0.00    +0.000 N 
ATOM      3  N   UNL     1      -0.402  10.271  37.799  0.00  0.00    +0.000 NA
ATOM      4  C   UNL     1      -2.490   9.655  37.044  0.00  0.00    +0.000 A 
ATOM      5  C   UNL     1      -1.448  10.578  36.947  0.00  0.00    +0.000 A 
ATOM      6  C   UNL     1      -0.823   9.203  38.412  0.00  0.00    +0.000 A 
ATOM      7  C   UNL     1      -2.542   7.671  38.659  0.00  0.00    +0.000 A 
ATOM      8  C   UNL     1      -1.686   7.230  39.597  0.00  0.00    +0.000 A 
ENDROOT
BRANCH   4  10
ATOM      9  N   UNL     1      -4.428  10.625  36.081  0.00  0.00    +0.000 NA
ATOM     10  C   UNL     1      -3.769   9.565  36.409  0.00  0.00    +0.000 C 
BRANCH   9  11
ATOM     11  O   UNL     1      -5.684  10.262  35.569  0.00  0.00    +0.000 OA
BRANCH  11  12
ATOM     12  C   UNL     1      -6.342   9.468  36.564  0.00  0.00    +0.000 C 
BRANCH  12  15
ATOM     13 CL   UNL     1     -10.833   7.194  37.813  0.00  0.00    +0.000 Cl
ATOM     14 CL   UNL     1     -12.273   8.947  35.480  0.00  0.00    +0.000 Cl
ATOM     15  C   UNL     1      -7.815   9.321  36.266  0.00  0.00    +0.000 A 
ATOM     16  C   UNL     1      -8.589   8.440  37.040  0.00  0.00    +0.000 A 
ATOM     17  C   UNL     1      -8.452  10.092  35.285  0.00  0.00    +0.000 A 
ATOM     18  C   UNL     1      -9.964   8.306  36.817  0.00  0.00    +0.000 A 
ATOM     19  C   UNL     1      -9.824   9.958  35.057  0.00  0.00    +0.000 A 
ATOM     20  C   UNL     1     -10.583   9.065  35.818  0.00  0.00    +0.000 A 
ENDBRANCH  12  15
ENDBRANCH  11  12
ENDBRANCH   9  11
ENDBRANCH   4  10
BRANCH   5  21
ATOM     21  S   UNL     1      -1.393  11.994  35.914  0.00  0.00    +0.000 S 
BRANCH  21  22
ATOM     22  C   UNL     1       0.011  11.598  34.838  0.00  0.00    +0.000 C 
BRANCH  22  24
ATOM     23 CL   UNL     1       2.170  16.517  32.074  0.00  0.00    +0.000 Cl
ATOM     24  C   UNL     1       0.548  12.830  34.143  0.00  0.00    +0.000 A 
ATOM     25  C   UNL     1       0.704  14.034  34.844  0.00  0.00    +0.000 A 
ATOM     26  C   UNL     1       0.881  12.796  32.776  0.00  0.00    +0.000 A 
ATOM     27  C   UNL     1       1.203  15.173  34.206  0.00  0.00    +0.000 A 
ATOM     28  C   UNL     1       1.379  13.936  32.138  0.00  0.00    +0.000 A 
ATOM     29  C   UNL     1       1.543  15.119  32.858  0.00  0.00    +0.000 A 
ENDBRANCH  22  24
ENDBRANCH  21  22
ENDBRANCH   5  21
TORSDOF 7
ENDMDL
MODEL 6
REMARK VINA RESULT:      -5.3     29.827     31.382
REMARK  Name = 9637149
REMARK  7 active torsions:
REMARK  status: ('A' for Active; 'I' for Inactive)
REMARK    1  A    between atoms: S_4  and  C_11
REMARK    2  A    between atoms: S_4  and  C_14
REMARK    3  A    between atoms: O_6  and  N_9
REMARK    4  A    between atoms: O_6  and  C_21
REMARK    5  A    between atoms: C_10  and  C_16
REMARK    6  A    between atoms: C_14  and  C_15
REMARK    7  A    between atoms: C_20  and  C_21
REMARK                            x       y       z     vdW  Elec       q    Type
REMARK                         _______ _______ _______ _____ _____    ______ ____
ROOT
ATOM      1  S   UNL     1      -4.123 -17.107  15.736  0.00  0.00    +0.000 S 
ATOM      2  N   UNL     1      -3.878 -14.685  14.928  0.00  0.00    +0.000 N 
ATOM      3  N   UNL     1      -4.892 -14.676  16.915  0.00  0.00    +0.000 NA
ATOM      4  C   UNL     1      -4.145 -13.364  15.174  0.00  0.00    +0.000 A 
ATOM      5  C   UNL     1      -4.787 -13.391  16.413  0.00  0.00    +0.000 A 
ATOM      6  C   UNL     1      -4.350 -15.404  15.982  0.00  0.00    +0.000 A 
ATOM      7  C   UNL     1      -3.330 -15.429  13.904  0.00  0.00    +0.000 A 
ATOM      8  C   UNL     1      -3.383 -16.747  14.166  0.00  0.00    +0.000 A 
ENDROOT
BRANCH   4  10
ATOM      9  N   UNL     1      -2.934 -11.427  14.538  0.00  0.00    +0.000 NA
ATOM     10  C   UNL     1      -3.839 -12.305  14.262  0.00  0.00    +0.000 C 
BRANCH   9  11
ATOM     11  O   UNL     1      -2.900 -10.449  13.531  0.00  0.00    +0.000 OA
BRANCH  11  12
ATOM     12  C   UNL     1      -2.214 -11.012  12.407  0.00  0.00    +0.000 C 
BRANCH  12  15
ATOM     13 CL   UNL     1      -5.008 -13.000   8.515  0.00  0.00    +0.000 Cl
ATOM     14 CL   UNL     1      -5.316  -9.992   7.311  0.00  0.00    +0.000 Cl
ATOM     15  C   UNL     1      -2.960 -10.754  11.120  0.00  0.00    +0.000 A 
ATOM     16  C   UNL     1      -3.569 -11.827  10.449  0.00  0.00    +0.000 A 
ATOM     17  C   UNL     1      -3.125  -9.460  10.608  0.00  0.00    +0.000 A 
ATOM     18  C   UNL     1      -4.299 -11.619   9.274  0.00  0.00    +0.000 A 
ATOM     19  C   UNL     1      -3.851  -9.249   9.433  0.00  0.00    +0.000 A 
ATOM     20  C   UNL     1      -4.437 -10.325   8.761  0.00  0.00    +0.000 A 
ENDBRANCH  12  15
ENDBRANCH  11  12
ENDBRANCH   9  11
ENDBRANCH   4  10
BRANCH   5  21
ATOM     21  S   UNL     1      -5.431 -12.016  17.291  0.00  0.00    +0.000 S 
BRANCH  21  22
ATOM     22  C   UNL     1      -7.216 -12.292  17.129  0.00  0.00    +0.000 C 
BRANCH  22  24
ATOM     23 CL   UNL     1     -10.139  -7.172  15.810  0.00  0.00    +0.000 Cl
ATOM     24  C   UNL     1      -7.951 -11.013  16.796  0.00  0.00    +0.000 A 
ATOM     25  C   UNL     1      -8.514 -10.227  17.813  0.00  0.00    +0.000 A 
ATOM     26  C   UNL     1      -8.102 -10.597  15.460  0.00  0.00    +0.000 A 
ATOM     27  C   UNL     1      -9.191  -9.043  17.509  0.00  0.00    +0.000 A 
ATOM     28  C   UNL     1      -8.779  -9.412  15.157  0.00  0.00    +0.000 A 
ATOM     29  C   UNL     1      -9.317  -8.638  16.184  0.00  0.00    +0.000 A 
ENDBRANCH  22  24
ENDBRANCH  21  22
ENDBRANCH   5  21
TORSDOF 7
ENDMDL
MODEL 7
REMARK VINA RESULT:      -5.2     29.892     32.411
REMARK  Name = 9637149
REMARK  7 active torsions:
REMARK  status: ('A' for Active; 'I' for Inactive)
REMARK    1  A    between atoms: S_4  and  C_11
REMARK    2  A    between atoms: S_4  and  C_14
REMARK    3  A    between atoms: O_6  and  N_9
REMARK    4  A    between atoms: O_6  and  C_21
REMARK    5  A    between atoms: C_10  and  C_16
REMARK    6  A    between atoms: C_14  and  C_15
REMARK    7  A    between atoms: C_20  and  C_21
REMARK                            x       y       z     vdW  Elec       q    Type
REMARK                         _______ _______ _______ _____ _____    ______ ____
ROOT
ATOM      1  S   UNL     1     -10.985 -12.457  12.969  0.00  0.00    +0.000 S 
ATOM      2  N   UNL     1     -11.761 -10.121  13.689  0.00  0.00    +0.000 N 
ATOM      3  N   UNL     1      -9.790 -10.544  14.644  0.00  0.00    +0.000 NA
ATOM      4  C   UNL     1     -11.504  -9.015  14.457  0.00  0.00    +0.000 A 
ATOM      5  C   UNL     1     -10.275  -9.313  15.048  0.00  0.00    +0.000 A 
ATOM      6  C   UNL     1     -10.722 -10.984  13.851  0.00  0.00    +0.000 A 
ATOM      7  C   UNL     1     -12.785 -10.572  12.882  0.00  0.00    +0.000 A 
ATOM      8  C   UNL     1     -12.539 -11.809  12.415  0.00  0.00    +0.000 A 
ENDROOT
BRANCH   4  10
ATOM      9  N   UNL     1     -12.349  -6.912  13.761  0.00  0.00    +0.000 NA
ATOM     10  C   UNL     1     -12.398  -7.906  14.583  0.00  0.00    +0.000 C 
BRANCH   9  11
ATOM     11  O   UNL     1     -13.259  -5.920  14.163  0.00  0.00    +0.000 OA
BRANCH  11  12
ATOM     12  C   UNL     1     -12.655  -4.649  13.897  0.00  0.00    +0.000 C 
BRANCH  12  15
ATOM     13 CL   UNL     1     -11.710  -3.403   8.952  0.00  0.00    +0.000 Cl
ATOM     14 CL   UNL     1     -14.779  -2.348   8.718  0.00  0.00    +0.000 Cl
ATOM     15  C   UNL     1     -13.183  -4.045  12.618  0.00  0.00    +0.000 A 
ATOM     16  C   UNL     1     -12.346  -3.975  11.493  0.00  0.00    +0.000 A 
ATOM     17  C   UNL     1     -14.511  -3.615  12.496  0.00  0.00    +0.000 A 
ATOM     18  C   UNL     1     -12.813  -3.456  10.280  0.00  0.00    +0.000 A 
ATOM     19  C   UNL     1     -14.980  -3.093  11.288  0.00  0.00    +0.000 A 
ATOM     20  C   UNL     1     -14.134  -3.008  10.178  0.00  0.00    +0.000 A 
ENDBRANCH  12  15
ENDBRANCH  11  12
ENDBRANCH   9  11
ENDBRANCH   4  10
BRANCH   5  21
ATOM     21  S   UNL     1      -9.391  -8.317  16.190  0.00  0.00    +0.000 S 
BRANCH  21  22
ATOM     22  C   UNL     1      -9.168  -9.470  17.572  0.00  0.00    +0.000 C 
BRANCH  22  24
ATOM     23 CL   UNL     1      -3.437 -11.328  18.011  0.00  0.00    +0.000 Cl
ATOM     24  C   UNL     1      -7.734  -9.940  17.682  0.00  0.00    +0.000 A 
ATOM     25  C   UNL     1      -6.843  -9.771  16.612  0.00  0.00    +0.000 A 
ATOM     26  C   UNL     1      -7.274 -10.573  18.851  0.00  0.00    +0.000 A 
ATOM     27  C   UNL     1      -5.517 -10.200  16.712  0.00  0.00    +0.000 A 
ATOM     28  C   UNL     1      -5.947 -11.003  18.951  0.00  0.00    +0.000 A 
ATOM     29  C   UNL     1      -5.073 -10.810  17.881  0.00  0.00    +0.000 A 
ENDBRANCH  22  24
ENDBRANCH  21  22
ENDBRANCH   5  21
TORSDOF 7
ENDMDL
MODEL 8
REMARK VINA RESULT:      -5.2     24.557     27.501
REMARK  Name = 9637149
REMARK  7 active torsions:
REMARK  status: ('A' for Active; 'I' for Inactive)
REMARK    1  A    between atoms: S_4  and  C_11
REMARK    2  A    between atoms: S_4  and  C_14
REMARK    3  A    between atoms: O_6  and  N_9
REMARK    4  A    between atoms: O_6  and  C_21
REMARK    5  A    between atoms: C_10  and  C_16
REMARK    6  A    between atoms: C_14  and  C_15
REMARK    7  A    between atoms: C_20  and  C_21
REMARK                            x       y       z     vdW  Elec       q    Type
REMARK                         _______ _______ _______ _____ _____    ______ ____
ROOT
ATOM      1  S   UNL     1     -20.790   3.210  18.421  0.00  0.00    +0.000 S 
ATOM      2  N   UNL     1     -18.812   4.138  19.764  0.00  0.00    +0.000 N 
ATOM      3  N   UNL     1     -19.516   5.713  18.349  0.00  0.00    +0.000 NA
ATOM      4  C   UNL     1     -17.955   5.190  19.962  0.00  0.00    +0.000 A 
ATOM      5  C   UNL     1     -18.412   6.151  19.059  0.00  0.00    +0.000 A 
ATOM      6  C   UNL     1     -19.698   4.505  18.799  0.00  0.00    +0.000 A 
ATOM      7  C   UNL     1     -18.953   2.850  20.236  0.00  0.00    +0.000 A 
ATOM      8  C   UNL     1     -19.961   2.205  19.623  0.00  0.00    +0.000 A 
ENDROOT
BRANCH   4  10
ATOM      9  N   UNL     1     -17.019   5.376  22.132  0.00  0.00    +0.000 NA
ATOM     10  C   UNL     1     -16.851   5.159  20.871  0.00  0.00    +0.000 C 
BRANCH   9  11
ATOM     11  O   UNL     1     -15.774   5.387  22.781  0.00  0.00    +0.000 OA
BRANCH  11  12
ATOM     12  C   UNL     1     -14.762   5.442  21.769  0.00  0.00    +0.000 C 
BRANCH  12  15
ATOM     13 CL   UNL     1     -10.873   8.316  19.895  0.00  0.00    +0.000 Cl
ATOM     14 CL   UNL     1     -12.021  10.836  21.605  0.00  0.00    +0.000 Cl
ATOM     15  C   UNL     1     -14.066   6.782  21.757  0.00  0.00    +0.000 A 
ATOM     16  C   UNL     1     -12.924   6.958  20.961  0.00  0.00    +0.000 A 
ATOM     17  C   UNL     1     -14.568   7.882  22.466  0.00  0.00    +0.000 A 
ATOM     18  C   UNL     1     -12.275   8.196  20.897  0.00  0.00    +0.000 A 
ATOM     19  C   UNL     1     -13.921   9.119  22.407  0.00  0.00    +0.000 A 
ATOM     20  C   UNL     1     -12.773   9.280  21.627  0.00  0.00    +0.000 A 
ENDBRANCH  12  15
ENDBRANCH  11  12
ENDBRANCH   9  11
ENDBRANCH   4  10
BRANCH   5  21
ATOM     21  S   UNL     1     -17.722   7.738  18.778  0.00  0.00    +0.000 S 
BRANCH  21  22
ATOM     22  C   UNL     1     -16.028   7.310  18.290  0.00  0.00    +0.000 C 
BRANCH  22  24
ATOM     23 CL   UNL     1     -12.420  12.156  18.273  0.00  0.00    +0.000 Cl
ATOM     24  C   UNL     1     -15.125   8.524  18.281  0.00  0.00    +0.000 A 
ATOM     25  C   UNL     1     -15.473   9.678  18.999  0.00  0.00    +0.000 A 
ATOM     26  C   UNL     1     -13.931   8.527  17.537  0.00  0.00    +0.000 A 
ATOM     27  C   UNL     1     -14.639  10.800  18.996  0.00  0.00    +0.000 A 
ATOM     28  C   UNL     1     -13.098   9.649  17.533  0.00  0.00    +0.000 A 
ATOM     29  C   UNL     1     -13.454  10.780  18.268  0.00  0.00    +0.000 A 
ENDBRANCH  22  24
ENDBRANCH  21  22
ENDBRANCH   5  21
TORSDOF 7
ENDMDL
MODEL 9
REMARK VINA RESULT:      -5.2      2.598      3.244
REMARK  Name = 9637149
REMARK  7 active torsions:
REMARK  status: ('A' for Active; 'I' for Inactive)
REMARK    1  A    between atoms: S_4  and  C_11
REMARK    2  A    between atoms: S_4  and  C_14
REMARK    3  A    between atoms: O_6  and  N_9
REMARK    4  A    between atoms: O_6  and  C_21
REMARK    5  A    between atoms: C_10  and  C_16
REMARK    6  A    between atoms: C_14  and  C_15
REMARK    7  A    between atoms: C_20  and  C_21
REMARK                            x       y       z     vdW  Elec       q    Type
REMARK                         _______ _______ _______ _____ _____    ______ ____
ROOT
ATOM      1  S   UNL     1      13.446  18.575  20.865  0.00  0.00    +0.000 S 
ATOM      2  N   UNL     1      12.750  16.154  21.346  0.00  0.00    +0.000 N 
ATOM      3  N   UNL     1      10.909  17.385  21.070  0.00  0.00    +0.000 NA
ATOM      4  C   UNL     1      11.714  15.281  21.554  0.00  0.00    +0.000 A 
ATOM      5  C   UNL     1      10.582  16.079  21.387  0.00  0.00    +0.000 A 
ATOM      6  C   UNL     1      12.211  17.374  21.076  0.00  0.00    +0.000 A 
ATOM      7  C   UNL     1      14.128  16.115  21.397  0.00  0.00    +0.000 A 
ATOM      8  C   UNL     1      14.666  17.325  21.168  0.00  0.00    +0.000 A 
ENDROOT
BRANCH   4  10
ATOM      9  N   UNL     1      11.765  13.515  23.136  0.00  0.00    +0.000 NA
ATOM     10  C   UNL     1      11.889  13.907  21.913  0.00  0.00    +0.000 C 
BRANCH   9  11
ATOM     11  O   UNL     1      12.082  12.150  23.230  0.00  0.00    +0.000 OA
BRANCH  11  12
ATOM     12  C   UNL     1      10.924  11.410  22.828  0.00  0.00    +0.000 C 
BRANCH  12  15
ATOM     13 CL   UNL     1      13.966   9.631  19.023  0.00  0.00    +0.000 Cl
ATOM     14 CL   UNL     1      12.515   6.735  19.330  0.00  0.00    +0.000 Cl
ATOM     15  C   UNL     1      11.294  10.248  21.938  0.00  0.00    +0.000 A 
ATOM     16  C   UNL     1      12.314  10.406  20.986  0.00  0.00    +0.000 A 
ATOM     17  C   UNL     1      10.697   8.988  22.081  0.00  0.00    +0.000 A 
ATOM     18  C   UNL     1      12.708   9.340  20.169  0.00  0.00    +0.000 A 
ATOM     19  C   UNL     1      11.086   7.922  21.265  0.00  0.00    +0.000 A 
ATOM     20  C   UNL     1      12.088   8.094  20.306  0.00  0.00    +0.000 A 
ENDBRANCH  12  15
ENDBRANCH  11  12
ENDBRANCH   9  11
ENDBRANCH   4  10
BRANCH   5  21
ATOM     21  S   UNL     1       8.910  15.577  21.557  0.00  0.00    +0.000 S 
BRANCH  21  22
ATOM     22  C   UNL     1       8.536  16.140  23.240  0.00  0.00    +0.000 C 
BRANCH  22  24
ATOM     23 CL   UNL     1       2.630  17.173  23.981  0.00  0.00    +0.000 Cl
ATOM     24  C   UNL     1       7.057  16.395  23.428  0.00  0.00    +0.000 A 
ATOM     25  C   UNL     1       6.611  17.513  24.148  0.00  0.00    +0.000 A 
ATOM     26  C   UNL     1       6.102  15.505  22.902  0.00  0.00    +0.000 A 
ATOM     27  C   UNL     1       5.245  17.753  24.320  0.00  0.00    +0.000 A 
ATOM     28  C   UNL     1       4.736  15.745  23.075  0.00  0.00    +0.000 A 
ATOM     29  C   UNL     1       4.313  16.872  23.780  0.00  0.00    +0.000 A 
ENDBRANCH  22  24
ENDBRANCH  21  22
ENDBRANCH   5  21
TORSDOF 7
ENDMDL
MODEL 10
REMARK VINA RESULT:      -5.1      7.637     11.253
REMARK  Name = 9637149
REMARK  7 active torsions:
REMARK  status: ('A' for Active; 'I' for Inactive)
REMARK    1  A    between atoms: S_4  and  C_11
REMARK    2  A    between atoms: S_4  and  C_14
REMARK    3  A    between atoms: O_6  and  N_9
REMARK    4  A    between atoms: O_6  and  C_21
REMARK    5  A    between atoms: C_10  and  C_16
REMARK    6  A    between atoms: C_14  and  C_15
REMARK    7  A    between atoms: C_20  and  C_21
REMARK                            x       y       z     vdW  Elec       q    Type
REMARK                         _______ _______ _______ _____ _____    ______ ____
ROOT
ATOM      1  S   UNL     1       1.259  23.671  26.312  0.00  0.00    +0.000 S 
ATOM      2  N   UNL     1       0.339  21.337  25.781  0.00  0.00    +0.000 N 
ATOM      3  N   UNL     1       2.460  21.134  26.443  0.00  0.00    +0.000 NA
ATOM      4  C   UNL     1       0.606  19.996  25.684  0.00  0.00    +0.000 A 
ATOM      5  C   UNL     1       1.937  19.902  26.093  0.00  0.00    +0.000 A 
ATOM      6  C   UNL     1       1.470  21.950  26.222  0.00  0.00    +0.000 A 
ATOM      7  C   UNL     1      -0.719  22.177  25.501  0.00  0.00    +0.000 A 
ATOM      8  C   UNL     1      -0.401  23.464  25.724  0.00  0.00    +0.000 A 
ENDROOT
BRANCH   4  10
ATOM      9  N   UNL     1      -0.151  18.421  24.081  0.00  0.00    +0.000 NA
ATOM     10  C   UNL     1      -0.333  19.028  25.205  0.00  0.00    +0.000 C 
BRANCH   9  11
ATOM     11  O   UNL     1      -1.258  17.604  23.800  0.00  0.00    +0.000 OA
BRANCH  11  12
ATOM     12  C   UNL     1      -0.779  16.261  23.670  0.00  0.00    +0.000 C 
BRANCH  12  15
ATOM     13 CL   UNL     1      -1.412  16.064  18.526  0.00  0.00    +0.000 Cl
ATOM     14 CL   UNL     1       1.774  15.468  18.240  0.00  0.00    +0.000 Cl
ATOM     15  C   UNL     1      -0.140  16.031  22.321  0.00  0.00    +0.000 A 
ATOM     16  C   UNL     1      -0.928  16.117  21.162  0.00  0.00    +0.000 A 
ATOM     17  C   UNL     1       1.236  15.803  22.184  0.00  0.00    +0.000 A 
ATOM     18  C   UNL     1      -0.363  15.946  19.894  0.00  0.00    +0.000 A 
ATOM     19  C   UNL     1       1.803  15.629  20.918  0.00  0.00    +0.000 A 
ATOM     20  C   UNL     1       1.007  15.697  19.771  0.00  0.00    +0.000 A 
ENDBRANCH  12  15
ENDBRANCH  11  12
ENDBRANCH   9  11
ENDBRANCH   4  10
BRANCH   5  21
ATOM     21  S   UNL     1       2.912  18.447  26.165  0.00  0.00    +0.000 S 
BRANCH  21  22
ATOM     22  C   UNL     1       4.505  19.052  25.541  0.00  0.00    +0.000 C 
BRANCH  22  24
ATOM     23 CL   UNL     1       7.269  14.927  22.101  0.00  0.00    +0.000 Cl
ATOM     24  C   UNL     1       5.194  18.021  24.676  0.00  0.00    +0.000 A 
ATOM     25  C   UNL     1       6.568  18.117  24.407  0.00  0.00    +0.000 A 
ATOM     26  C   UNL     1       4.468  16.957  24.109  0.00  0.00    +0.000 A 
ATOM     27  C   UNL     1       7.208  17.163  23.611  0.00  0.00    +0.000 A 
ATOM     28  C   UNL     1       5.109  16.004  23.312  0.00  0.00    +0.000 A 
ATOM     29  C   UNL     1       6.478  16.109  23.071  0.00  0.00    +0.000 A 
ENDBRANCH  22  24
ENDBRANCH  21  22
ENDBRANCH   5  21
TORSDOF 7
ENDMDL
