MODEL 1
REMARK VINA RESULT:      -5.9      0.000      0.000
REMARK  Name = 9637344
REMARK  7 active torsions:
REMARK  status: ('A' for Active; 'I' for Inactive)
REMARK    1  A    between atoms: S_3  and  C_10
REMARK    2  A    between atoms: S_3  and  C_13
REMARK    3  A    between atoms: O_5  and  N_8
REMARK    4  A    between atoms: O_5  and  C_20
REMARK    5  A    between atoms: C_9  and  C_15
REMARK    6  A    between atoms: C_13  and  C_14
REMARK    7  A    between atoms: C_17  and  C_20
REMARK                            x       y       z     vdW  Elec       q    Type
REMARK                         _______ _______ _______ _____ _____    ______ ____
ROOT
ATOM      1  S   UNL     1      14.079  13.885  27.416  0.00  0.00    +0.000 S 
ATOM      2  N   UNL     1      12.529  14.646  25.518  0.00  0.00    +0.000 N 
ATOM      3  N   UNL     1      12.339  12.429  25.750  0.00  0.00    +0.000 NA
ATOM      4  C   UNL     1      11.613  14.270  24.571  0.00  0.00    +0.000 A 
ATOM      5  C   UNL     1      11.546  12.883  24.717  0.00  0.00    +0.000 A 
ATOM      6  C   UNL     1      12.902  13.521  26.191  0.00  0.00    +0.000 A 
ATOM      7  C   UNL     1      13.159  15.807  25.916  0.00  0.00    +0.000 A 
ATOM      8  C   UNL     1      14.027  15.586  26.918  0.00  0.00    +0.000 A 
ENDROOT
BRANCH   4  10
ATOM      9  N   UNL     1       9.837  15.746  24.111  0.00  0.00    +0.000 NA
ATOM     10  C   UNL     1      10.893  15.132  23.686  0.00  0.00    +0.000 C 
BRANCH   9  11
ATOM     11  O   UNL     1       9.227  16.435  23.047  0.00  0.00    +0.000 OA
BRANCH  11  12
ATOM     12  C   UNL     1       8.065  15.695  22.663  0.00  0.00    +0.000 C 
BRANCH  12  15
ATOM     13 CL   UNL     1       2.923  15.382  23.396  0.00  0.00    +0.000 Cl
ATOM     14 CL   UNL     1       3.093  18.185  25.039  0.00  0.00    +0.000 Cl
ATOM     15  C   UNL     1       6.824  16.271  23.298  0.00  0.00    +0.000 A 
ATOM     16  C   UNL     1       5.581  15.642  23.132  0.00  0.00    +0.000 A 
ATOM     17  C   UNL     1       6.884  17.473  24.017  0.00  0.00    +0.000 A 
ATOM     18  C   UNL     1       4.417  16.211  23.664  0.00  0.00    +0.000 A 
ATOM     19  C   UNL     1       5.724  18.041  24.550  0.00  0.00    +0.000 A 
ATOM     20  C   UNL     1       4.488  17.414  24.372  0.00  0.00    +0.000 A 
ENDBRANCH  12  15
ENDBRANCH  11  12
ENDBRANCH   9  11
ENDBRANCH   4  10
BRANCH   5  21
ATOM     21  S   UNL     1      10.586  11.810  23.718  0.00  0.00    +0.000 S 
BRANCH  21  22
ATOM     22  C   UNL     1      11.714  11.448  22.341  0.00  0.00    +0.000 C 
BRANCH  22  23
ATOM     23  C   UNL     1      11.502  10.041  21.817  0.00  0.00    +0.000 A 
ATOM     24  C   UNL     1      10.937   9.053  22.635  0.00  0.00    +0.000 A 
ATOM     25  C   UNL     1      11.896   9.688  20.513  0.00  0.00    +0.000 A 
ATOM     26  C   UNL     1      10.755   7.752  22.164  0.00  0.00    +0.000 A 
ATOM     27  C   UNL     1      11.711   8.385  20.043  0.00  0.00    +0.000 A 
ATOM     28  C   UNL     1      11.141   7.419  20.867  0.00  0.00    +0.000 A 
ENDBRANCH  22  23
ENDBRANCH  21  22
ENDBRANCH   5  21
TORSDOF 7
ENDMDL
MODEL 2
REMARK VINA RESULT:      -5.5     32.604     34.578
REMARK  Name = 9637344
REMARK  7 active torsions:
REMARK  status: ('A' for Active; 'I' for Inactive)
REMARK    1  A    between atoms: S_3  and  C_10
REMARK    2  A    between atoms: S_3  and  C_13
REMARK    3  A    between atoms: O_5  and  N_8
REMARK    4  A    between atoms: O_5  and  C_20
REMARK    5  A    between atoms: C_9  and  C_15
REMARK    6  A    between atoms: C_13  and  C_14
REMARK    7  A    between atoms: C_17  and  C_20
REMARK                            x       y       z     vdW  Elec       q    Type
REMARK                         _______ _______ _______ _____ _____    ______ ____
ROOT
ATOM      1  S   UNL     1      22.099  -7.150   2.602  0.00  0.00    +0.000 S 
ATOM      2  N   UNL     1      20.443  -8.421   1.110  0.00  0.00    +0.000 N 
ATOM      3  N   UNL     1      21.342  -6.753  -0.080  0.00  0.00    +0.000 NA
ATOM      4  C   UNL     1      19.867  -8.521  -0.130  0.00  0.00    +0.000 A 
ATOM      5  C   UNL     1      20.418  -7.449  -0.832  0.00  0.00    +0.000 A 
ATOM      6  C   UNL     1      21.316  -7.375   1.068  0.00  0.00    +0.000 A 
ATOM      7  C   UNL     1      20.342  -9.056   2.330  0.00  0.00    +0.000 A 
ATOM      8  C   UNL     1      21.153  -8.503   3.249  0.00  0.00    +0.000 A 
ENDROOT
BRANCH   4  10
ATOM      9  N   UNL     1      19.330 -10.759  -0.630  0.00  0.00    +0.000 NA
ATOM     10  C   UNL     1      18.947  -9.525  -0.568  0.00  0.00    +0.000 C 
BRANCH   9  11
ATOM     11  O   UNL     1      18.310 -11.544  -1.198  0.00  0.00    +0.000 OA
BRANCH  11  12
ATOM     12  C   UNL     1      18.325 -12.814  -0.538  0.00  0.00    +0.000 C 
BRANCH  12  15
ATOM     13 CL   UNL     1      17.956 -13.481   4.609  0.00  0.00    +0.000 Cl
ATOM     14 CL   UNL     1      14.759 -12.933   4.344  0.00  0.00    +0.000 Cl
ATOM     15  C   UNL     1      17.462 -12.790   0.698  0.00  0.00    +0.000 A 
ATOM     16  C   UNL     1      18.012 -13.067   1.958  0.00  0.00    +0.000 A 
ATOM     17  C   UNL     1      16.085 -12.545   0.600  0.00  0.00    +0.000 A 
ATOM     18  C   UNL     1      17.201 -13.112   3.098  0.00  0.00    +0.000 A 
ATOM     19  C   UNL     1      15.273 -12.589   1.736  0.00  0.00    +0.000 A 
ATOM     20  C   UNL     1      15.827 -12.875   2.987  0.00  0.00    +0.000 A 
ENDBRANCH  12  15
ENDBRANCH  11  12
ENDBRANCH   9  11
ENDBRANCH   4  10
BRANCH   5  21
ATOM     21  S   UNL     1      20.004  -7.001  -2.475  0.00  0.00    +0.000 S 
BRANCH  21  22
ATOM     22  C   UNL     1      18.223  -6.666  -2.350  0.00  0.00    +0.000 C 
BRANCH  22  23
ATOM     23  C   UNL     1      17.945  -5.175  -2.354  0.00  0.00    +0.000 A 
ATOM     24  C   UNL     1      16.767  -4.671  -2.923  0.00  0.00    +0.000 A 
ATOM     25  C   UNL     1      18.875  -4.265  -1.819  0.00  0.00    +0.000 A 
ATOM     26  C   UNL     1      16.513  -3.300  -2.946  0.00  0.00    +0.000 A 
ATOM     27  C   UNL     1      18.617  -2.891  -1.841  0.00  0.00    +0.000 A 
ATOM     28  C   UNL     1      17.439  -2.410  -2.403  0.00  0.00    +0.000 A 
ENDBRANCH  22  23
ENDBRANCH  21  22
ENDBRANCH   5  21
TORSDOF 7
ENDMDL
MODEL 3
REMARK VINA RESULT:      -5.4      7.031      8.526
REMARK  Name = 9637344
REMARK  7 active torsions:
REMARK  status: ('A' for Active; 'I' for Inactive)
REMARK    1  A    between atoms: S_3  and  C_10
REMARK    2  A    between atoms: S_3  and  C_13
REMARK    3  A    between atoms: O_5  and  N_8
REMARK    4  A    between atoms: O_5  and  C_20
REMARK    5  A    between atoms: C_9  and  C_15
REMARK    6  A    between atoms: C_13  and  C_14
REMARK    7  A    between atoms: C_17  and  C_20
REMARK                            x       y       z     vdW  Elec       q    Type
REMARK                         _______ _______ _______ _____ _____    ______ ____
ROOT
ATOM      1  S   UNL     1      19.105  13.162  25.562  0.00  0.00    +0.000 S 
ATOM      2  N   UNL     1      17.380  12.478  23.789  0.00  0.00    +0.000 N 
ATOM      3  N   UNL     1      19.289  11.382  23.388  0.00  0.00    +0.000 NA
ATOM      4  C   UNL     1      17.121  11.710  22.684  0.00  0.00    +0.000 A 
ATOM      5  C   UNL     1      18.337  11.071  22.440  0.00  0.00    +0.000 A 
ATOM      6  C   UNL     1      18.665  12.224  24.167  0.00  0.00    +0.000 A 
ATOM      7  C   UNL     1      16.716  13.416  24.552  0.00  0.00    +0.000 A 
ATOM      8  C   UNL     1      17.491  13.893  25.542  0.00  0.00    +0.000 A 
ENDROOT
BRANCH   4  10
ATOM      9  N   UNL     1      15.812  11.861  20.732  0.00  0.00    +0.000 NA
ATOM     10  C   UNL     1      15.873  11.594  21.996  0.00  0.00    +0.000 C 
BRANCH   9  11
ATOM     11  O   UNL     1      14.476  11.799  20.296  0.00  0.00    +0.000 OA
BRANCH  11  12
ATOM     12  C   UNL     1      14.368  10.697  19.391  0.00  0.00    +0.000 C 
BRANCH  12  15
ATOM     13 CL   UNL     1      10.989   9.268  23.080  0.00  0.00    +0.000 Cl
ATOM     14 CL   UNL     1      10.711   6.400  21.567  0.00  0.00    +0.000 Cl
ATOM     15  C   UNL     1      13.407   9.660  19.916  0.00  0.00    +0.000 A 
ATOM     16  C   UNL     1      12.677   9.893  21.091  0.00  0.00    +0.000 A 
ATOM     17  C   UNL     1      13.270   8.424  19.268  0.00  0.00    +0.000 A 
ATOM     18  C   UNL     1      11.836   8.906  21.617  0.00  0.00    +0.000 A 
ATOM     19  C   UNL     1      12.431   7.437  19.791  0.00  0.00    +0.000 A 
ATOM     20  C   UNL     1      11.714   7.673  20.967  0.00  0.00    +0.000 A 
ENDBRANCH  12  15
ENDBRANCH  11  12
ENDBRANCH   9  11
ENDBRANCH   4  10
BRANCH   5  21
ATOM     21  S   UNL     1      18.659   9.999  21.091  0.00  0.00    +0.000 S 
BRANCH  21  22
ATOM     22  C   UNL     1      18.390   8.359  21.826  0.00  0.00    +0.000 C 
BRANCH  22  23
ATOM     23  C   UNL     1      17.928   7.362  20.782  0.00  0.00    +0.000 A 
ATOM     24  C   UNL     1      18.789   6.351  20.331  0.00  0.00    +0.000 A 
ATOM     25  C   UNL     1      16.641   7.446  20.220  0.00  0.00    +0.000 A 
ATOM     26  C   UNL     1      18.376   5.440  19.358  0.00  0.00    +0.000 A 
ATOM     27  C   UNL     1      16.229   6.531  19.248  0.00  0.00    +0.000 A 
ATOM     28  C   UNL     1      17.094   5.530  18.817  0.00  0.00    +0.000 A 
ENDBRANCH  22  23
ENDBRANCH  21  22
ENDBRANCH   5  21
TORSDOF 7
ENDMDL
MODEL 4
REMARK VINA RESULT:      -5.4     30.219     32.138
REMARK  Name = 9637344
REMARK  7 active torsions:
REMARK  status: ('A' for Active; 'I' for Inactive)
REMARK    1  A    between atoms: S_3  and  C_10
REMARK    2  A    between atoms: S_3  and  C_13
REMARK    3  A    between atoms: O_5  and  N_8
REMARK    4  A    between atoms: O_5  and  C_20
REMARK    5  A    between atoms: C_9  and  C_15
REMARK    6  A    between atoms: C_13  and  C_14
REMARK    7  A    between atoms: C_17  and  C_20
REMARK                            x       y       z     vdW  Elec       q    Type
REMARK                         _______ _______ _______ _____ _____    ______ ____
ROOT
ATOM      1  S   UNL     1     -10.544 -13.369  20.579  0.00  0.00    +0.000 S 
ATOM      2  N   UNL     1      -9.144 -13.710  18.455  0.00  0.00    +0.000 N 
ATOM      3  N   UNL     1      -9.627 -11.534  18.651  0.00  0.00    +0.000 NA
ATOM      4  C   UNL     1      -8.549 -13.118  17.372  0.00  0.00    +0.000 A 
ATOM      5  C   UNL     1      -8.900 -11.774  17.503  0.00  0.00    +0.000 A 
ATOM      6  C   UNL     1      -9.743 -12.723  19.179  0.00  0.00    +0.000 A 
ATOM      7  C   UNL     1      -9.307 -14.987  18.952  0.00  0.00    +0.000 A 
ATOM      8  C   UNL     1     -10.037 -14.993  20.081  0.00  0.00    +0.000 A 
ENDROOT
BRANCH   4  10
ATOM      9  N   UNL     1      -6.453 -13.781  16.526  0.00  0.00    +0.000 NA
ATOM     10  C   UNL     1      -7.739 -13.759  16.383  0.00  0.00    +0.000 C 
BRANCH   9  11
ATOM     11  O   UNL     1      -5.858 -14.350  15.385  0.00  0.00    +0.000 OA
BRANCH  11  12
ATOM     12  C   UNL     1      -4.491 -13.929  15.355  0.00  0.00    +0.000 C 
BRANCH  12  15
ATOM     13 CL   UNL     1      -1.578 -10.018  13.543  0.00  0.00    +0.000 Cl
ATOM     14 CL   UNL     1      -3.799  -9.587  11.204  0.00  0.00    +0.000 Cl
ATOM     15  C   UNL     1      -4.273 -12.880  14.295  0.00  0.00    +0.000 A 
ATOM     16  C   UNL     1      -3.150 -12.040  14.343  0.00  0.00    +0.000 A 
ATOM     17  C   UNL     1      -5.217 -12.689  13.276  0.00  0.00    +0.000 A 
ATOM     18  C   UNL     1      -2.979 -11.021  13.399  0.00  0.00    +0.000 A 
ATOM     19  C   UNL     1      -5.047 -11.674  12.331  0.00  0.00    +0.000 A 
ATOM     20  C   UNL     1      -3.931 -10.835  12.392  0.00  0.00    +0.000 A 
ENDBRANCH  12  15
ENDBRANCH  11  12
ENDBRANCH   9  11
ENDBRANCH   4  10
BRANCH   5  21
ATOM     21  S   UNL     1      -8.491 -10.509  16.361  0.00  0.00    +0.000 S 
BRANCH  21  22
ATOM     22  C   UNL     1      -7.386  -9.446  17.336  0.00  0.00    +0.000 C 
BRANCH  22  23
ATOM     23  C   UNL     1      -6.244 -10.246  17.932  0.00  0.00    +0.000 A 
ATOM     24  C   UNL     1      -6.289 -10.664  19.270  0.00  0.00    +0.000 A 
ATOM     25  C   UNL     1      -5.104 -10.558  17.169  0.00  0.00    +0.000 A 
ATOM     26  C   UNL     1      -5.234 -11.385  19.830  0.00  0.00    +0.000 A 
ATOM     27  C   UNL     1      -4.050 -11.283  17.732  0.00  0.00    +0.000 A 
ATOM     28  C   UNL     1      -4.115 -11.696  19.059  0.00  0.00    +0.000 A 
ENDBRANCH  22  23
ENDBRANCH  21  22
ENDBRANCH   5  21
TORSDOF 7
ENDMDL
MODEL 5
REMARK VINA RESULT:      -5.4     21.076     23.080
REMARK  Name = 9637344
REMARK  7 active torsions:
REMARK  status: ('A' for Active; 'I' for Inactive)
REMARK    1  A    between atoms: S_3  and  C_10
REMARK    2  A    between atoms: S_3  and  C_13
REMARK    3  A    between atoms: O_5  and  N_8
REMARK    4  A    between atoms: O_5  and  C_20
REMARK    5  A    between atoms: C_9  and  C_15
REMARK    6  A    between atoms: C_13  and  C_14
REMARK    7  A    between atoms: C_17  and  C_20
REMARK                            x       y       z     vdW  Elec       q    Type
REMARK                         _______ _______ _______ _____ _____    ______ ____
ROOT
ATOM      1  S   UNL     1       1.966  15.437   8.447  0.00  0.00    +0.000 S 
ATOM      2  N   UNL     1       1.156  14.028   6.461  0.00  0.00    +0.000 N 
ATOM      3  N   UNL     1      -0.547  14.301   7.885  0.00  0.00    +0.000 NA
ATOM      4  C   UNL     1       0.105  13.364   5.885  0.00  0.00    +0.000 A 
ATOM      5  C   UNL     1      -0.926  13.521   6.812  0.00  0.00    +0.000 A 
ATOM      6  C   UNL     1       0.702  14.575   7.624  0.00  0.00    +0.000 A 
ATOM      7  C   UNL     1       2.492  14.243   6.191  0.00  0.00    +0.000 A 
ATOM      8  C   UNL     1       3.084  14.972   7.152  0.00  0.00    +0.000 A 
ENDROOT
BRANCH   4  10
ATOM      9  N   UNL     1       0.212  11.419   4.560  0.00  0.00    +0.000 NA
ATOM     10  C   UNL     1       0.100  12.707   4.615  0.00  0.00    +0.000 C 
BRANCH   9  11
ATOM     11  O   UNL     1       0.305  11.007   3.219  0.00  0.00    +0.000 OA
BRANCH  11  12
ATOM     12  C   UNL     1      -0.422   9.782   3.092  0.00  0.00    +0.000 C 
BRANCH  12  15
ATOM     13 CL   UNL     1      -5.328  10.250   1.422  0.00  0.00    +0.000 Cl
ATOM     14 CL   UNL     1      -4.232   9.767  -1.603  0.00  0.00    +0.000 Cl
ATOM     15  C   UNL     1      -1.379   9.839   1.928  0.00  0.00    +0.000 A 
ATOM     16  C   UNL     1      -2.752  10.035   2.142  0.00  0.00    +0.000 A 
ATOM     17  C   UNL     1      -0.919   9.642   0.618  0.00  0.00    +0.000 A 
ATOM     18  C   UNL     1      -3.651  10.022   1.069  0.00  0.00    +0.000 A 
ATOM     19  C   UNL     1      -1.815   9.630  -0.454  0.00  0.00    +0.000 A 
ATOM     20  C   UNL     1      -3.182   9.816  -0.232  0.00  0.00    +0.000 A 
ENDBRANCH  12  15
ENDBRANCH  11  12
ENDBRANCH   9  11
ENDBRANCH   4  10
BRANCH   5  21
ATOM     21  S   UNL     1      -2.525  12.817   6.670  0.00  0.00    +0.000 S 
BRANCH  21  22
ATOM     22  C   UNL     1      -2.272  11.142   7.328  0.00  0.00    +0.000 C 
BRANCH  22  23
ATOM     23  C   UNL     1      -2.938  10.103   6.447  0.00  0.00    +0.000 A 
ATOM     24  C   UNL     1      -4.241  10.303   5.969  0.00  0.00    +0.000 A 
ATOM     25  C   UNL     1      -2.278   8.906   6.116  0.00  0.00    +0.000 A 
ATOM     26  C   UNL     1      -4.865   9.343   5.172  0.00  0.00    +0.000 A 
ATOM     27  C   UNL     1      -2.905   7.947   5.316  0.00  0.00    +0.000 A 
ATOM     28  C   UNL     1      -4.196   8.165   4.844  0.00  0.00    +0.000 A 
ENDBRANCH  22  23
ENDBRANCH  21  22
ENDBRANCH   5  21
TORSDOF 7
ENDMDL
MODEL 6
REMARK VINA RESULT:      -5.4      1.808      2.228
REMARK  Name = 9637344
REMARK  7 active torsions:
REMARK  status: ('A' for Active; 'I' for Inactive)
REMARK    1  A    between atoms: S_3  and  C_10
REMARK    2  A    between atoms: S_3  and  C_13
REMARK    3  A    between atoms: O_5  and  N_8
REMARK    4  A    between atoms: O_5  and  C_20
REMARK    5  A    between atoms: C_9  and  C_15
REMARK    6  A    between atoms: C_13  and  C_14
REMARK    7  A    between atoms: C_17  and  C_20
REMARK                            x       y       z     vdW  Elec       q    Type
REMARK                         _______ _______ _______ _____ _____    ______ ____
ROOT
ATOM      1  S   UNL     1      14.466  12.696  25.968  0.00  0.00    +0.000 S 
ATOM      2  N   UNL     1      12.745  13.530  24.257  0.00  0.00    +0.000 N 
ATOM      3  N   UNL     1      13.270  11.411  23.767  0.00  0.00    +0.000 NA
ATOM      4  C   UNL     1      11.991  13.226  23.154  0.00  0.00    +0.000 A 
ATOM      5  C   UNL     1      12.369  11.916  22.853  0.00  0.00    +0.000 A 
ATOM      6  C   UNL     1      13.459  12.415  24.580  0.00  0.00    +0.000 A 
ATOM      7  C   UNL     1      12.976  14.630  25.057  0.00  0.00    +0.000 A 
ATOM      8  C   UNL     1      13.875  14.366  26.021  0.00  0.00    +0.000 A 
ENDROOT
BRANCH   4  10
ATOM      9  N   UNL     1       9.769  13.886  22.737  0.00  0.00    +0.000 NA
ATOM     10  C   UNL     1      11.030  14.070  22.514  0.00  0.00    +0.000 C 
BRANCH   9  11
ATOM     11  O   UNL     1       9.012  14.742  21.917  0.00  0.00    +0.000 OA
BRANCH  11  12
ATOM     12  C   UNL     1       9.171  16.073  22.418  0.00  0.00    +0.000 C 
BRANCH  12  15
ATOM     13 CL   UNL     1       4.068  15.455  23.219  0.00  0.00    +0.000 Cl
ATOM     14 CL   UNL     1       4.135  18.148  25.044  0.00  0.00    +0.000 Cl
ATOM     15  C   UNL     1       7.918  16.542  23.112  0.00  0.00    +0.000 A 
ATOM     16  C   UNL     1       6.704  15.865  22.926  0.00  0.00    +0.000 A 
ATOM     17  C   UNL     1       7.935  17.696  23.909  0.00  0.00    +0.000 A 
ATOM     18  C   UNL     1       5.525  16.337  23.515  0.00  0.00    +0.000 A 
ATOM     19  C   UNL     1       6.760  18.168  24.499  0.00  0.00    +0.000 A 
ATOM     20  C   UNL     1       5.552  17.494  24.301  0.00  0.00    +0.000 A 
ENDBRANCH  12  15
ENDBRANCH  11  12
ENDBRANCH   9  11
ENDBRANCH   4  10
BRANCH   5  21
ATOM     21  S   UNL     1      11.793  10.992  21.480  0.00  0.00    +0.000 S 
BRANCH  21  22
ATOM     22  C   UNL     1      13.221  11.035  20.357  0.00  0.00    +0.000 C 
BRANCH  22  23
ATOM     23  C   UNL     1      13.196   9.863  19.396  0.00  0.00    +0.000 A 
ATOM     24  C   UNL     1      12.054   9.057  19.284  0.00  0.00    +0.000 A 
ATOM     25  C   UNL     1      14.325   9.539  18.621  0.00  0.00    +0.000 A 
ATOM     26  C   UNL     1      12.031   7.967  18.413  0.00  0.00    +0.000 A 
ATOM     27  C   UNL     1      14.298   8.448  17.749  0.00  0.00    +0.000 A 
ATOM     28  C   UNL     1      13.154   7.663  17.645  0.00  0.00    +0.000 A 
ENDBRANCH  22  23
ENDBRANCH  21  22
ENDBRANCH   5  21
TORSDOF 7
ENDMDL
MODEL 7
REMARK VINA RESULT:      -5.3      6.733      9.201
REMARK  Name = 9637344
REMARK  7 active torsions:
REMARK  status: ('A' for Active; 'I' for Inactive)
REMARK    1  A    between atoms: S_3  and  C_10
REMARK    2  A    between atoms: S_3  and  C_13
REMARK    3  A    between atoms: O_5  and  N_8
REMARK    4  A    between atoms: O_5  and  C_20
REMARK    5  A    between atoms: C_9  and  C_15
REMARK    6  A    between atoms: C_13  and  C_14
REMARK    7  A    between atoms: C_17  and  C_20
REMARK                            x       y       z     vdW  Elec       q    Type
REMARK                         _______ _______ _______ _____ _____    ______ ____
ROOT
ATOM      1  S   UNL     1       7.461  17.349  15.457  0.00  0.00    +0.000 S 
ATOM      2  N   UNL     1       7.150  17.307  18.004  0.00  0.00    +0.000 N 
ATOM      3  N   UNL     1       5.151  17.604  17.046  0.00  0.00    +0.000 NA
ATOM      4  C   UNL     1       6.266  17.383  19.049  0.00  0.00    +0.000 A 
ATOM      5  C   UNL     1       5.040  17.605  18.421  0.00  0.00    +0.000 A 
ATOM      6  C   UNL     1       6.429  17.422  16.854  0.00  0.00    +0.000 A 
ATOM      7  C   UNL     1       8.514  17.183  17.835  0.00  0.00    +0.000 A 
ATOM      8  C   UNL     1       8.859  17.194  16.537  0.00  0.00    +0.000 A 
ENDROOT
BRANCH   4  10
ATOM      9  N   UNL     1       6.996  16.093  20.879  0.00  0.00    +0.000 NA
ATOM     10  C   UNL     1       6.567  17.231  20.438  0.00  0.00    +0.000 C 
BRANCH   9  11
ATOM     11  O   UNL     1       7.109  16.138  22.280  0.00  0.00    +0.000 OA
BRANCH  11  12
ATOM     12  C   UNL     1       6.079  15.306  22.823  0.00  0.00    +0.000 C 
BRANCH  12  15
ATOM     13 CL   UNL     1       4.952  19.508  25.676  0.00  0.00    +0.000 Cl
ATOM     14 CL   UNL     1       1.881  18.445  25.838  0.00  0.00    +0.000 Cl
ATOM     15  C   UNL     1       5.034  16.131  23.530  0.00  0.00    +0.000 A 
ATOM     16  C   UNL     1       5.386  17.326  24.177  0.00  0.00    +0.000 A 
ATOM     17  C   UNL     1       3.705  15.690  23.599  0.00  0.00    +0.000 A 
ATOM     18  C   UNL     1       4.431  18.059  24.891  0.00  0.00    +0.000 A 
ATOM     19  C   UNL     1       2.750  16.421  24.310  0.00  0.00    +0.000 A 
ATOM     20  C   UNL     1       3.110  17.605  24.960  0.00  0.00    +0.000 A 
ENDBRANCH  12  15
ENDBRANCH  11  12
ENDBRANCH   9  11
ENDBRANCH   4  10
BRANCH   5  21
ATOM     21  S   UNL     1       3.517  17.868  19.248  0.00  0.00    +0.000 S 
BRANCH  21  22
ATOM     22  C   UNL     1       2.926  16.173  19.523  0.00  0.00    +0.000 C 
BRANCH  22  23
ATOM     23  C   UNL     1       1.751  16.152  20.480  0.00  0.00    +0.000 A 
ATOM     24  C   UNL     1       1.245  17.346  21.014  0.00  0.00    +0.000 A 
ATOM     25  C   UNL     1       1.163  14.937  20.877  0.00  0.00    +0.000 A 
ATOM     26  C   UNL     1       0.174  17.332  21.908  0.00  0.00    +0.000 A 
ATOM     27  C   UNL     1       0.089  14.927  21.772  0.00  0.00    +0.000 A 
ATOM     28  C   UNL     1      -0.404  16.122  22.286  0.00  0.00    +0.000 A 
ENDBRANCH  22  23
ENDBRANCH  21  22
ENDBRANCH   5  21
TORSDOF 7
ENDMDL
MODEL 8
REMARK VINA RESULT:      -5.3     22.244     25.347
REMARK  Name = 9637344
REMARK  7 active torsions:
REMARK  status: ('A' for Active; 'I' for Inactive)
REMARK    1  A    between atoms: S_3  and  C_10
REMARK    2  A    between atoms: S_3  and  C_13
REMARK    3  A    between atoms: O_5  and  N_8
REMARK    4  A    between atoms: O_5  and  C_20
REMARK    5  A    between atoms: C_9  and  C_15
REMARK    6  A    between atoms: C_13  and  C_14
REMARK    7  A    between atoms: C_17  and  C_20
REMARK                            x       y       z     vdW  Elec       q    Type
REMARK                         _______ _______ _______ _____ _____    ______ ____
ROOT
ATOM      1  S   UNL     1     -17.228   5.007  14.124  0.00  0.00    +0.000 S 
ATOM      2  N   UNL     1     -15.383   6.787  14.236  0.00  0.00    +0.000 N 
ATOM      3  N   UNL     1     -16.598   6.899  16.112  0.00  0.00    +0.000 NA
ATOM      4  C   UNL     1     -14.809   7.792  14.969  0.00  0.00    +0.000 A 
ATOM      5  C   UNL     1     -15.609   7.861  16.110  0.00  0.00    +0.000 A 
ATOM      6  C   UNL     1     -16.417   6.289  14.972  0.00  0.00    +0.000 A 
ATOM      7  C   UNL     1     -15.210   6.208  12.996  0.00  0.00    +0.000 A 
ATOM      8  C   UNL     1     -16.114   5.241  12.766  0.00  0.00    +0.000 A 
ENDROOT
BRANCH   4  10
ATOM      9  N   UNL     1     -12.559   7.925  14.287  0.00  0.00    +0.000 NA
ATOM     10  C   UNL     1     -13.643   8.545  14.624  0.00  0.00    +0.000 C 
BRANCH   9  11
ATOM     11  O   UNL     1     -11.516   8.853  14.110  0.00  0.00    +0.000 OA
BRANCH  11  12
ATOM     12  C   UNL     1     -10.774   8.906  15.331  0.00  0.00    +0.000 C 
BRANCH  12  15
ATOM     13 CL   UNL     1     -11.943  13.933  14.675  0.00  0.00    +0.000 Cl
ATOM     14 CL   UNL     1     -10.139  14.587  17.304  0.00  0.00    +0.000 Cl
ATOM     15  C   UNL     1     -10.675  10.321  15.842  0.00  0.00    +0.000 A 
ATOM     16  C   UNL     1     -11.301  11.372  15.156  0.00  0.00    +0.000 A 
ATOM     17  C   UNL     1      -9.909  10.616  16.979  0.00  0.00    +0.000 A 
ATOM     18  C   UNL     1     -11.155  12.695  15.590  0.00  0.00    +0.000 A 
ATOM     19  C   UNL     1      -9.763  11.935  17.414  0.00  0.00    +0.000 A 
ATOM     20  C   UNL     1     -10.382  12.978  16.720  0.00  0.00    +0.000 A 
ENDBRANCH  12  15
ENDBRANCH  11  12
ENDBRANCH   9  11
ENDBRANCH   4  10
BRANCH   5  21
ATOM     21  S   UNL     1     -15.418   9.024  17.407  0.00  0.00    +0.000 S 
BRANCH  21  22
ATOM     22  C   UNL     1     -14.825   7.987  18.776  0.00  0.00    +0.000 C 
BRANCH  22  23
ATOM     23  C   UNL     1     -13.406   8.352  19.163  0.00  0.00    +0.000 A 
ATOM     24  C   UNL     1     -12.324   7.578  18.718  0.00  0.00    +0.000 A 
ATOM     25  C   UNL     1     -13.145   9.452  20.000  0.00  0.00    +0.000 A 
ATOM     26  C   UNL     1     -11.017   7.899  19.085  0.00  0.00    +0.000 A 
ATOM     27  C   UNL     1     -11.834   9.772  20.365  0.00  0.00    +0.000 A 
ATOM     28  C   UNL     1     -10.772   8.998  19.908  0.00  0.00    +0.000 A 
ENDBRANCH  22  23
ENDBRANCH  21  22
ENDBRANCH   5  21
TORSDOF 7
ENDMDL
MODEL 9
REMARK VINA RESULT:      -5.2      7.857     11.893
REMARK  Name = 9637344
REMARK  7 active torsions:
REMARK  status: ('A' for Active; 'I' for Inactive)
REMARK    1  A    between atoms: S_3  and  C_10
REMARK    2  A    between atoms: S_3  and  C_13
REMARK    3  A    between atoms: O_5  and  N_8
REMARK    4  A    between atoms: O_5  and  C_20
REMARK    5  A    between atoms: C_9  and  C_15
REMARK    6  A    between atoms: C_13  and  C_14
REMARK    7  A    between atoms: C_17  and  C_20
REMARK                            x       y       z     vdW  Elec       q    Type
REMARK                         _______ _______ _______ _____ _____    ______ ____
ROOT
ATOM      1  S   UNL     1       0.166  21.426  17.294  0.00  0.00    +0.000 S 
ATOM      2  N   UNL     1       0.991  19.013  17.578  0.00  0.00    +0.000 N 
ATOM      3  N   UNL     1      -1.244  19.021  17.683  0.00  0.00    +0.000 NA
ATOM      4  C   UNL     1       0.641  17.700  17.763  0.00  0.00    +0.000 A 
ATOM      5  C   UNL     1      -0.750  17.746  17.862  0.00  0.00    +0.000 A 
ATOM      6  C   UNL     1      -0.163  19.735  17.518  0.00  0.00    +0.000 A 
ATOM      7  C   UNL     1       2.152  19.749  17.475  0.00  0.00    +0.000 A 
ATOM      8  C   UNL     1       1.901  21.061  17.325  0.00  0.00    +0.000 A 
ENDROOT
BRANCH   4  10
ATOM      9  N   UNL     1       2.110  16.265  18.916  0.00  0.00    +0.000 NA
ATOM     10  C   UNL     1       1.525  16.577  17.805  0.00  0.00    +0.000 C 
BRANCH   9  11
ATOM     11  O   UNL     1       3.017  15.213  18.695  0.00  0.00    +0.000 OA
BRANCH  11  12
ATOM     12  C   UNL     1       4.299  15.795  18.440  0.00  0.00    +0.000 C 
BRANCH  12  15
ATOM     13 CL   UNL     1       5.040  16.194  23.575  0.00  0.00    +0.000 Cl
ATOM     14 CL   UNL     1       8.119  15.256  23.097  0.00  0.00    +0.000 Cl
ATOM     15  C   UNL     1       5.220  15.610  19.620  0.00  0.00    +0.000 A 
ATOM     16  C   UNL     1       4.782  15.902  20.920  0.00  0.00    +0.000 A 
ATOM     17  C   UNL     1       6.547  15.197  19.430  0.00  0.00    +0.000 A 
ATOM     18  C   UNL     1       5.655  15.795  22.009  0.00  0.00    +0.000 A 
ATOM     19  C   UNL     1       7.420  15.089  20.515  0.00  0.00    +0.000 A 
ATOM     20  C   UNL     1       6.978  15.391  21.806  0.00  0.00    +0.000 A 
ENDBRANCH  12  15
ENDBRANCH  11  12
ENDBRANCH   9  11
ENDBRANCH   4  10
BRANCH   5  21
ATOM     21  S   UNL     1      -1.783  16.367  18.185  0.00  0.00    +0.000 S 
BRANCH  21  22
ATOM     22  C   UNL     1      -2.141  16.555  19.956  0.00  0.00    +0.000 C 
BRANCH  22  23
ATOM     23  C   UNL     1      -0.960  16.121  20.802  0.00  0.00    +0.000 A 
ATOM     24  C   UNL     1      -0.268  17.051  21.591  0.00  0.00    +0.000 A 
ATOM     25  C   UNL     1      -0.513  14.788  20.789  0.00  0.00    +0.000 A 
ATOM     26  C   UNL     1       0.830  16.662  22.358  0.00  0.00    +0.000 A 
ATOM     27  C   UNL     1       0.586  14.400  21.561  0.00  0.00    +0.000 A 
ATOM     28  C   UNL     1       1.256  15.335  22.344  0.00  0.00    +0.000 A 
ENDBRANCH  22  23
ENDBRANCH  21  22
ENDBRANCH   5  21
TORSDOF 7
ENDMDL
MODEL 10
REMARK VINA RESULT:      -5.2     16.814     20.958
REMARK  Name = 9637344
REMARK  7 active torsions:
REMARK  status: ('A' for Active; 'I' for Inactive)
REMARK    1  A    between atoms: S_3  and  C_10
REMARK    2  A    between atoms: S_3  and  C_13
REMARK    3  A    between atoms: O_5  and  N_8
REMARK    4  A    between atoms: O_5  and  C_20
REMARK    5  A    between atoms: C_9  and  C_15
REMARK    6  A    between atoms: C_13  and  C_14
REMARK    7  A    between atoms: C_17  and  C_20
REMARK                            x       y       z     vdW  Elec       q    Type
REMARK                         _______ _______ _______ _____ _____    ______ ____
ROOT
ATOM      1  S   UNL     1     -10.708  17.457  15.916  0.00  0.00    +0.000 S 
ATOM      2  N   UNL     1     -10.109  14.966  16.067  0.00  0.00    +0.000 N 
ATOM      3  N   UNL     1      -8.226  16.165  16.229  0.00  0.00    +0.000 NA
ATOM      4  C   UNL     1      -9.111  14.038  16.213  0.00  0.00    +0.000 A 
ATOM      5  C   UNL     1      -7.952  14.814  16.273  0.00  0.00    +0.000 A 
ATOM      6  C   UNL     1      -9.526  16.198  16.105  0.00  0.00    +0.000 A 
ATOM      7  C   UNL     1     -11.474  14.967  15.868  0.00  0.00    +0.000 A 
ATOM      8  C   UNL     1     -11.962  16.214  15.758  0.00  0.00    +0.000 A 
ENDROOT
BRANCH   4  10
ATOM      9  N   UNL     1      -9.666  12.097  17.425  0.00  0.00    +0.000 NA
ATOM     10  C   UNL     1      -9.268  12.620  16.311  0.00  0.00    +0.000 C 
BRANCH   9  11
ATOM     11  O   UNL     1      -9.632  10.694  17.329  0.00  0.00    +0.000 OA
BRANCH  11  12
ATOM     12  C   UNL     1     -10.976  10.240  17.145  0.00  0.00    +0.000 C 
BRANCH  12  15
ATOM     13 CL   UNL     1     -12.788   9.309  21.933  0.00  0.00    +0.000 Cl
ATOM     14 CL   UNL     1     -12.246   6.143  21.407  0.00  0.00    +0.000 Cl
ATOM     15  C   UNL     1     -11.353   9.228  18.197  0.00  0.00    +0.000 A 
ATOM     16  C   UNL     1     -11.877   9.644  19.431  0.00  0.00    +0.000 A 
ATOM     17  C   UNL     1     -11.135   7.861  17.981  0.00  0.00    +0.000 A 
ATOM     18  C   UNL     1     -12.165   8.711  20.435  0.00  0.00    +0.000 A 
ATOM     19  C   UNL     1     -11.422   6.928  18.981  0.00  0.00    +0.000 A 
ATOM     20  C   UNL     1     -11.934   7.350  20.210  0.00  0.00    +0.000 A 
ENDBRANCH  12  15
ENDBRANCH  11  12
ENDBRANCH   9  11
ENDBRANCH   4  10
BRANCH   5  21
ATOM     21  S   UNL     1      -6.321  14.181  16.383  0.00  0.00    +0.000 S 
BRANCH  21  22
ATOM     22  C   UNL     1      -5.310  15.665  16.108  0.00  0.00    +0.000 C 
BRANCH  22  23
ATOM     23  C   UNL     1      -4.561  16.057  17.366  0.00  0.00    +0.000 A 
ATOM     24  C   UNL     1      -3.232  15.656  17.559  0.00  0.00    +0.000 A 
ATOM     25  C   UNL     1      -5.191  16.803  18.380  0.00  0.00    +0.000 A 
ATOM     26  C   UNL     1      -2.543  16.000  18.723  0.00  0.00    +0.000 A 
ATOM     27  C   UNL     1      -4.498  17.147  19.543  0.00  0.00    +0.000 A 
ATOM     28  C   UNL     1      -3.177  16.747  19.715  0.00  0.00    +0.000 A 
ENDBRANCH  22  23
ENDBRANCH  21  22
ENDBRANCH   5  21
TORSDOF 7
ENDMDL
