MODEL 1
REMARK VINA RESULT:      -6.1      0.000      0.000
REMARK  Name = 9637109
REMARK  6 active torsions:
REMARK  status: ('A' for Active; 'I' for Inactive)
REMARK    1  A    between atoms: O_4  and  N_7
REMARK    2  A    between atoms: O_4  and  C_22
REMARK    3  A    between atoms: C_8  and  C_10
REMARK    4  A    between atoms: C_9  and  C_15
REMARK    5  A    between atoms: C_16  and  C_20
REMARK    6  A    between atoms: C_21  and  C_22
REMARK                            x       y       z     vdW  Elec       q    Type
REMARK                         _______ _______ _______ _____ _____    ______ ____
ROOT
ATOM      1  S   UNL     1      -1.812   7.950 -57.889  0.00  0.00    +0.000 S 
ATOM      2  N   UNL     1      -3.174   6.061 -56.812  0.00  0.00    +0.000 N 
ATOM      3  N   UNL     1      -3.502   6.016 -59.018  0.00  0.00    +0.000 NA
ATOM      4  C   UNL     1      -4.240   5.013 -58.393  0.00  0.00    +0.000 A 
ATOM      5  C   UNL     1      -4.053   5.029 -57.004  0.00  0.00    +0.000 A 
ATOM      6  C   UNL     1      -2.890   6.597 -58.029  0.00  0.00    +0.000 A 
ATOM      7  C   UNL     1      -2.578   6.692 -55.739  0.00  0.00    +0.000 A 
ATOM      8  C   UNL     1      -1.816   7.725 -56.132  0.00  0.00    +0.000 A 
ENDROOT
BRANCH   4   9
ATOM      9  C   UNL     1      -5.077   4.100 -59.170  0.00  0.00    +0.000 A 
ATOM     10  C   UNL     1      -4.851   2.719 -59.211  0.00  0.00    +0.000 A 
ATOM     11  C   UNL     1      -6.138   4.618 -59.925  0.00  0.00    +0.000 A 
ATOM     12  C   UNL     1      -6.766   2.390 -60.664  0.00  0.00    +0.000 A 
ATOM     13  C   UNL     1      -5.698   1.870 -59.931  0.00  0.00    +0.000 A 
ATOM     14  C   UNL     1      -6.970   3.774 -60.669  0.00  0.00    +0.000 A 
ATOM     15  C   UNL     1      -7.637   1.488 -61.485  0.00  0.00    +0.000 C 
ENDBRANCH   4   9
BRANCH   5  17
ATOM     16  N   UNL     1      -5.229   4.843 -54.969  0.00  0.00    +0.000 NA
ATOM     17  C   UNL     1      -4.625   4.253 -55.945  0.00  0.00    +0.000 C 
BRANCH  16  18
ATOM     18  O   UNL     1      -5.751   3.896 -54.080  0.00  0.00    +0.000 OA
BRANCH  18  19
ATOM     19  C   UNL     1      -4.973   2.703 -54.218  0.00  0.00    +0.000 C 
BRANCH  19  22
ATOM     20 CL   UNL     1      -4.055   3.152 -51.234  0.00  0.00    +0.000 Cl
ATOM     21  F   UNL     1      -6.556   0.467 -54.803  0.00  0.00    +0.000 F 
ATOM     22  C   UNL     1      -5.352   1.699 -53.168  0.00  0.00    +0.000 A 
ATOM     23  C   UNL     1      -4.993   1.823 -51.820  0.00  0.00    +0.000 A 
ATOM     24  C   UNL     1      -6.158   0.612 -53.530  0.00  0.00    +0.000 A 
ATOM     25  C   UNL     1      -5.409   0.872 -50.879  0.00  0.00    +0.000 A 
ATOM     26  C   UNL     1      -6.584  -0.332 -52.600  0.00  0.00    +0.000 A 
ATOM     27  C   UNL     1      -6.205  -0.205 -51.268  0.00  0.00    +0.000 A 
ENDBRANCH  19  22
ENDBRANCH  18  19
ENDBRANCH  16  18
ENDBRANCH   5  17
TORSDOF 5
ENDMDL
MODEL 2
REMARK VINA RESULT:      -5.9      1.820      2.221
REMARK  Name = 9637109
REMARK  6 active torsions:
REMARK  status: ('A' for Active; 'I' for Inactive)
REMARK    1  A    between atoms: O_4  and  N_7
REMARK    2  A    between atoms: O_4  and  C_22
REMARK    3  A    between atoms: C_8  and  C_10
REMARK    4  A    between atoms: C_9  and  C_15
REMARK    5  A    between atoms: C_16  and  C_20
REMARK    6  A    between atoms: C_21  and  C_22
REMARK                            x       y       z     vdW  Elec       q    Type
REMARK                         _______ _______ _______ _____ _____    ______ ____
ROOT
ATOM      1  S   UNL     1      -1.925   7.795 -58.152  0.00  0.00    +0.000 S 
ATOM      2  N   UNL     1      -3.348   5.949 -57.077  0.00  0.00    +0.000 N 
ATOM      3  N   UNL     1      -3.628   5.876 -59.289  0.00  0.00    +0.000 NA
ATOM      4  C   UNL     1      -4.399   4.898 -58.666  0.00  0.00    +0.000 A 
ATOM      5  C   UNL     1      -4.243   4.932 -57.273  0.00  0.00    +0.000 A 
ATOM      6  C   UNL     1      -3.026   6.461 -58.295  0.00  0.00    +0.000 A 
ATOM      7  C   UNL     1      -2.763   6.585 -56.000  0.00  0.00    +0.000 A 
ATOM      8  C   UNL     1      -1.972   7.597 -56.392  0.00  0.00    +0.000 A 
ENDROOT
BRANCH   4   9
ATOM      9  C   UNL     1      -5.237   3.990 -59.447  0.00  0.00    +0.000 A 
ATOM     10  C   UNL     1      -4.989   2.614 -59.526  0.00  0.00    +0.000 A 
ATOM     11  C   UNL     1      -6.321   4.507 -60.168  0.00  0.00    +0.000 A 
ATOM     12  C   UNL     1      -6.928   2.287 -60.947  0.00  0.00    +0.000 A 
ATOM     13  C   UNL     1      -5.836   1.768 -60.250  0.00  0.00    +0.000 A 
ATOM     14  C   UNL     1      -7.155   3.667 -60.915  0.00  0.00    +0.000 A 
ATOM     15  C   UNL     1      -7.801   1.390 -61.772  0.00  0.00    +0.000 C 
ENDBRANCH   4   9
BRANCH   5  17
ATOM     16  N   UNL     1      -4.308   3.092 -55.800  0.00  0.00    +0.000 NA
ATOM     17  C   UNL     1      -4.854   4.184 -56.215  0.00  0.00    +0.000 C 
BRANCH  16  18
ATOM     18  O   UNL     1      -5.042   2.559 -54.734  0.00  0.00    +0.000 OA
BRANCH  18  19
ATOM     19  C   UNL     1      -4.649   1.190 -54.586  0.00  0.00    +0.000 C 
BRANCH  19  22
ATOM     20 CL   UNL     1      -5.679  -0.598 -56.972  0.00  0.00    +0.000 Cl
ATOM     21  F   UNL     1      -5.972   1.016 -52.123  0.00  0.00    +0.000 F 
ATOM     22  C   UNL     1      -5.851   0.313 -54.387  0.00  0.00    +0.000 A 
ATOM     23  C   UNL     1      -6.372  -0.517 -55.390  0.00  0.00    +0.000 A 
ATOM     24  C   UNL     1      -6.454   0.265 -53.124  0.00  0.00    +0.000 A 
ATOM     25  C   UNL     1      -7.474  -1.343 -55.132  0.00  0.00    +0.000 A 
ATOM     26  C   UNL     1      -7.543  -0.560 -52.858  0.00  0.00    +0.000 A 
ATOM     27  C   UNL     1      -8.060  -1.365 -53.868  0.00  0.00    +0.000 A 
ENDBRANCH  19  22
ENDBRANCH  18  19
ENDBRANCH  16  18
ENDBRANCH   5  17
TORSDOF 5
ENDMDL
MODEL 3
REMARK VINA RESULT:      -5.8     10.905     12.887
REMARK  Name = 9637109
REMARK  6 active torsions:
REMARK  status: ('A' for Active; 'I' for Inactive)
REMARK    1  A    between atoms: O_4  and  N_7
REMARK    2  A    between atoms: O_4  and  C_22
REMARK    3  A    between atoms: C_8  and  C_10
REMARK    4  A    between atoms: C_9  and  C_15
REMARK    5  A    between atoms: C_16  and  C_20
REMARK    6  A    between atoms: C_21  and  C_22
REMARK                            x       y       z     vdW  Elec       q    Type
REMARK                         _______ _______ _______ _____ _____    ______ ____
ROOT
ATOM      1  S   UNL     1     -14.719  10.151 -58.569  0.00  0.00    +0.000 S 
ATOM      2  N   UNL     1     -12.416  11.200 -58.998  0.00  0.00    +0.000 N 
ATOM      3  N   UNL     1     -12.786  11.154 -56.799  0.00  0.00    +0.000 NA
ATOM      4  C   UNL     1     -11.550  11.733 -57.074  0.00  0.00    +0.000 A 
ATOM      5  C   UNL     1     -11.301  11.778 -58.453  0.00  0.00    +0.000 A 
ATOM      6  C   UNL     1     -13.246  10.856 -57.977  0.00  0.00    +0.000 A 
ATOM      7  C   UNL     1     -12.903  10.942 -60.263  0.00  0.00    +0.000 A 
ATOM      8  C   UNL     1     -14.124  10.383 -60.221  0.00  0.00    +0.000 A 
ENDROOT
BRANCH   4   9
ATOM      9  C   UNL     1     -10.683  12.206 -55.996  0.00  0.00    +0.000 A 
ATOM     10  C   UNL     1      -9.382  11.722 -55.806  0.00  0.00    +0.000 A 
ATOM     11  C   UNL     1     -11.168  13.164 -55.097  0.00  0.00    +0.000 A 
ATOM     12  C   UNL     1      -9.048  13.198 -53.910  0.00  0.00    +0.000 A 
ATOM     13  C   UNL     1      -8.566  12.226 -54.789  0.00  0.00    +0.000 A 
ATOM     14  C   UNL     1     -10.363  13.651 -54.061  0.00  0.00    +0.000 A 
ATOM     15  C   UNL     1      -8.195  13.695 -52.782  0.00  0.00    +0.000 C 
ENDBRANCH   4   9
BRANCH   5  17
ATOM     16  N   UNL     1     -10.147  13.591 -59.423  0.00  0.00    +0.000 NA
ATOM     17  C   UNL     1     -10.220  12.319 -59.221  0.00  0.00    +0.000 C 
BRANCH  16  18
ATOM     18  O   UNL     1      -8.992  13.901 -60.149  0.00  0.00    +0.000 OA
BRANCH  18  19
ATOM     19  C   UNL     1      -8.551  15.194 -59.722  0.00  0.00    +0.000 C 
BRANCH  19  22
ATOM     20 CL   UNL     1      -9.762  16.097 -56.953  0.00  0.00    +0.000 Cl
ATOM     21  F   UNL     1      -5.961  14.126 -59.759  0.00  0.00    +0.000 F 
ATOM     22  C   UNL     1      -7.716  15.085 -58.479  0.00  0.00    +0.000 A 
ATOM     23  C   UNL     1      -8.176  15.456 -57.208  0.00  0.00    +0.000 A 
ATOM     24  C   UNL     1      -6.435  14.527 -58.569  0.00  0.00    +0.000 A 
ATOM     25  C   UNL     1      -7.363  15.295 -56.079  0.00  0.00    +0.000 A 
ATOM     26  C   UNL     1      -5.625  14.355 -57.451  0.00  0.00    +0.000 A 
ATOM     27  C   UNL     1      -6.089  14.745 -56.199  0.00  0.00    +0.000 A 
ENDBRANCH  19  22
ENDBRANCH  18  19
ENDBRANCH  16  18
ENDBRANCH   5  17
TORSDOF 5
ENDMDL
MODEL 4
REMARK VINA RESULT:      -5.7      5.017      7.942
REMARK  Name = 9637109
REMARK  6 active torsions:
REMARK  status: ('A' for Active; 'I' for Inactive)
REMARK    1  A    between atoms: O_4  and  N_7
REMARK    2  A    between atoms: O_4  and  C_22
REMARK    3  A    between atoms: C_8  and  C_10
REMARK    4  A    between atoms: C_9  and  C_15
REMARK    5  A    between atoms: C_16  and  C_20
REMARK    6  A    between atoms: C_21  and  C_22
REMARK                            x       y       z     vdW  Elec       q    Type
REMARK                         _______ _______ _______ _____ _____    ______ ____
ROOT
ATOM      1  S   UNL     1      -6.606  -5.303 -59.246  0.00  0.00    +0.000 S 
ATOM      2  N   UNL     1      -6.084  -2.964 -58.325  0.00  0.00    +0.000 N 
ATOM      3  N   UNL     1      -6.991  -4.192 -56.698  0.00  0.00    +0.000 NA
ATOM      4  C   UNL     1      -6.709  -2.908 -56.241  0.00  0.00    +0.000 A 
ATOM      5  C   UNL     1      -6.144  -2.117 -57.252  0.00  0.00    +0.000 A 
ATOM      6  C   UNL     1      -6.595  -4.164 -57.936  0.00  0.00    +0.000 A 
ATOM      7  C   UNL     1      -5.704  -2.891 -59.649  0.00  0.00    +0.000 A 
ATOM      8  C   UNL     1      -5.915  -4.051 -60.292  0.00  0.00    +0.000 A 
ENDROOT
BRANCH   4   9
ATOM      9  C   UNL     1      -6.997  -2.519 -54.862  0.00  0.00    +0.000 A 
ATOM     10  C   UNL     1      -6.424  -3.167 -53.760  0.00  0.00    +0.000 A 
ATOM     11  C   UNL     1      -7.898  -1.474 -54.618  0.00  0.00    +0.000 A 
ATOM     12  C   UNL     1      -7.572  -1.686 -52.219  0.00  0.00    +0.000 A 
ATOM     13  C   UNL     1      -6.690  -2.743 -52.454  0.00  0.00    +0.000 A 
ATOM     14  C   UNL     1      -8.187  -1.064 -53.311  0.00  0.00    +0.000 A 
ATOM     15  C   UNL     1      -7.904  -1.269 -50.818  0.00  0.00    +0.000 C 
ENDBRANCH   4   9
BRANCH   5  17
ATOM     16  N   UNL     1      -4.495  -0.432 -57.220  0.00  0.00    +0.000 NA
ATOM     17  C   UNL     1      -5.745  -0.742 -57.291  0.00  0.00    +0.000 C 
BRANCH  16  18
ATOM     18  O   UNL     1      -4.332   0.953 -57.328  0.00  0.00    +0.000 OA
BRANCH  18  19
ATOM     19  C   UNL     1      -3.464   1.367 -56.267  0.00  0.00    +0.000 C 
BRANCH  19  22
ATOM     20 CL   UNL     1      -3.348  -0.933 -54.112  0.00  0.00    +0.000 Cl
ATOM     21  F   UNL     1      -4.936   3.675 -55.674  0.00  0.00    +0.000 F 
ATOM     22  C   UNL     1      -4.229   1.516 -54.984  0.00  0.00    +0.000 A 
ATOM     23  C   UNL     1      -4.228   0.548 -53.971  0.00  0.00    +0.000 A 
ATOM     24  C   UNL     1      -4.932   2.705 -54.748  0.00  0.00    +0.000 A 
ATOM     25  C   UNL     1      -4.932   0.761 -52.779  0.00  0.00    +0.000 A 
ATOM     26  C   UNL     1      -5.626   2.928 -53.563  0.00  0.00    +0.000 A 
ATOM     27  C   UNL     1      -5.630   1.950 -52.573  0.00  0.00    +0.000 A 
ENDBRANCH  19  22
ENDBRANCH  18  19
ENDBRANCH  16  18
ENDBRANCH   5  17
TORSDOF 5
ENDMDL
MODEL 5
REMARK VINA RESULT:      -5.7     17.966     19.870
REMARK  Name = 9637109
REMARK  6 active torsions:
REMARK  status: ('A' for Active; 'I' for Inactive)
REMARK    1  A    between atoms: O_4  and  N_7
REMARK    2  A    between atoms: O_4  and  C_22
REMARK    3  A    between atoms: C_8  and  C_10
REMARK    4  A    between atoms: C_9  and  C_15
REMARK    5  A    between atoms: C_16  and  C_20
REMARK    6  A    between atoms: C_21  and  C_22
REMARK                            x       y       z     vdW  Elec       q    Type
REMARK                         _______ _______ _______ _____ _____    ______ ____
ROOT
ATOM      1  S   UNL     1     -10.092  20.982 -40.777  0.00  0.00    +0.000 S 
ATOM      2  N   UNL     1     -10.729  19.145 -42.454  0.00  0.00    +0.000 N 
ATOM      3  N   UNL     1      -8.506  19.223 -42.283  0.00  0.00    +0.000 NA
ATOM      4  C   UNL     1      -8.893  18.247 -43.198  0.00  0.00    +0.000 A 
ATOM      5  C   UNL     1     -10.287  18.187 -43.326  0.00  0.00    +0.000 A 
ATOM      6  C   UNL     1      -9.638  19.715 -41.874  0.00  0.00    +0.000 A 
ATOM      7  C   UNL     1     -11.942  19.684 -42.076  0.00  0.00    +0.000 A 
ATOM      8  C   UNL     1     -11.788  20.678 -41.186  0.00  0.00    +0.000 A 
ENDROOT
BRANCH   4   9
ATOM      9  C   UNL     1      -7.898  17.431 -43.893  0.00  0.00    +0.000 A 
ATOM     10  C   UNL     1      -7.737  17.460 -45.284  0.00  0.00    +0.000 A 
ATOM     11  C   UNL     1      -7.083  16.566 -43.153  0.00  0.00    +0.000 A 
ATOM     12  C   UNL     1      -5.924  15.853 -45.166  0.00  0.00    +0.000 A 
ATOM     13  C   UNL     1      -6.748  16.696 -45.913  0.00  0.00    +0.000 A 
ATOM     14  C   UNL     1      -6.110  15.780 -43.781  0.00  0.00    +0.000 A 
ATOM     15  C   UNL     1      -4.904  14.990 -45.845  0.00  0.00    +0.000 C 
ENDBRANCH   4   9
BRANCH   5  17
ATOM     16  N   UNL     1     -11.603  16.276 -43.744  0.00  0.00    +0.000 NA
ATOM     17  C   UNL     1     -11.147  17.407 -44.165  0.00  0.00    +0.000 C 
BRANCH  16  18
ATOM     18  O   UNL     1     -12.457  15.713 -44.699  0.00  0.00    +0.000 OA
BRANCH  18  19
ATOM     19  C   UNL     1     -13.122  16.789 -45.368  0.00  0.00    +0.000 C 
BRANCH  19  22
ATOM     20 CL   UNL     1     -12.528  16.669 -48.463  0.00  0.00    +0.000 Cl
ATOM     21  F   UNL     1     -15.583  15.822 -44.445  0.00  0.00    +0.000 F 
ATOM     22  C   UNL     1     -14.173  16.264 -46.303  0.00  0.00    +0.000 A 
ATOM     23  C   UNL     1     -13.991  16.170 -47.689  0.00  0.00    +0.000 A 
ATOM     24  C   UNL     1     -15.375  15.784 -45.770  0.00  0.00    +0.000 A 
ATOM     25  C   UNL     1     -14.995  15.636 -48.507  0.00  0.00    +0.000 A 
ATOM     26  C   UNL     1     -16.374  15.242 -46.574  0.00  0.00    +0.000 A 
ATOM     27  C   UNL     1     -16.186  15.171 -47.950  0.00  0.00    +0.000 A 
ENDBRANCH  19  22
ENDBRANCH  18  19
ENDBRANCH  16  18
ENDBRANCH   5  17
TORSDOF 5
ENDMDL
MODEL 6
REMARK VINA RESULT:      -5.6     20.102     22.234
REMARK  Name = 9637109
REMARK  6 active torsions:
REMARK  status: ('A' for Active; 'I' for Inactive)
REMARK    1  A    between atoms: O_4  and  N_7
REMARK    2  A    between atoms: O_4  and  C_22
REMARK    3  A    between atoms: C_8  and  C_10
REMARK    4  A    between atoms: C_9  and  C_15
REMARK    5  A    between atoms: C_16  and  C_20
REMARK    6  A    between atoms: C_21  and  C_22
REMARK                            x       y       z     vdW  Elec       q    Type
REMARK                         _______ _______ _______ _____ _____    ______ ____
ROOT
ATOM      1  S   UNL     1      -5.059   6.461 -37.479  0.00  0.00    +0.000 S 
ATOM      2  N   UNL     1      -6.887   4.918 -36.547  0.00  0.00    +0.000 N 
ATOM      3  N   UNL     1      -7.713   6.982 -36.730  0.00  0.00    +0.000 NA
ATOM      4  C   UNL     1      -8.672   6.115 -36.211  0.00  0.00    +0.000 A 
ATOM      5  C   UNL     1      -8.170   4.813 -36.081  0.00  0.00    +0.000 A 
ATOM      6  C   UNL     1      -6.681   6.212 -36.912  0.00  0.00    +0.000 A 
ATOM      7  C   UNL     1      -5.791   4.089 -36.682  0.00  0.00    +0.000 A 
ATOM      8  C   UNL     1      -4.726   4.750 -37.165  0.00  0.00    +0.000 A 
ENDROOT
BRANCH   4   9
ATOM      9  C   UNL     1     -10.012   6.592 -35.873  0.00  0.00    +0.000 A 
ATOM     10  C   UNL     1     -10.233   7.761 -35.133  0.00  0.00    +0.000 A 
ATOM     11  C   UNL     1     -11.127   5.847 -36.278  0.00  0.00    +0.000 A 
ATOM     12  C   UNL     1     -12.637   7.474 -35.290  0.00  0.00    +0.000 A 
ATOM     13  C   UNL     1     -11.530   8.209 -34.862  0.00  0.00    +0.000 A 
ATOM     14  C   UNL     1     -12.426   6.278 -35.986  0.00  0.00    +0.000 A 
ATOM     15  C   UNL     1     -14.026   7.922 -34.948  0.00  0.00    +0.000 C 
ENDBRANCH   4   9
BRANCH   5  17
ATOM     16  N   UNL     1      -8.665   3.363 -34.289  0.00  0.00    +0.000 NA
ATOM     17  C   UNL     1      -8.737   3.609 -35.553  0.00  0.00    +0.000 C 
BRANCH  16  18
ATOM     18  O   UNL     1      -9.325   2.166 -33.990  0.00  0.00    +0.000 OA
BRANCH  18  19
ATOM     19  C   UNL     1     -10.014   2.354 -32.750  0.00  0.00    +0.000 C 
BRANCH  19  22
ATOM     20 CL   UNL     1     -11.235   5.261 -32.667  0.00  0.00    +0.000 Cl
ATOM     21  F   UNL     1     -11.715   0.211 -33.351  0.00  0.00    +0.000 F 
ATOM     22  C   UNL     1     -11.485   2.545 -32.985  0.00  0.00    +0.000 A 
ATOM     23  C   UNL     1     -12.108   3.800 -32.972  0.00  0.00    +0.000 A 
ATOM     24  C   UNL     1     -12.273   1.430 -33.295  0.00  0.00    +0.000 A 
ATOM     25  C   UNL     1     -13.479   3.920 -33.237  0.00  0.00    +0.000 A 
ATOM     26  C   UNL     1     -13.633   1.541 -33.568  0.00  0.00    +0.000 A 
ATOM     27  C   UNL     1     -14.242   2.791 -33.535  0.00  0.00    +0.000 A 
ENDBRANCH  19  22
ENDBRANCH  18  19
ENDBRANCH  16  18
ENDBRANCH   5  17
TORSDOF 5
ENDMDL
MODEL 7
REMARK VINA RESULT:      -5.5     18.931     20.658
REMARK  Name = 9637109
REMARK  6 active torsions:
REMARK  status: ('A' for Active; 'I' for Inactive)
REMARK    1  A    between atoms: O_4  and  N_7
REMARK    2  A    between atoms: O_4  and  C_22
REMARK    3  A    between atoms: C_8  and  C_10
REMARK    4  A    between atoms: C_9  and  C_15
REMARK    5  A    between atoms: C_16  and  C_20
REMARK    6  A    between atoms: C_21  and  C_22
REMARK                            x       y       z     vdW  Elec       q    Type
REMARK                         _______ _______ _______ _____ _____    ______ ____
ROOT
ATOM      1  S   UNL     1     -21.583  14.784 -45.274  0.00  0.00    +0.000 S 
ATOM      2  N   UNL     1     -19.650  15.195 -46.913  0.00  0.00    +0.000 N 
ATOM      3  N   UNL     1     -18.869  15.341 -44.828  0.00  0.00    +0.000 NA
ATOM      4  C   UNL     1     -17.851  15.575 -45.749  0.00  0.00    +0.000 A 
ATOM      5  C   UNL     1     -18.323  15.495 -47.067  0.00  0.00    +0.000 A 
ATOM      6  C   UNL     1     -19.907  15.118 -45.579  0.00  0.00    +0.000 A 
ATOM      7  C   UNL     1     -20.746  15.013 -47.732  0.00  0.00    +0.000 A 
ATOM      8  C   UNL     1     -21.863  14.784 -47.023  0.00  0.00    +0.000 A 
ENDROOT
BRANCH   4   9
ATOM      9  C   UNL     1     -16.487  15.860 -45.307  0.00  0.00    +0.000 A 
ATOM     10  C   UNL     1     -16.160  16.991 -44.549  0.00  0.00    +0.000 A 
ATOM     11  C   UNL     1     -15.453  14.987 -45.669  0.00  0.00    +0.000 A 
ATOM     12  C   UNL     1     -13.829  16.325 -44.453  0.00  0.00    +0.000 A 
ATOM     13  C   UNL     1     -14.851  17.212 -44.108  0.00  0.00    +0.000 A 
ATOM     14  C   UNL     1     -14.137  15.218 -45.252  0.00  0.00    +0.000 A 
ATOM     15  C   UNL     1     -12.416  16.592 -44.032  0.00  0.00    +0.000 C 
ENDBRANCH   4   9
BRANCH   5  17
ATOM     16  N   UNL     1     -17.401  16.908 -48.713  0.00  0.00    +0.000 NA
ATOM     17  C   UNL     1     -17.690  15.710 -48.333  0.00  0.00    +0.000 C 
BRANCH  16  18
ATOM     18  O   UNL     1     -16.746  16.880 -49.949  0.00  0.00    +0.000 OA
BRANCH  18  19
ATOM     19  C   UNL     1     -15.810  17.962 -49.964  0.00  0.00    +0.000 C 
BRANCH  19  22
ATOM     20 CL   UNL     1     -14.940  19.360 -47.274  0.00  0.00    +0.000 Cl
ATOM     21  F   UNL     1     -14.180  15.933 -51.000  0.00  0.00    +0.000 F 
ATOM     22  C   UNL     1     -14.523  17.559 -49.304  0.00  0.00    +0.000 A 
ATOM     23  C   UNL     1     -14.064  18.123 -48.106  0.00  0.00    +0.000 A 
ATOM     24  C   UNL     1     -13.765  16.526 -49.870  0.00  0.00    +0.000 A 
ATOM     25  C   UNL     1     -12.873  17.678 -47.518  0.00  0.00    +0.000 A 
ATOM     26  C   UNL     1     -12.586  16.072 -49.287  0.00  0.00    +0.000 A 
ATOM     27  C   UNL     1     -12.134  16.653 -48.107  0.00  0.00    +0.000 A 
ENDBRANCH  19  22
ENDBRANCH  18  19
ENDBRANCH  16  18
ENDBRANCH   5  17
TORSDOF 5
ENDMDL
MODEL 8
REMARK VINA RESULT:      -5.3      5.216      8.407
REMARK  Name = 9637109
REMARK  6 active torsions:
REMARK  status: ('A' for Active; 'I' for Inactive)
REMARK    1  A    between atoms: O_4  and  N_7
REMARK    2  A    between atoms: O_4  and  C_22
REMARK    3  A    between atoms: C_8  and  C_10
REMARK    4  A    between atoms: C_9  and  C_15
REMARK    5  A    between atoms: C_16  and  C_20
REMARK    6  A    between atoms: C_21  and  C_22
REMARK                            x       y       z     vdW  Elec       q    Type
REMARK                         _______ _______ _______ _____ _____    ______ ____
ROOT
ATOM      1  S   UNL     1      -1.647   9.399 -60.781  0.00  0.00    +0.000 S 
ATOM      2  N   UNL     1      -0.698   8.490 -58.576  0.00  0.00    +0.000 N 
ATOM      3  N   UNL     1      -2.825   7.844 -58.764  0.00  0.00    +0.000 NA
ATOM      4  C   UNL     1      -2.278   7.383 -57.570  0.00  0.00    +0.000 A 
ATOM      5  C   UNL     1      -0.943   7.785 -57.428  0.00  0.00    +0.000 A 
ATOM      6  C   UNL     1      -1.840   8.487 -59.316  0.00  0.00    +0.000 A 
ATOM      7  C   UNL     1       0.349   9.210 -59.115  0.00  0.00    +0.000 A 
ATOM      8  C   UNL     1       0.016   9.765 -60.292  0.00  0.00    +0.000 A 
ENDROOT
BRANCH   4   9
ATOM      9  C   UNL     1      -3.072   6.584 -56.637  0.00  0.00    +0.000 A 
ATOM     10  C   UNL     1      -3.427   7.043 -55.363  0.00  0.00    +0.000 A 
ATOM     11  C   UNL     1      -3.481   5.298 -57.013  0.00  0.00    +0.000 A 
ATOM     12  C   UNL     1      -4.645   4.996 -54.902  0.00  0.00    +0.000 A 
ATOM     13  C   UNL     1      -4.222   6.268 -54.511  0.00  0.00    +0.000 A 
ATOM     14  C   UNL     1      -4.254   4.509 -56.154  0.00  0.00    +0.000 A 
ATOM     15  C   UNL     1      -5.447   4.141 -53.967  0.00  0.00    +0.000 C 
ENDBRANCH   4   9
BRANCH   5  17
ATOM     16  N   UNL     1      -0.026   8.391 -55.342  0.00  0.00    +0.000 NA
ATOM     17  C   UNL     1       0.009   7.615 -56.372  0.00  0.00    +0.000 C 
BRANCH  16  18
ATOM     18  O   UNL     1       0.956   8.015 -54.419  0.00  0.00    +0.000 OA
BRANCH  18  19
ATOM     19  C   UNL     1       1.304   9.180 -53.665  0.00  0.00    +0.000 C 
BRANCH  19  22
ATOM     20 CL   UNL     1       2.504   8.293 -50.886  0.00  0.00    +0.000 Cl
ATOM     21  F   UNL     1       3.072   9.987 -55.683  0.00  0.00    +0.000 F 
ATOM     22  C   UNL     1       2.788   9.246 -53.445  0.00  0.00    +0.000 A 
ATOM     23  C   UNL     1       3.405   8.865 -52.246  0.00  0.00    +0.000 A 
ATOM     24  C   UNL     1       3.613   9.645 -54.504  0.00  0.00    +0.000 A 
ATOM     25  C   UNL     1       4.799   8.913 -52.114  0.00  0.00    +0.000 A 
ATOM     26  C   UNL     1       4.999   9.686 -54.383  0.00  0.00    +0.000 A 
ATOM     27  C   UNL     1       5.597   9.322 -53.181  0.00  0.00    +0.000 A 
ENDBRANCH  19  22
ENDBRANCH  18  19
ENDBRANCH  16  18
ENDBRANCH   5  17
TORSDOF 5
ENDMDL
MODEL 9
REMARK VINA RESULT:      -5.2     21.437     25.079
REMARK  Name = 9637109
REMARK  6 active torsions:
REMARK  status: ('A' for Active; 'I' for Inactive)
REMARK    1  A    between atoms: O_4  and  N_7
REMARK    2  A    between atoms: O_4  and  C_22
REMARK    3  A    between atoms: C_8  and  C_10
REMARK    4  A    between atoms: C_9  and  C_15
REMARK    5  A    between atoms: C_16  and  C_20
REMARK    6  A    between atoms: C_21  and  C_22
REMARK                            x       y       z     vdW  Elec       q    Type
REMARK                         _______ _______ _______ _____ _____    ______ ____
ROOT
ATOM      1  S   UNL     1     -13.605   9.660 -29.112  0.00  0.00    +0.000 S 
ATOM      2  N   UNL     1     -13.669   8.568 -31.435  0.00  0.00    +0.000 N 
ATOM      3  N   UNL     1     -15.620   9.585 -31.065  0.00  0.00    +0.000 NA
ATOM      4  C   UNL     1     -15.620   8.964 -32.312  0.00  0.00    +0.000 A 
ATOM      5  C   UNL     1     -14.404   8.313 -32.561  0.00  0.00    +0.000 A 
ATOM      6  C   UNL     1     -14.436   9.318 -30.598  0.00  0.00    +0.000 A 
ATOM      7  C   UNL     1     -12.425   8.226 -30.942  0.00  0.00    +0.000 A 
ATOM      8  C   UNL     1     -12.225   8.725 -29.711  0.00  0.00    +0.000 A 
ENDROOT
BRANCH   4   9
ATOM      9  C   UNL     1     -16.788   9.037 -33.188  0.00  0.00    +0.000 A 
ATOM     10  C   UNL     1     -17.698   7.981 -33.321  0.00  0.00    +0.000 A 
ATOM     11  C   UNL     1     -17.005  10.195 -33.946  0.00  0.00    +0.000 A 
ATOM     12  C   UNL     1     -19.050   9.265 -34.874  0.00  0.00    +0.000 A 
ATOM     13  C   UNL     1     -18.828   8.099 -34.138  0.00  0.00    +0.000 A 
ATOM     14  C   UNL     1     -18.120  10.306 -34.785  0.00  0.00    +0.000 A 
ATOM     15  C   UNL     1     -20.228   9.370 -35.795  0.00  0.00    +0.000 C 
ENDBRANCH   4   9
BRANCH   5  17
ATOM     16  N   UNL     1     -13.062   7.963 -34.468  0.00  0.00    +0.000 NA
ATOM     17  C   UNL     1     -13.949   7.504 -33.651  0.00  0.00    +0.000 C 
BRANCH  16  18
ATOM     18  O   UNL     1     -12.730   6.992 -35.419  0.00  0.00    +0.000 OA
BRANCH  18  19
ATOM     19  C   UNL     1     -11.629   7.498 -36.181  0.00  0.00    +0.000 C 
BRANCH  19  22
ATOM     20 CL   UNL     1      -9.242   8.205 -34.245  0.00  0.00    +0.000 Cl
ATOM     21  F   UNL     1     -11.513   5.095 -37.617  0.00  0.00    +0.000 F 
ATOM     22  C   UNL     1     -10.451   6.571 -36.090  0.00  0.00    +0.000 A 
ATOM     23  C   UNL     1      -9.353   6.804 -35.252  0.00  0.00    +0.000 A 
ATOM     24  C   UNL     1     -10.468   5.379 -36.826  0.00  0.00    +0.000 A 
ATOM     25  C   UNL     1      -8.300   5.882 -35.182  0.00  0.00    +0.000 A 
ATOM     26  C   UNL     1      -9.431   4.454 -36.754  0.00  0.00    +0.000 A 
ATOM     27  C   UNL     1      -8.338   4.707 -35.932  0.00  0.00    +0.000 A 
ENDBRANCH  19  22
ENDBRANCH  18  19
ENDBRANCH  16  18
ENDBRANCH   5  17
TORSDOF 5
ENDMDL
MODEL 10
REMARK VINA RESULT:      -5.2     18.395     20.160
REMARK  Name = 9637109
REMARK  6 active torsions:
REMARK  status: ('A' for Active; 'I' for Inactive)
REMARK    1  A    between atoms: O_4  and  N_7
REMARK    2  A    between atoms: O_4  and  C_22
REMARK    3  A    between atoms: C_8  and  C_10
REMARK    4  A    between atoms: C_9  and  C_15
REMARK    5  A    between atoms: C_16  and  C_20
REMARK    6  A    between atoms: C_21  and  C_22
REMARK                            x       y       z     vdW  Elec       q    Type
REMARK                         _______ _______ _______ _____ _____    ______ ____
ROOT
ATOM      1  S   UNL     1     -21.059  14.926 -45.013  0.00  0.00    +0.000 S 
ATOM      2  N   UNL     1     -19.356  15.442 -46.863  0.00  0.00    +0.000 N 
ATOM      3  N   UNL     1     -18.302  15.436 -44.897  0.00  0.00    +0.000 NA
ATOM      4  C   UNL     1     -17.413  15.729 -45.927  0.00  0.00    +0.000 A 
ATOM      5  C   UNL     1     -18.057  15.745 -47.172  0.00  0.00    +0.000 A 
ATOM      6  C   UNL     1     -19.433  15.272 -45.515  0.00  0.00    +0.000 A 
ATOM      7  C   UNL     1     -20.553  15.324 -47.539  0.00  0.00    +0.000 A 
ATOM      8  C   UNL     1     -21.570  15.052 -46.704  0.00  0.00    +0.000 A 
ENDROOT
BRANCH   4   9
ATOM      9  C   UNL     1     -15.997  15.975 -45.653  0.00  0.00    +0.000 A 
ATOM     10  C   UNL     1     -15.057  14.942 -45.555  0.00  0.00    +0.000 A 
ATOM     11  C   UNL     1     -15.556  17.290 -45.456  0.00  0.00    +0.000 A 
ATOM     12  C   UNL     1     -13.267  16.530 -45.160  0.00  0.00    +0.000 A 
ATOM     13  C   UNL     1     -13.704  15.215 -45.332  0.00  0.00    +0.000 A 
ATOM     14  C   UNL     1     -14.207  17.566 -45.207  0.00  0.00    +0.000 A 
ATOM     15  C   UNL     1     -11.827  16.820 -44.861  0.00  0.00    +0.000 C 
ENDBRANCH   4   9
BRANCH   5  17
ATOM     16  N   UNL     1     -17.448  15.098 -49.356  0.00  0.00    +0.000 NA
ATOM     17  C   UNL     1     -17.596  16.046 -48.493  0.00  0.00    +0.000 C 
BRANCH  16  18
ATOM     18  O   UNL     1     -17.040  15.623 -50.587  0.00  0.00    +0.000 OA
BRANCH  18  19
ATOM     19  C   UNL     1     -16.227  16.770 -50.317  0.00  0.00    +0.000 C 
BRANCH  19  22
ATOM     20 CL   UNL     1     -15.432  16.791 -53.369  0.00  0.00    +0.000 Cl
ATOM     21  F   UNL     1     -14.210  16.356 -48.417  0.00  0.00    +0.000 F 
ATOM     22  C   UNL     1     -14.801  16.514 -50.711  0.00  0.00    +0.000 A 
ATOM     23  C   UNL     1     -14.360  16.512 -52.041  0.00  0.00    +0.000 A 
ATOM     24  C   UNL     1     -13.843  16.329 -49.707  0.00  0.00    +0.000 A 
ATOM     25  C   UNL     1     -13.008  16.304 -52.345  0.00  0.00    +0.000 A 
ATOM     26  C   UNL     1     -12.496  16.132 -50.000  0.00  0.00    +0.000 A 
ATOM     27  C   UNL     1     -12.076  16.115 -51.326  0.00  0.00    +0.000 A 
ENDBRANCH  19  22
ENDBRANCH  18  19
ENDBRANCH  16  18
ENDBRANCH   5  17
TORSDOF 5
ENDMDL
