MODEL 1
REMARK VINA RESULT:      -5.1      0.000      0.000
REMARK  Name = 9656824
REMARK  5 active torsions:
REMARK  status: ('A' for Active; 'I' for Inactive)
REMARK    1  A    between atoms: O_4  and  N_7
REMARK    2  A    between atoms: O_4  and  C_20
REMARK    3  A    between atoms: C_8  and  C_13
REMARK    4  A    between atoms: C_9  and  C_11
REMARK    5  A    between atoms: C_17  and  C_20
REMARK                            x       y       z     vdW  Elec       q    Type
REMARK                         _______ _______ _______ _____ _____    ______ ____
ROOT
ATOM      1  S   UNL     1      -1.360  14.309  34.891  0.00  0.00    +0.000 S 
ATOM      2  N   UNL     1      -1.017  11.979  35.910  0.00  0.00    +0.000 N 
ATOM      3  N   UNL     1      -3.122  12.619  36.280  0.00  0.00    +0.000 NA
ATOM      4  C   UNL     1      -1.584  10.921  36.571  0.00  0.00    +0.000 A 
ATOM      5  C   UNL     1      -2.886  11.366  36.824  0.00  0.00    +0.000 A 
ATOM      6  C   UNL     1      -1.972  12.937  35.762  0.00  0.00    +0.000 A 
ATOM      7  C   UNL     1       0.210  12.277  35.353  0.00  0.00    +0.000 A 
ATOM      8  C   UNL     1       0.208  13.488  34.768  0.00  0.00    +0.000 A 
ENDROOT
BRANCH   5   9
ATOM      9  C   UNL     1      -3.899  10.641  37.575  0.00  0.00    +0.000 A 
ATOM     10  C   UNL     1      -4.122  10.945  38.923  0.00  0.00    +0.000 A 
ATOM     11  C   UNL     1      -4.662   9.629  36.975  0.00  0.00    +0.000 A 
ATOM     12  C   UNL     1      -5.124  10.281  39.638  0.00  0.00    +0.000 A 
ATOM     13  C   UNL     1      -5.672   8.978  37.681  0.00  0.00    +0.000 A 
ATOM     14  C   UNL     1      -5.899   9.304  39.011  0.00  0.00    +0.000 A 
ENDBRANCH   5   9
BRANCH   4  16
ATOM     15  N   UNL     1      -0.439   9.462  38.055  0.00  0.00    +0.000 NA
ATOM     16  C   UNL     1      -0.941   9.676  36.881  0.00  0.00    +0.000 C 
BRANCH  15  17
ATOM     17  O   UNL     1       0.098   8.159  38.102  0.00  0.00    +0.000 OA
BRANCH  17  18
ATOM     18  C   UNL     1      -0.949   7.224  37.816  0.00  0.00    +0.000 C 
BRANCH  18  21
ATOM     19 CL   UNL     1       0.348   4.805  39.329  0.00  0.00    +0.000 Cl
ATOM     20 CL   UNL     1      -3.687   5.240  42.833  0.00  0.00    +0.000 Cl
ATOM     21  C   UNL     1      -1.603   6.716  39.083  0.00  0.00    +0.000 A 
ATOM     22  C   UNL     1      -1.085   5.637  39.820  0.00  0.00    +0.000 A 
ATOM     23  C   UNL     1      -2.803   7.307  39.527  0.00  0.00    +0.000 A 
ATOM     24  C   UNL     1      -1.731   5.179  40.975  0.00  0.00    +0.000 A 
ATOM     25  C   UNL     1      -3.445   6.853  40.684  0.00  0.00    +0.000 A 
ATOM     26  C   UNL     1      -2.903   5.794  41.405  0.00  0.00    +0.000 A 
ENDBRANCH  18  21
ENDBRANCH  17  18
ENDBRANCH  15  17
ENDBRANCH   4  16
TORSDOF 5
ENDMDL
MODEL 2
REMARK VINA RESULT:      -5.1     21.552     23.701
REMARK  Name = 9656824
REMARK  5 active torsions:
REMARK  status: ('A' for Active; 'I' for Inactive)
REMARK    1  A    between atoms: O_4  and  N_7
REMARK    2  A    between atoms: O_4  and  C_20
REMARK    3  A    between atoms: C_8  and  C_13
REMARK    4  A    between atoms: C_9  and  C_11
REMARK    5  A    between atoms: C_17  and  C_20
REMARK                            x       y       z     vdW  Elec       q    Type
REMARK                         _______ _______ _______ _____ _____    ______ ____
ROOT
ATOM      1  S   UNL     1     -15.703   3.376  24.772  0.00  0.00    +0.000 S 
ATOM      2  N   UNL     1     -16.094   4.555  22.526  0.00  0.00    +0.000 N 
ATOM      3  N   UNL     1     -14.135   5.228  23.356  0.00  0.00    +0.000 NA
ATOM      4  C   UNL     1     -15.600   5.415  21.580  0.00  0.00    +0.000 A 
ATOM      5  C   UNL     1     -14.396   5.849  22.144  0.00  0.00    +0.000 A 
ATOM      6  C   UNL     1     -15.186   4.481  23.536  0.00  0.00    +0.000 A 
ATOM      7  C   UNL     1     -17.211   3.760  22.678  0.00  0.00    +0.000 A 
ATOM      8  C   UNL     1     -17.171   3.060  23.826  0.00  0.00    +0.000 A 
ENDROOT
BRANCH   5   9
ATOM      9  C   UNL     1     -13.500   6.841  21.572  0.00  0.00    +0.000 A 
ATOM     10  C   UNL     1     -13.829   8.200  21.634  0.00  0.00    +0.000 A 
ATOM     11  C   UNL     1     -12.303   6.463  20.946  0.00  0.00    +0.000 A 
ATOM     12  C   UNL     1     -12.951   9.161  21.123  0.00  0.00    +0.000 A 
ATOM     13  C   UNL     1     -11.419   7.420  20.451  0.00  0.00    +0.000 A 
ATOM     14  C   UNL     1     -11.746   8.766  20.539  0.00  0.00    +0.000 A 
ENDBRANCH   5   9
BRANCH   4  16
ATOM     15  N   UNL     1     -17.321   6.406  20.277  0.00  0.00    +0.000 NA
ATOM     16  C   UNL     1     -16.216   5.732  20.324  0.00  0.00    +0.000 C 
BRANCH  15  17
ATOM     17  O   UNL     1     -17.689   6.608  18.931  0.00  0.00    +0.000 OA
BRANCH  17  18
ATOM     18  C   UNL     1     -17.003   7.766  18.441  0.00  0.00    +0.000 C 
BRANCH  18  21
ATOM     19 CL   UNL     1     -14.335   9.250  17.732  0.00  0.00    +0.000 Cl
ATOM     20 CL   UNL     1     -14.524   6.679  13.031  0.00  0.00    +0.000 Cl
ATOM     21  C   UNL     1     -16.351   7.502  17.101  0.00  0.00    +0.000 A 
ATOM     22  C   UNL     1     -15.155   8.126  16.707  0.00  0.00    +0.000 A 
ATOM     23  C   UNL     1     -16.980   6.636  16.185  0.00  0.00    +0.000 A 
ATOM     24  C   UNL     1     -14.593   7.876  15.449  0.00  0.00    +0.000 A 
ATOM     25  C   UNL     1     -16.416   6.382  14.931  0.00  0.00    +0.000 A 
ATOM     26  C   UNL     1     -15.223   6.999  14.571  0.00  0.00    +0.000 A 
ENDBRANCH  18  21
ENDBRANCH  17  18
ENDBRANCH  15  17
ENDBRANCH   4  16
TORSDOF 5
ENDMDL
MODEL 3
REMARK VINA RESULT:      -4.7     18.037     20.631
REMARK  Name = 9656824
REMARK  5 active torsions:
REMARK  status: ('A' for Active; 'I' for Inactive)
REMARK    1  A    between atoms: O_4  and  N_7
REMARK    2  A    between atoms: O_4  and  C_20
REMARK    3  A    between atoms: C_8  and  C_13
REMARK    4  A    between atoms: C_9  and  C_11
REMARK    5  A    between atoms: C_17  and  C_20
REMARK                            x       y       z     vdW  Elec       q    Type
REMARK                         _______ _______ _______ _____ _____    ______ ____
ROOT
ATOM      1  S   UNL     1      -1.083  16.673  15.649  0.00  0.00    +0.000 S 
ATOM      2  N   UNL     1       1.106  16.433  16.966  0.00  0.00    +0.000 N 
ATOM      3  N   UNL     1      -0.606  16.271  18.388  0.00  0.00    +0.000 NA
ATOM      4  C   UNL     1       1.695  16.215  18.185  0.00  0.00    +0.000 A 
ATOM      5  C   UNL     1       0.603  16.157  19.058  0.00  0.00    +0.000 A 
ATOM      6  C   UNL     1      -0.241  16.445  17.150  0.00  0.00    +0.000 A 
ATOM      7  C   UNL     1       1.525  16.596  15.662  0.00  0.00    +0.000 A 
ATOM      8  C   UNL     1       0.486  16.741  14.821  0.00  0.00    +0.000 A 
ENDROOT
BRANCH   5   9
ATOM      9  C   UNL     1       0.679  16.013  20.503  0.00  0.00    +0.000 A 
ATOM     10  C   UNL     1       0.764  14.739  21.076  0.00  0.00    +0.000 A 
ATOM     11  C   UNL     1       0.662  17.134  21.346  0.00  0.00    +0.000 A 
ATOM     12  C   UNL     1       0.881  14.597  22.462  0.00  0.00    +0.000 A 
ATOM     13  C   UNL     1       0.794  16.995  22.726  0.00  0.00    +0.000 A 
ATOM     14  C   UNL     1       0.902  15.728  23.281  0.00  0.00    +0.000 A 
ENDBRANCH   5   9
BRANCH   4  16
ATOM     15  N   UNL     1       3.721  14.979  18.118  0.00  0.00    +0.000 NA
ATOM     16  C   UNL     1       3.101  16.071  18.430  0.00  0.00    +0.000 C 
BRANCH  15  17
ATOM     17  O   UNL     1       5.089  15.113  18.431  0.00  0.00    +0.000 OA
BRANCH  17  18
ATOM     18  C   UNL     1       5.226  16.107  19.454  0.00  0.00    +0.000 C 
BRANCH  18  21
ATOM     19 CL   UNL     1       4.399  15.896  22.470  0.00  0.00    +0.000 Cl
ATOM     20 CL   UNL     1       9.507  14.597  23.452  0.00  0.00    +0.000 Cl
ATOM     21  C   UNL     1       6.272  15.716  20.475  0.00  0.00    +0.000 A 
ATOM     22  C   UNL     1       5.983  15.599  21.846  0.00  0.00    +0.000 A 
ATOM     23  C   UNL     1       7.600  15.504  20.057  0.00  0.00    +0.000 A 
ATOM     24  C   UNL     1       6.982  15.258  22.765  0.00  0.00    +0.000 A 
ATOM     25  C   UNL     1       8.598  15.158  20.975  0.00  0.00    +0.000 A 
ATOM     26  C   UNL     1       8.283  15.032  22.324  0.00  0.00    +0.000 A 
ENDBRANCH  18  21
ENDBRANCH  17  18
ENDBRANCH  15  17
ENDBRANCH   4  16
TORSDOF 5
ENDMDL
MODEL 4
REMARK VINA RESULT:      -4.7     21.243     23.382
REMARK  Name = 9656824
REMARK  5 active torsions:
REMARK  status: ('A' for Active; 'I' for Inactive)
REMARK    1  A    between atoms: O_4  and  N_7
REMARK    2  A    between atoms: O_4  and  C_20
REMARK    3  A    between atoms: C_8  and  C_13
REMARK    4  A    between atoms: C_9  and  C_11
REMARK    5  A    between atoms: C_17  and  C_20
REMARK                            x       y       z     vdW  Elec       q    Type
REMARK                         _______ _______ _______ _____ _____    ______ ____
ROOT
ATOM      1  S   UNL     1     -15.721   4.362  23.212  0.00  0.00    +0.000 S 
ATOM      2  N   UNL     1     -15.901   6.129  21.360  0.00  0.00    +0.000 N 
ATOM      3  N   UNL     1     -13.799   6.088  22.108  0.00  0.00    +0.000 NA
ATOM      4  C   UNL     1     -15.247   7.059  20.593  0.00  0.00    +0.000 A 
ATOM      5  C   UNL     1     -13.948   7.038  21.110  0.00  0.00    +0.000 A 
ATOM      6  C   UNL     1     -14.996   5.589  22.220  0.00  0.00    +0.000 A 
ATOM      7  C   UNL     1     -17.175   5.608  21.440  0.00  0.00    +0.000 A 
ATOM      8  C   UNL     1     -17.263   4.652  22.382  0.00  0.00    +0.000 A 
ENDROOT
BRANCH   5   9
ATOM      9  C   UNL     1     -12.855   7.903  20.692  0.00  0.00    +0.000 A 
ATOM     10  C   UNL     1     -11.802   7.383  19.930  0.00  0.00    +0.000 A 
ATOM     11  C   UNL     1     -12.829   9.260  21.045  0.00  0.00    +0.000 A 
ATOM     12  C   UNL     1     -10.772   8.220  19.491  0.00  0.00    +0.000 A 
ATOM     13  C   UNL     1     -11.811  10.099  20.594  0.00  0.00    +0.000 A 
ATOM     14  C   UNL     1     -10.784   9.577  19.819  0.00  0.00    +0.000 A 
ENDBRANCH   5   9
BRANCH   4  16
ATOM     15  N   UNL     1     -15.692   7.434  18.290  0.00  0.00    +0.000 NA
ATOM     16  C   UNL     1     -15.819   7.820  19.520  0.00  0.00    +0.000 C 
BRANCH  15  17
ATOM     17  O   UNL     1     -16.370   8.337  17.446  0.00  0.00    +0.000 OA
BRANCH  17  18
ATOM     18  C   UNL     1     -15.711   8.350  16.173  0.00  0.00    +0.000 C 
BRANCH  18  21
ATOM     19 CL   UNL     1     -15.425  11.351  17.032  0.00  0.00    +0.000 Cl
ATOM     20 CL   UNL     1     -10.137  10.682  16.457  0.00  0.00    +0.000 Cl
ATOM     21  C   UNL     1     -14.328   8.956  16.269  0.00  0.00    +0.000 A 
ATOM     22  C   UNL     1     -14.113  10.293  16.646  0.00  0.00    +0.000 A 
ATOM     23  C   UNL     1     -13.206   8.177  15.923  0.00  0.00    +0.000 A 
ATOM     24  C   UNL     1     -12.820  10.827  16.700  0.00  0.00    +0.000 A 
ATOM     25  C   UNL     1     -11.913   8.709  15.982  0.00  0.00    +0.000 A 
ATOM     26  C   UNL     1     -11.727  10.030  16.376  0.00  0.00    +0.000 A 
ENDBRANCH  18  21
ENDBRANCH  17  18
ENDBRANCH  15  17
ENDBRANCH   4  16
TORSDOF 5
ENDMDL
MODEL 5
REMARK VINA RESULT:      -4.6     18.893     21.204
REMARK  Name = 9656824
REMARK  5 active torsions:
REMARK  status: ('A' for Active; 'I' for Inactive)
REMARK    1  A    between atoms: O_4  and  N_7
REMARK    2  A    between atoms: O_4  and  C_20
REMARK    3  A    between atoms: C_8  and  C_13
REMARK    4  A    between atoms: C_9  and  C_11
REMARK    5  A    between atoms: C_17  and  C_20
REMARK                            x       y       z     vdW  Elec       q    Type
REMARK                         _______ _______ _______ _____ _____    ______ ____
ROOT
ATOM      1  S   UNL     1     -21.184   0.267  27.185  0.00  0.00    +0.000 S 
ATOM      2  N   UNL     1     -18.975   1.127  26.200  0.00  0.00    +0.000 N 
ATOM      3  N   UNL     1     -18.727   0.877  28.403  0.00  0.00    +0.000 NA
ATOM      4  C   UNL     1     -17.673   1.480  26.438  0.00  0.00    +0.000 A 
ATOM      5  C   UNL     1     -17.559   1.352  27.827  0.00  0.00    +0.000 A 
ATOM      6  C   UNL     1     -19.535   0.775  27.388  0.00  0.00    +0.000 A 
ATOM      7  C   UNL     1     -19.801   1.010  25.101  0.00  0.00    +0.000 A 
ATOM      8  C   UNL     1     -21.023   0.566  25.442  0.00  0.00    +0.000 A 
ENDROOT
BRANCH   5   9
ATOM      9  C   UNL     1     -16.382   1.681  28.615  0.00  0.00    +0.000 A 
ATOM     10  C   UNL     1     -15.996   3.017  28.774  0.00  0.00    +0.000 A 
ATOM     11  C   UNL     1     -15.612   0.678  29.223  0.00  0.00    +0.000 A 
ATOM     12  C   UNL     1     -14.890   3.341  29.566  0.00  0.00    +0.000 A 
ATOM     13  C   UNL     1     -14.520   1.000  30.025  0.00  0.00    +0.000 A 
ATOM     14  C   UNL     1     -14.160   2.330  30.194  0.00  0.00    +0.000 A 
ENDBRANCH   5   9
BRANCH   4  16
ATOM     15  N   UNL     1     -16.962   2.803  24.599  0.00  0.00    +0.000 NA
ATOM     16  C   UNL     1     -16.706   1.861  25.449  0.00  0.00    +0.000 C 
BRANCH  15  17
ATOM     17  O   UNL     1     -15.841   2.999  23.767  0.00  0.00    +0.000 OA
BRANCH  17  18
ATOM     18  C   UNL     1     -15.042   4.052  24.321  0.00  0.00    +0.000 C 
BRANCH  18  21
ATOM     19 CL   UNL     1     -17.005   6.250  23.252  0.00  0.00    +0.000 Cl
ATOM     20 CL   UNL     1     -13.027   7.771  19.996  0.00  0.00    +0.000 Cl
ATOM     21  C   UNL     1     -14.561   5.007  23.250  0.00  0.00    +0.000 A 
ATOM     22  C   UNL     1     -15.378   6.019  22.718  0.00  0.00    +0.000 A 
ATOM     23  C   UNL     1     -13.263   4.857  22.723  0.00  0.00    +0.000 A 
ATOM     24  C   UNL     1     -14.906   6.870  21.710  0.00  0.00    +0.000 A 
ATOM     25  C   UNL     1     -12.789   5.710  21.721  0.00  0.00    +0.000 A 
ATOM     26  C   UNL     1     -13.612   6.716  21.223  0.00  0.00    +0.000 A 
ENDBRANCH  18  21
ENDBRANCH  17  18
ENDBRANCH  15  17
ENDBRANCH   4  16
TORSDOF 5
ENDMDL
MODEL 6
REMARK VINA RESULT:      -4.6     17.300     19.517
REMARK  Name = 9656824
REMARK  5 active torsions:
REMARK  status: ('A' for Active; 'I' for Inactive)
REMARK    1  A    between atoms: O_4  and  N_7
REMARK    2  A    between atoms: O_4  and  C_20
REMARK    3  A    between atoms: C_8  and  C_13
REMARK    4  A    between atoms: C_9  and  C_11
REMARK    5  A    between atoms: C_17  and  C_20
REMARK                            x       y       z     vdW  Elec       q    Type
REMARK                         _______ _______ _______ _____ _____    ______ ____
ROOT
ATOM      1  S   UNL     1      -0.939  21.397  19.292  0.00  0.00    +0.000 S 
ATOM      2  N   UNL     1      -1.024  19.006  20.220  0.00  0.00    +0.000 N 
ATOM      3  N   UNL     1      -2.751  19.299  18.838  0.00  0.00    +0.000 NA
ATOM      4  C   UNL     1      -1.665  17.795  20.214  0.00  0.00    +0.000 A 
ATOM      5  C   UNL     1      -2.761  18.021  19.374  0.00  0.00    +0.000 A 
ATOM      6  C   UNL     1      -1.703  19.840  19.387  0.00  0.00    +0.000 A 
ATOM      7  C   UNL     1       0.104  19.544  20.804  0.00  0.00    +0.000 A 
ATOM      8  C   UNL     1       0.302  20.818  20.422  0.00  0.00    +0.000 A 
ENDROOT
BRANCH   5   9
ATOM      9  C   UNL     1      -3.817  17.064  19.081  0.00  0.00    +0.000 A 
ATOM     10  C   UNL     1      -5.064  17.184  19.705  0.00  0.00    +0.000 A 
ATOM     11  C   UNL     1      -3.610  16.008  18.181  0.00  0.00    +0.000 A 
ATOM     12  C   UNL     1      -6.095  16.292  19.395  0.00  0.00    +0.000 A 
ATOM     13  C   UNL     1      -4.642  15.129  17.858  0.00  0.00    +0.000 A 
ATOM     14  C   UNL     1      -5.881  15.271  18.467  0.00  0.00    +0.000 A 
ENDBRANCH   5   9
BRANCH   4  16
ATOM     15  N   UNL     1      -1.005  16.644  22.184  0.00  0.00    +0.000 NA
ATOM     16  C   UNL     1      -1.246  16.614  20.912  0.00  0.00    +0.000 C 
BRANCH  15  17
ATOM     17  O   UNL     1      -0.646  15.353  22.622  0.00  0.00    +0.000 OA
BRANCH  17  18
ATOM     18  C   UNL     1       0.352  14.833  21.735  0.00  0.00    +0.000 C 
BRANCH  18  21
ATOM     19 CL   UNL     1       2.106  16.453  19.703  0.00  0.00    +0.000 Cl
ATOM     20 CL   UNL     1       5.918  16.445  23.473  0.00  0.00    +0.000 Cl
ATOM     21  C   UNL     1       1.743  15.264  22.148  0.00  0.00    +0.000 A 
ATOM     22  C   UNL     1       2.592  15.992  21.297  0.00  0.00    +0.000 A 
ATOM     23  C   UNL     1       2.236  14.887  23.412  0.00  0.00    +0.000 A 
ATOM     24  C   UNL     1       3.882  16.353  21.704  0.00  0.00    +0.000 A 
ATOM     25  C   UNL     1       3.523  15.252  23.822  0.00  0.00    +0.000 A 
ATOM     26  C   UNL     1       4.338  15.988  22.967  0.00  0.00    +0.000 A 
ENDBRANCH  18  21
ENDBRANCH  17  18
ENDBRANCH  15  17
ENDBRANCH   4  16
TORSDOF 5
ENDMDL
MODEL 7
REMARK VINA RESULT:      -4.6     14.617     16.857
REMARK  Name = 9656824
REMARK  5 active torsions:
REMARK  status: ('A' for Active; 'I' for Inactive)
REMARK    1  A    between atoms: O_4  and  N_7
REMARK    2  A    between atoms: O_4  and  C_20
REMARK    3  A    between atoms: C_8  and  C_13
REMARK    4  A    between atoms: C_9  and  C_11
REMARK    5  A    between atoms: C_17  and  C_20
REMARK                            x       y       z     vdW  Elec       q    Type
REMARK                         _______ _______ _______ _____ _____    ______ ____
ROOT
ATOM      1  S   UNL     1     -10.921  -9.611  39.638  0.00  0.00    +0.000 S 
ATOM      2  N   UNL     1      -8.746  -8.251  39.733  0.00  0.00    +0.000 N 
ATOM      3  N   UNL     1     -10.452  -6.911  40.256  0.00  0.00    +0.000 NA
ATOM      4  C   UNL     1      -8.160  -7.041  39.999  0.00  0.00    +0.000 A 
ATOM      5  C   UNL     1      -9.253  -6.215  40.284  0.00  0.00    +0.000 A 
ATOM      6  C   UNL     1     -10.087  -8.111  39.911  0.00  0.00    +0.000 A 
ATOM      7  C   UNL     1      -8.325  -9.518  39.385  0.00  0.00    +0.000 A 
ATOM      8  C   UNL     1      -9.357 -10.375  39.287  0.00  0.00    +0.000 A 
ENDROOT
BRANCH   5   9
ATOM      9  C   UNL     1      -9.189  -4.789  40.565  0.00  0.00    +0.000 A 
ATOM     10  C   UNL     1      -9.333  -4.328  41.879  0.00  0.00    +0.000 A 
ATOM     11  C   UNL     1      -8.989  -3.855  39.538  0.00  0.00    +0.000 A 
ATOM     12  C   UNL     1      -9.230  -2.962  42.160  0.00  0.00    +0.000 A 
ATOM     13  C   UNL     1      -8.870  -2.496  39.819  0.00  0.00    +0.000 A 
ATOM     14  C   UNL     1      -8.992  -2.052  41.128  0.00  0.00    +0.000 A 
ENDBRANCH   5   9
BRANCH   4  16
ATOM     15  N   UNL     1      -6.124  -6.563  38.874  0.00  0.00    +0.000 NA
ATOM     16  C   UNL     1      -6.753  -6.763  39.988  0.00  0.00    +0.000 C 
BRANCH  15  17
ATOM     17  O   UNL     1      -4.770  -6.281  39.147  0.00  0.00    +0.000 OA
BRANCH  17  18
ATOM     18  C   UNL     1      -4.542  -6.457  40.550  0.00  0.00    +0.000 C 
BRANCH  18  21
ATOM     19 CL   UNL     1      -4.906  -5.049  43.327  0.00  0.00    +0.000 Cl
ATOM     20 CL   UNL     1      -0.136  -2.768  42.439  0.00  0.00    +0.000 Cl
ATOM     21  C   UNL     1      -3.449  -5.541  41.056  0.00  0.00    +0.000 A 
ATOM     22  C   UNL     1      -3.534  -4.872  42.289  0.00  0.00    +0.000 A 
ATOM     23  C   UNL     1      -2.318  -5.303  40.250  0.00  0.00    +0.000 A 
ATOM     24  C   UNL     1      -2.514  -4.013  42.715  0.00  0.00    +0.000 A 
ATOM     25  C   UNL     1      -1.296  -4.449  40.677  0.00  0.00    +0.000 A 
ATOM     26  C   UNL     1      -1.397  -3.812  41.910  0.00  0.00    +0.000 A 
ENDBRANCH  18  21
ENDBRANCH  17  18
ENDBRANCH  15  17
ENDBRANCH   4  16
TORSDOF 5
ENDMDL
MODEL 8
REMARK VINA RESULT:      -4.5     24.867     27.321
REMARK  Name = 9656824
REMARK  5 active torsions:
REMARK  status: ('A' for Active; 'I' for Inactive)
REMARK    1  A    between atoms: O_4  and  N_7
REMARK    2  A    between atoms: O_4  and  C_20
REMARK    3  A    between atoms: C_8  and  C_13
REMARK    4  A    between atoms: C_9  and  C_11
REMARK    5  A    between atoms: C_17  and  C_20
REMARK                            x       y       z     vdW  Elec       q    Type
REMARK                         _______ _______ _______ _____ _____    ______ ____
ROOT
ATOM      1  S   UNL     1      12.709   8.842  19.578  0.00  0.00    +0.000 S 
ATOM      2  N   UNL     1      14.986   7.768  20.074  0.00  0.00    +0.000 N 
ATOM      3  N   UNL     1      15.164   9.977  20.336  0.00  0.00    +0.000 NA
ATOM      4  C   UNL     1      16.285   7.960  20.467  0.00  0.00    +0.000 A 
ATOM      5  C   UNL     1      16.377   9.352  20.584  0.00  0.00    +0.000 A 
ATOM      6  C   UNL     1      14.381   8.984  20.026  0.00  0.00    +0.000 A 
ATOM      7  C   UNL     1      14.176   6.693  19.770  0.00  0.00    +0.000 A 
ATOM      8  C   UNL     1      12.923   7.083  19.476  0.00  0.00    +0.000 A 
ENDROOT
BRANCH   5   9
ATOM      9  C   UNL     1      17.583  10.098  20.909  0.00  0.00    +0.000 A 
ATOM     10  C   UNL     1      17.789  11.369  20.361  0.00  0.00    +0.000 A 
ATOM     11  C   UNL     1      18.558   9.563  21.764  0.00  0.00    +0.000 A 
ATOM     12  C   UNL     1      18.926  12.107  20.705  0.00  0.00    +0.000 A 
ATOM     13  C   UNL     1      19.683  10.304  22.120  0.00  0.00    +0.000 A 
ATOM     14  C   UNL     1      19.865  11.573  21.589  0.00  0.00    +0.000 A 
ENDBRANCH   5   9
BRANCH   4  16
ATOM     15  N   UNL     1      17.951   6.440  19.724  0.00  0.00    +0.000 NA
ATOM     16  C   UNL     1      17.258   6.933  20.701  0.00  0.00    +0.000 C 
BRANCH  15  17
ATOM     17  O   UNL     1      18.851   5.479  20.229  0.00  0.00    +0.000 OA
BRANCH  17  18
ATOM     18  C   UNL     1      20.061   6.144  20.611  0.00  0.00    +0.000 C 
BRANCH  18  21
ATOM     19 CL   UNL     1      21.052   7.062  23.439  0.00  0.00    +0.000 Cl
ATOM     20 CL   UNL     1      23.756   2.437  23.643  0.00  0.00    +0.000 Cl
ATOM     21  C   UNL     1      20.973   5.230  21.400  0.00  0.00    +0.000 A 
ATOM     22  C   UNL     1      21.462   5.567  22.674  0.00  0.00    +0.000 A 
ATOM     23  C   UNL     1      21.396   4.014  20.828  0.00  0.00    +0.000 A 
ATOM     24  C   UNL     1      22.324   4.707  23.365  0.00  0.00    +0.000 A 
ATOM     25  C   UNL     1      22.253   3.152  21.520  0.00  0.00    +0.000 A 
ATOM     26  C   UNL     1      22.709   3.501  22.787  0.00  0.00    +0.000 A 
ENDBRANCH  18  21
ENDBRANCH  17  18
ENDBRANCH  15  17
ENDBRANCH   4  16
TORSDOF 5
ENDMDL
MODEL 9
REMARK VINA RESULT:      -4.5     17.433     19.327
REMARK  Name = 9656824
REMARK  5 active torsions:
REMARK  status: ('A' for Active; 'I' for Inactive)
REMARK    1  A    between atoms: O_4  and  N_7
REMARK    2  A    between atoms: O_4  and  C_20
REMARK    3  A    between atoms: C_8  and  C_13
REMARK    4  A    between atoms: C_9  and  C_11
REMARK    5  A    between atoms: C_17  and  C_20
REMARK                            x       y       z     vdW  Elec       q    Type
REMARK                         _______ _______ _______ _____ _____    ______ ____
ROOT
ATOM      1  S   UNL     1     -18.421   9.396  22.079  0.00  0.00    +0.000 S 
ATOM      2  N   UNL     1     -15.986  10.151  22.378  0.00  0.00    +0.000 N 
ATOM      3  N   UNL     1     -16.044   8.499  20.879  0.00  0.00    +0.000 NA
ATOM      4  C   UNL     1     -14.681   9.999  21.988  0.00  0.00    +0.000 A 
ATOM      5  C   UNL     1     -14.744   8.934  21.082  0.00  0.00    +0.000 A 
ATOM      6  C   UNL     1     -16.735   9.252  21.685  0.00  0.00    +0.000 A 
ATOM      7  C   UNL     1     -16.692  10.978  23.227  0.00  0.00    +0.000 A 
ATOM      8  C   UNL     1     -18.010  10.712  23.197  0.00  0.00    +0.000 A 
ENDROOT
BRANCH   5   9
ATOM      9  C   UNL     1     -13.606   8.315  20.421  0.00  0.00    +0.000 A 
ATOM     10  C   UNL     1     -12.710   7.530  21.156  0.00  0.00    +0.000 A 
ATOM     11  C   UNL     1     -13.379   8.494  19.048  0.00  0.00    +0.000 A 
ATOM     12  C   UNL     1     -11.639   6.898  20.516  0.00  0.00    +0.000 A 
ATOM     13  C   UNL     1     -12.322   7.852  18.406  0.00  0.00    +0.000 A 
ATOM     14  C   UNL     1     -11.453   7.057  19.142  0.00  0.00    +0.000 A 
ENDBRANCH   5   9
BRANCH   4  16
ATOM     15  N   UNL     1     -12.791  10.371  23.376  0.00  0.00    +0.000 NA
ATOM     16  C   UNL     1     -13.569  10.790  22.430  0.00  0.00    +0.000 C 
BRANCH  15  17
ATOM     17  O   UNL     1     -11.768  11.317  23.591  0.00  0.00    +0.000 OA
BRANCH  17  18
ATOM     18  C   UNL     1     -12.189  12.215  24.625  0.00  0.00    +0.000 C 
BRANCH  18  21
ATOM     19 CL   UNL     1     -14.006  13.259  26.956  0.00  0.00    +0.000 Cl
ATOM     20 CL   UNL     1     -11.514   9.681  30.076  0.00  0.00    +0.000 Cl
ATOM     21  C   UNL     1     -12.053  11.589  25.996  0.00  0.00    +0.000 A 
ATOM     22  C   UNL     1     -12.830  11.999  27.094  0.00  0.00    +0.000 A 
ATOM     23  C   UNL     1     -11.084  10.589  26.207  0.00  0.00    +0.000 A 
ATOM     24  C   UNL     1     -12.660  11.413  28.354  0.00  0.00    +0.000 A 
ATOM     25  C   UNL     1     -10.918  10.000  27.464  0.00  0.00    +0.000 A 
ATOM     26  C   UNL     1     -11.711  10.411  28.531  0.00  0.00    +0.000 A 
ENDBRANCH  18  21
ENDBRANCH  17  18
ENDBRANCH  15  17
ENDBRANCH   4  16
TORSDOF 5
ENDMDL
MODEL 10
REMARK VINA RESULT:      -4.4     43.766     45.362
REMARK  Name = 9656824
REMARK  5 active torsions:
REMARK  status: ('A' for Active; 'I' for Inactive)
REMARK    1  A    between atoms: O_4  and  N_7
REMARK    2  A    between atoms: O_4  and  C_20
REMARK    3  A    between atoms: C_8  and  C_13
REMARK    4  A    between atoms: C_9  and  C_11
REMARK    5  A    between atoms: C_17  and  C_20
REMARK                            x       y       z     vdW  Elec       q    Type
REMARK                         _______ _______ _______ _____ _____    ______ ____
ROOT
ATOM      1  S   UNL     1       2.336 -22.386   3.179  0.00  0.00    +0.000 S 
ATOM      2  N   UNL     1       3.300 -20.010   3.286  0.00  0.00    +0.000 N 
ATOM      3  N   UNL     1       2.052 -20.358   5.102  0.00  0.00    +0.000 NA
ATOM      4  C   UNL     1       3.409 -18.847   4.002  0.00  0.00    +0.000 A 
ATOM      5  C   UNL     1       2.588 -19.079   5.110  0.00  0.00    +0.000 A 
ATOM      6  C   UNL     1       2.501 -20.858   3.988  0.00  0.00    +0.000 A 
ATOM      7  C   UNL     1       3.809 -20.518   2.108  0.00  0.00    +0.000 A 
ATOM      8  C   UNL     1       3.394 -21.778   1.890  0.00  0.00    +0.000 A 
ENDROOT
BRANCH   5   9
ATOM      9  C   UNL     1       2.290 -18.119   6.162  0.00  0.00    +0.000 A 
ATOM     10  C   UNL     1       3.025 -18.134   7.353  0.00  0.00    +0.000 A 
ATOM     11  C   UNL     1       1.266 -17.172   6.010  0.00  0.00    +0.000 A 
ATOM     12  C   UNL     1       2.770 -17.186   8.349  0.00  0.00    +0.000 A 
ATOM     13  C   UNL     1       1.022 -16.217   6.995  0.00  0.00    +0.000 A 
ATOM     14  C   UNL     1       1.773 -16.227   8.162  0.00  0.00    +0.000 A 
ENDBRANCH   5   9
BRANCH   4  16
ATOM     15  N   UNL     1       3.832 -16.898   2.712  0.00  0.00    +0.000 NA
ATOM     16  C   UNL     1       4.208 -17.709   3.649  0.00  0.00    +0.000 C 
BRANCH  15  17
ATOM     17  O   UNL     1       4.773 -15.856   2.590  0.00  0.00    +0.000 OA
BRANCH  17  18
ATOM     18  C   UNL     1       5.661 -16.169   1.510  0.00  0.00    +0.000 C 
BRANCH  18  21
ATOM     19 CL   UNL     1       5.293 -18.438  -0.621  0.00  0.00    +0.000 Cl
ATOM     20 CL   UNL     1       3.269 -14.655  -3.836  0.00  0.00    +0.000 Cl
ATOM     21  C   UNL     1       5.050 -15.823   0.169  0.00  0.00    +0.000 A 
ATOM     22  C   UNL     1       4.851 -16.781  -0.840  0.00  0.00    +0.000 A 
ATOM     23  C   UNL     1       4.707 -14.486  -0.110  0.00  0.00    +0.000 A 
ATOM     24  C   UNL     1       4.305 -16.420  -2.078  0.00  0.00    +0.000 A 
ATOM     25  C   UNL     1       4.157 -14.125  -1.344  0.00  0.00    +0.000 A 
ATOM     26  C   UNL     1       3.954 -15.096  -2.320  0.00  0.00    +0.000 A 
ENDBRANCH  18  21
ENDBRANCH  17  18
ENDBRANCH  15  17
ENDBRANCH   4  16
TORSDOF 5
ENDMDL
