MODEL 1
REMARK VINA RESULT:      -5.6      0.000      0.000
REMARK  Name = 9656824
REMARK  5 active torsions:
REMARK  status: ('A' for Active; 'I' for Inactive)
REMARK    1  A    between atoms: O_4  and  N_7
REMARK    2  A    between atoms: O_4  and  C_20
REMARK    3  A    between atoms: C_8  and  C_13
REMARK    4  A    between atoms: C_9  and  C_11
REMARK    5  A    between atoms: C_17  and  C_20
REMARK                            x       y       z     vdW  Elec       q    Type
REMARK                         _______ _______ _______ _____ _____    ______ ____
ROOT
ATOM      1  S   UNL     1      -1.404  -2.519 -50.976  0.00  0.00    +0.000 S 
ATOM      2  N   UNL     1      -2.518  -0.415 -51.935  0.00  0.00    +0.000 N 
ATOM      3  N   UNL     1      -3.956  -2.116 -52.081  0.00  0.00    +0.000 NA
ATOM      4  C   UNL     1      -3.646   0.138 -52.482  0.00  0.00    +0.000 A 
ATOM      5  C   UNL     1      -4.511  -0.955 -52.598  0.00  0.00    +0.000 A 
ATOM      6  C   UNL     1      -2.767  -1.734 -51.713  0.00  0.00    +0.000 A 
ATOM      7  C   UNL     1      -1.273   0.026 -51.538  0.00  0.00    +0.000 A 
ATOM      8  C   UNL     1      -0.540  -0.968 -51.005  0.00  0.00    +0.000 A 
ENDROOT
BRANCH   5   9
ATOM      9  C   UNL     1      -5.837  -0.929 -53.196  0.00  0.00    +0.000 A 
ATOM     10  C   UNL     1      -6.974  -1.011 -52.383  0.00  0.00    +0.000 A 
ATOM     11  C   UNL     1      -6.004  -0.829 -54.585  0.00  0.00    +0.000 A 
ATOM     12  C   UNL     1      -8.250  -0.943 -52.950  0.00  0.00    +0.000 A 
ATOM     13  C   UNL     1      -7.275  -0.745 -55.150  0.00  0.00    +0.000 A 
ATOM     14  C   UNL     1      -8.395  -0.804 -54.332  0.00  0.00    +0.000 A 
ENDBRANCH   5   9
BRANCH   4  16
ATOM     15  N   UNL     1      -4.745   2.228 -52.228  0.00  0.00    +0.000 NA
ATOM     16  C   UNL     1      -3.833   1.521 -52.815  0.00  0.00    +0.000 C 
BRANCH  15  17
ATOM     17  O   UNL     1      -4.693   3.551 -52.713  0.00  0.00    +0.000 OA
BRANCH  17  18
ATOM     18  C   UNL     1      -5.228   3.570 -54.042  0.00  0.00    +0.000 C 
BRANCH  18  21
ATOM     19 CL   UNL     1      -4.444   2.910 -57.004  0.00  0.00    +0.000 Cl
ATOM     20 CL   UNL     1      -2.595   7.933 -57.301  0.00  0.00    +0.000 Cl
ATOM     21  C   UNL     1      -4.582   4.647 -54.886  0.00  0.00    +0.000 A 
ATOM     22  C   UNL     1      -4.201   4.432 -56.222  0.00  0.00    +0.000 A 
ATOM     23  C   UNL     1      -4.303   5.902 -54.311  0.00  0.00    +0.000 A 
ATOM     24  C   UNL     1      -3.583   5.445 -56.966  0.00  0.00    +0.000 A 
ATOM     25  C   UNL     1      -3.691   6.916 -55.056  0.00  0.00    +0.000 A 
ATOM     26  C   UNL     1      -3.339   6.684 -56.382  0.00  0.00    +0.000 A 
ENDBRANCH  18  21
ENDBRANCH  17  18
ENDBRANCH  15  17
ENDBRANCH   4  16
TORSDOF 5
ENDMDL
MODEL 2
REMARK VINA RESULT:      -5.5      5.804      8.457
REMARK  Name = 9656824
REMARK  5 active torsions:
REMARK  status: ('A' for Active; 'I' for Inactive)
REMARK    1  A    between atoms: O_4  and  N_7
REMARK    2  A    between atoms: O_4  and  C_20
REMARK    3  A    between atoms: C_8  and  C_13
REMARK    4  A    between atoms: C_9  and  C_11
REMARK    5  A    between atoms: C_17  and  C_20
REMARK                            x       y       z     vdW  Elec       q    Type
REMARK                         _______ _______ _______ _____ _____    ______ ____
ROOT
ATOM      1  S   UNL     1       0.729   8.542 -57.190  0.00  0.00    +0.000 S 
ATOM      2  N   UNL     1      -1.468   7.585 -58.110  0.00  0.00    +0.000 N 
ATOM      3  N   UNL     1      -1.298   7.042 -55.952  0.00  0.00    +0.000 NA
ATOM      4  C   UNL     1      -2.621   6.896 -57.840  0.00  0.00    +0.000 A 
ATOM      5  C   UNL     1      -2.468   6.536 -56.497  0.00  0.00    +0.000 A 
ATOM      6  C   UNL     1      -0.740   7.645 -56.962  0.00  0.00    +0.000 A 
ATOM      7  C   UNL     1      -0.912   8.232 -59.194  0.00  0.00    +0.000 A 
ATOM      8  C   UNL     1       0.267   8.800 -58.884  0.00  0.00    +0.000 A 
ENDROOT
BRANCH   5   9
ATOM      9  C   UNL     1      -3.392   5.717 -55.728  0.00  0.00    +0.000 A 
ATOM     10  C   UNL     1      -3.588   4.374 -56.068  0.00  0.00    +0.000 A 
ATOM     11  C   UNL     1      -4.105   6.251 -54.644  0.00  0.00    +0.000 A 
ATOM     12  C   UNL     1      -4.443   3.572 -55.305  0.00  0.00    +0.000 A 
ATOM     13  C   UNL     1      -4.944   5.450 -53.873  0.00  0.00    +0.000 A 
ATOM     14  C   UNL     1      -5.113   4.113 -54.206  0.00  0.00    +0.000 A 
ENDBRANCH   5   9
BRANCH   4  16
ATOM     15  N   UNL     1      -3.707   5.597 -59.505  0.00  0.00    +0.000 NA
ATOM     16  C   UNL     1      -3.695   6.655 -58.760  0.00  0.00    +0.000 C 
BRANCH  15  17
ATOM     17  O   UNL     1      -4.881   5.588 -60.285  0.00  0.00    +0.000 OA
BRANCH  17  18
ATOM     18  C   UNL     1      -5.914   4.928 -59.544  0.00  0.00    +0.000 C 
BRANCH  18  21
ATOM     19 CL   UNL     1      -4.464   2.263 -58.759  0.00  0.00    +0.000 Cl
ATOM     20 CL   UNL     1      -7.661  -0.155 -62.320  0.00  0.00    +0.000 Cl
ATOM     21  C   UNL     1      -6.341   3.638 -60.210  0.00  0.00    +0.000 A 
ATOM     22  C   UNL     1      -5.742   2.401 -59.914  0.00  0.00    +0.000 A 
ATOM     23  C   UNL     1      -7.343   3.670 -61.200  0.00  0.00    +0.000 A 
ATOM     24  C   UNL     1      -6.146   1.231 -60.568  0.00  0.00    +0.000 A 
ATOM     25  C   UNL     1      -7.751   2.500 -61.850  0.00  0.00    +0.000 A 
ATOM     26  C   UNL     1      -7.154   1.285 -61.527  0.00  0.00    +0.000 A 
ENDBRANCH  18  21
ENDBRANCH  17  18
ENDBRANCH  15  17
ENDBRANCH   4  16
TORSDOF 5
ENDMDL
MODEL 3
REMARK VINA RESULT:      -5.5      4.530      6.976
REMARK  Name = 9656824
REMARK  5 active torsions:
REMARK  status: ('A' for Active; 'I' for Inactive)
REMARK    1  A    between atoms: O_4  and  N_7
REMARK    2  A    between atoms: O_4  and  C_20
REMARK    3  A    between atoms: C_8  and  C_13
REMARK    4  A    between atoms: C_9  and  C_11
REMARK    5  A    between atoms: C_17  and  C_20
REMARK                            x       y       z     vdW  Elec       q    Type
REMARK                         _______ _______ _______ _____ _____    ______ ____
ROOT
ATOM      1  S   UNL     1      -7.806  -1.387 -53.128  0.00  0.00    +0.000 S 
ATOM      2  N   UNL     1      -5.989   0.149 -52.164  0.00  0.00    +0.000 N 
ATOM      3  N   UNL     1      -6.628   0.951 -54.146  0.00  0.00    +0.000 NA
ATOM      4  C   UNL     1      -5.245   1.288 -52.327  0.00  0.00    +0.000 A 
ATOM      5  C   UNL     1      -5.637   1.745 -53.590  0.00  0.00    +0.000 A 
ATOM      6  C   UNL     1      -6.786   0.013 -53.258  0.00  0.00    +0.000 A 
ATOM      7  C   UNL     1      -6.147  -0.820 -51.195  0.00  0.00    +0.000 A 
ATOM      8  C   UNL     1      -7.077  -1.726 -51.545  0.00  0.00    +0.000 A 
ENDROOT
BRANCH   5   9
ATOM      9  C   UNL     1      -5.087   2.900 -54.282  0.00  0.00    +0.000 A 
ATOM     10  C   UNL     1      -5.446   4.193 -53.883  0.00  0.00    +0.000 A 
ATOM     11  C   UNL     1      -4.200   2.746 -55.358  0.00  0.00    +0.000 A 
ATOM     12  C   UNL     1      -4.887   5.306 -54.518  0.00  0.00    +0.000 A 
ATOM     13  C   UNL     1      -3.629   3.855 -55.981  0.00  0.00    +0.000 A 
ATOM     14  C   UNL     1      -3.975   5.132 -55.561  0.00  0.00    +0.000 A 
ENDBRANCH   5   9
BRANCH   4  16
ATOM     15  N   UNL     1      -3.061   1.527 -51.425  0.00  0.00    +0.000 NA
ATOM     16  C   UNL     1      -4.318   1.834 -51.378  0.00  0.00    +0.000 C 
BRANCH  15  17
ATOM     17  O   UNL     1      -2.372   2.220 -50.409  0.00  0.00    +0.000 OA
BRANCH  17  18
ATOM     18  C   UNL     1      -1.185   1.487 -50.083  0.00  0.00    +0.000 C 
BRANCH  18  21
ATOM     19 CL   UNL     1       0.609  -0.295 -48.230  0.00  0.00    +0.000 Cl
ATOM     20 CL   UNL     1       1.781   4.208 -45.567  0.00  0.00    +0.000 Cl
ATOM     21  C   UNL     1      -0.419   2.142 -48.955  0.00  0.00    +0.000 A 
ATOM     22  C   UNL     1       0.407   1.415 -48.080  0.00  0.00    +0.000 A 
ATOM     23  C   UNL     1      -0.565   3.525 -48.731  0.00  0.00    +0.000 A 
ATOM     24  C   UNL     1       1.083   2.051 -47.031  0.00  0.00    +0.000 A 
ATOM     25  C   UNL     1       0.114   4.163 -47.687  0.00  0.00    +0.000 A 
ATOM     26  C   UNL     1       0.938   3.423 -46.845  0.00  0.00    +0.000 A 
ENDBRANCH  18  21
ENDBRANCH  17  18
ENDBRANCH  15  17
ENDBRANCH   4  16
TORSDOF 5
ENDMDL
MODEL 4
REMARK VINA RESULT:      -5.5     18.645     21.079
REMARK  Name = 9656824
REMARK  5 active torsions:
REMARK  status: ('A' for Active; 'I' for Inactive)
REMARK    1  A    between atoms: O_4  and  N_7
REMARK    2  A    between atoms: O_4  and  C_20
REMARK    3  A    between atoms: C_8  and  C_13
REMARK    4  A    between atoms: C_9  and  C_11
REMARK    5  A    between atoms: C_17  and  C_20
REMARK                            x       y       z     vdW  Elec       q    Type
REMARK                         _______ _______ _______ _____ _____    ______ ____
ROOT
ATOM      1  S   UNL     1     -23.377  11.886 -55.654  0.00  0.00    +0.000 S 
ATOM      2  N   UNL     1     -23.005   9.914 -54.053  0.00  0.00    +0.000 N 
ATOM      3  N   UNL     1     -22.310   9.323 -56.090  0.00  0.00    +0.000 NA
ATOM      4  C   UNL     1     -22.528   8.640 -53.894  0.00  0.00    +0.000 A 
ATOM      5  C   UNL     1     -22.138   8.283 -55.189  0.00  0.00    +0.000 A 
ATOM      6  C   UNL     1     -22.839  10.261 -55.358  0.00  0.00    +0.000 A 
ATOM      7  C   UNL     1     -23.546  10.894 -53.247  0.00  0.00    +0.000 A 
ATOM      8  C   UNL     1     -23.810  12.017 -53.938  0.00  0.00    +0.000 A 
ENDROOT
BRANCH   5   9
ATOM      9  C   UNL     1     -21.623   6.984 -55.593  0.00  0.00    +0.000 A 
ATOM     10  C   UNL     1     -20.255   6.817 -55.835  0.00  0.00    +0.000 A 
ATOM     11  C   UNL     1     -22.478   5.883 -55.754  0.00  0.00    +0.000 A 
ATOM     12  C   UNL     1     -19.750   5.560 -56.181  0.00  0.00    +0.000 A 
ATOM     13  C   UNL     1     -21.974   4.627 -56.084  0.00  0.00    +0.000 A 
ATOM     14  C   UNL     1     -20.612   4.468 -56.298  0.00  0.00    +0.000 A 
ENDBRANCH   5   9
BRANCH   4  16
ATOM     15  N   UNL     1     -23.466   7.213 -52.243  0.00  0.00    +0.000 NA
ATOM     16  C   UNL     1     -22.458   7.912 -52.660  0.00  0.00    +0.000 C 
BRANCH  15  17
ATOM     17  O   UNL     1     -23.124   6.577 -51.032  0.00  0.00    +0.000 OA
BRANCH  17  18
ATOM     18  C   UNL     1     -22.641   7.569 -50.118  0.00  0.00    +0.000 C 
BRANCH  18  21
ATOM     19 CL   UNL     1     -24.318  10.208 -49.902  0.00  0.00    +0.000 Cl
ATOM     20 CL   UNL     1     -26.306   8.197 -45.347  0.00  0.00    +0.000 Cl
ATOM     21  C   UNL     1     -23.578   7.747 -48.944  0.00  0.00    +0.000 A 
ATOM     22  C   UNL     1     -24.365   8.900 -48.773  0.00  0.00    +0.000 A 
ATOM     23  C   UNL     1     -23.641   6.750 -47.951  0.00  0.00    +0.000 A 
ATOM     24  C   UNL     1     -25.204   9.041 -47.661  0.00  0.00    +0.000 A 
ATOM     25  C   UNL     1     -24.483   6.887 -46.843  0.00  0.00    +0.000 A 
ATOM     26  C   UNL     1     -25.264   8.031 -46.706  0.00  0.00    +0.000 A 
ENDBRANCH  18  21
ENDBRANCH  17  18
ENDBRANCH  15  17
ENDBRANCH   4  16
TORSDOF 5
ENDMDL
MODEL 5
REMARK VINA RESULT:      -5.2     18.490     20.559
REMARK  Name = 9656824
REMARK  5 active torsions:
REMARK  status: ('A' for Active; 'I' for Inactive)
REMARK    1  A    between atoms: O_4  and  N_7
REMARK    2  A    between atoms: O_4  and  C_20
REMARK    3  A    between atoms: C_8  and  C_13
REMARK    4  A    between atoms: C_9  and  C_11
REMARK    5  A    between atoms: C_17  and  C_20
REMARK                            x       y       z     vdW  Elec       q    Type
REMARK                         _______ _______ _______ _____ _____    ______ ____
ROOT
ATOM      1  S   UNL     1     -11.736  20.622 -40.758  0.00  0.00    +0.000 S 
ATOM      2  N   UNL     1     -11.897  18.931 -42.682  0.00  0.00    +0.000 N 
ATOM      3  N   UNL     1      -9.743  19.278 -42.213  0.00  0.00    +0.000 NA
ATOM      4  C   UNL     1     -11.223  18.108 -43.546  0.00  0.00    +0.000 A 
ATOM      5  C   UNL     1      -9.881  18.376 -43.257  0.00  0.00    +0.000 A 
ATOM      6  C   UNL     1     -10.975  19.581 -41.922  0.00  0.00    +0.000 A 
ATOM      7  C   UNL     1     -13.214  19.217 -42.385  0.00  0.00    +0.000 A 
ATOM      8  C   UNL     1     -13.316  20.106 -41.381  0.00  0.00    +0.000 A 
ENDROOT
BRANCH   5   9
ATOM      9  C   UNL     1      -8.734  17.812 -43.952  0.00  0.00    +0.000 A 
ATOM     10  C   UNL     1      -8.599  17.984 -45.334  0.00  0.00    +0.000 A 
ATOM     11  C   UNL     1      -7.753  17.086 -43.261  0.00  0.00    +0.000 A 
ATOM     12  C   UNL     1      -7.477  17.480 -45.999  0.00  0.00    +0.000 A 
ATOM     13  C   UNL     1      -6.626  16.597 -43.920  0.00  0.00    +0.000 A 
ATOM     14  C   UNL     1      -6.492  16.794 -45.287  0.00  0.00    +0.000 A 
ENDBRANCH   5   9
BRANCH   4  16
ATOM     15  N   UNL     1     -12.220  16.028 -44.111  0.00  0.00    +0.000 NA
ATOM     16  C   UNL     1     -11.818  17.201 -44.485  0.00  0.00    +0.000 C 
BRANCH  15  17
ATOM     17  O   UNL     1     -12.790  15.357 -45.212  0.00  0.00    +0.000 OA
BRANCH  17  18
ATOM     18  C   UNL     1     -12.891  16.279 -46.304  0.00  0.00    +0.000 C 
BRANCH  18  21
ATOM     19 CL   UNL     1     -15.581  15.413 -44.949  0.00  0.00    +0.000 Cl
ATOM     20 CL   UNL     1     -17.589  15.035 -49.906  0.00  0.00    +0.000 Cl
ATOM     21  C   UNL     1     -14.088  15.977 -47.179  0.00  0.00    +0.000 A 
ATOM     22  C   UNL     1     -15.329  15.583 -46.651  0.00  0.00    +0.000 A 
ATOM     23  C   UNL     1     -13.955  16.043 -48.580  0.00  0.00    +0.000 A 
ATOM     24  C   UNL     1     -16.409  15.288 -47.492  0.00  0.00    +0.000 A 
ATOM     25  C   UNL     1     -15.034  15.754 -49.421  0.00  0.00    +0.000 A 
ATOM     26  C   UNL     1     -16.258  15.382 -48.873  0.00  0.00    +0.000 A 
ENDBRANCH  18  21
ENDBRANCH  17  18
ENDBRANCH  15  17
ENDBRANCH   4  16
TORSDOF 5
ENDMDL
MODEL 6
REMARK VINA RESULT:      -5.2     18.962     20.434
REMARK  Name = 9656824
REMARK  5 active torsions:
REMARK  status: ('A' for Active; 'I' for Inactive)
REMARK    1  A    between atoms: O_4  and  N_7
REMARK    2  A    between atoms: O_4  and  C_20
REMARK    3  A    between atoms: C_8  and  C_13
REMARK    4  A    between atoms: C_9  and  C_11
REMARK    5  A    between atoms: C_17  and  C_20
REMARK                            x       y       z     vdW  Elec       q    Type
REMARK                         _______ _______ _______ _____ _____    ______ ____
ROOT
ATOM      1  S   UNL     1     -21.260  15.999 -45.135  0.00  0.00    +0.000 S 
ATOM      2  N   UNL     1     -18.771  15.386 -45.262  0.00  0.00    +0.000 N 
ATOM      3  N   UNL     1     -19.463  15.994 -47.294  0.00  0.00    +0.000 NA
ATOM      4  C   UNL     1     -17.650  15.295 -46.045  0.00  0.00    +0.000 A 
ATOM      5  C   UNL     1     -18.122  15.642 -47.315  0.00  0.00    +0.000 A 
ATOM      6  C   UNL     1     -19.796  15.809 -46.049  0.00  0.00    +0.000 A 
ATOM      7  C   UNL     1     -19.087  15.200 -43.932  0.00  0.00    +0.000 A 
ATOM      8  C   UNL     1     -20.379  15.479 -43.684  0.00  0.00    +0.000 A 
ENDROOT
BRANCH   5   9
ATOM      9  C   UNL     1     -17.341  15.634 -48.542  0.00  0.00    +0.000 A 
ATOM     10  C   UNL     1     -16.009  16.064 -48.527  0.00  0.00    +0.000 A 
ATOM     11  C   UNL     1     -17.900  15.207 -49.755  0.00  0.00    +0.000 A 
ATOM     12  C   UNL     1     -15.241  16.018 -49.695  0.00  0.00    +0.000 A 
ATOM     13  C   UNL     1     -17.132  15.145 -50.916  0.00  0.00    +0.000 A 
ATOM     14  C   UNL     1     -15.805  15.552 -50.884  0.00  0.00    +0.000 A 
ENDBRANCH   5   9
BRANCH   4  16
ATOM     15  N   UNL     1     -15.559  15.821 -45.050  0.00  0.00    +0.000 NA
ATOM     16  C   UNL     1     -16.334  14.940 -45.598  0.00  0.00    +0.000 C 
BRANCH  15  17
ATOM     17  O   UNL     1     -14.346  15.207 -44.676  0.00  0.00    +0.000 OA
BRANCH  17  18
ATOM     18  C   UNL     1     -13.433  15.295 -45.776  0.00  0.00    +0.000 C 
BRANCH  18  21
ATOM     19 CL   UNL     1     -11.993  16.677 -48.193  0.00  0.00    +0.000 Cl
ATOM     20 CL   UNL     1      -8.963  19.181 -44.548  0.00  0.00    +0.000 Cl
ATOM     21  C   UNL     1     -12.322  16.284 -45.499  0.00  0.00    +0.000 A 
ATOM     22  C   UNL     1     -11.626  16.946 -46.526  0.00  0.00    +0.000 A 
ATOM     23  C   UNL     1     -11.926  16.525 -44.169  0.00  0.00    +0.000 A 
ATOM     24  C   UNL     1     -10.587  17.837 -46.233  0.00  0.00    +0.000 A 
ATOM     25  C   UNL     1     -10.891  17.419 -43.875  0.00  0.00    +0.000 A 
ATOM     26  C   UNL     1     -10.230  18.075 -44.909  0.00  0.00    +0.000 A 
ENDBRANCH  18  21
ENDBRANCH  17  18
ENDBRANCH  15  17
ENDBRANCH   4  16
TORSDOF 5
ENDMDL
MODEL 7
REMARK VINA RESULT:      -5.1     22.379     24.976
REMARK  Name = 9656824
REMARK  5 active torsions:
REMARK  status: ('A' for Active; 'I' for Inactive)
REMARK    1  A    between atoms: O_4  and  N_7
REMARK    2  A    between atoms: O_4  and  C_20
REMARK    3  A    between atoms: C_8  and  C_13
REMARK    4  A    between atoms: C_9  and  C_11
REMARK    5  A    between atoms: C_17  and  C_20
REMARK                            x       y       z     vdW  Elec       q    Type
REMARK                         _______ _______ _______ _____ _____    ______ ____
ROOT
ATOM      1  S   UNL     1     -28.116   1.918 -37.493  0.00  0.00    +0.000 S 
ATOM      2  N   UNL     1     -27.505   1.919 -39.986  0.00  0.00    +0.000 N 
ATOM      3  N   UNL     1     -26.715   3.787 -39.055  0.00  0.00    +0.000 NA
ATOM      4  C   UNL     1     -26.866   2.566 -41.011  0.00  0.00    +0.000 A 
ATOM      5  C   UNL     1     -26.418   3.747 -40.409  0.00  0.00    +0.000 A 
ATOM      6  C   UNL     1     -27.372   2.679 -38.866  0.00  0.00    +0.000 A 
ATOM      7  C   UNL     1     -28.181   0.728 -39.814  0.00  0.00    +0.000 A 
ATOM      8  C   UNL     1     -28.583   0.564 -38.541  0.00  0.00    +0.000 A 
ENDROOT
BRANCH   5   9
ATOM      9  C   UNL     1     -25.731   4.836 -41.085  0.00  0.00    +0.000 A 
ATOM     10  C   UNL     1     -26.378   5.546 -42.103  0.00  0.00    +0.000 A 
ATOM     11  C   UNL     1     -24.419   5.192 -40.741  0.00  0.00    +0.000 A 
ATOM     12  C   UNL     1     -25.738   6.622 -42.727  0.00  0.00    +0.000 A 
ATOM     13  C   UNL     1     -23.786   6.273 -41.350  0.00  0.00    +0.000 A 
ATOM     14  C   UNL     1     -24.446   6.985 -42.343  0.00  0.00    +0.000 A 
ENDBRANCH   5   9
BRANCH   4  16
ATOM     15  N   UNL     1     -26.351   0.860 -42.580  0.00  0.00    +0.000 NA
ATOM     16  C   UNL     1     -26.716   2.082 -42.352  0.00  0.00    +0.000 C 
BRANCH  15  17
ATOM     17  O   UNL     1     -26.313   0.636 -43.971  0.00  0.00    +0.000 OA
BRANCH  17  18
ATOM     18  C   UNL     1     -26.505   1.890 -44.639  0.00  0.00    +0.000 C 
BRANCH  18  21
ATOM     19 CL   UNL     1     -26.483   4.532 -46.324  0.00  0.00    +0.000 Cl
ATOM     20 CL   UNL     1     -24.471   1.589 -50.328  0.00  0.00    +0.000 Cl
ATOM     21  C   UNL     1     -25.987   1.848 -46.060  0.00  0.00    +0.000 A 
ATOM     22  C   UNL     1     -25.943   2.988 -46.882  0.00  0.00    +0.000 A 
ATOM     23  C   UNL     1     -25.573   0.619 -46.610  0.00  0.00    +0.000 A 
ATOM     24  C   UNL     1     -25.480   2.907 -48.201  0.00  0.00    +0.000 A 
ATOM     25  C   UNL     1     -25.105   0.539 -47.926  0.00  0.00    +0.000 A 
ATOM     26  C   UNL     1     -25.055   1.685 -48.713  0.00  0.00    +0.000 A 
ENDBRANCH  18  21
ENDBRANCH  17  18
ENDBRANCH  15  17
ENDBRANCH   4  16
TORSDOF 5
ENDMDL
MODEL 8
REMARK VINA RESULT:      -5.0      4.397      6.520
REMARK  Name = 9656824
REMARK  5 active torsions:
REMARK  status: ('A' for Active; 'I' for Inactive)
REMARK    1  A    between atoms: O_4  and  N_7
REMARK    2  A    between atoms: O_4  and  C_20
REMARK    3  A    between atoms: C_8  and  C_13
REMARK    4  A    between atoms: C_9  and  C_11
REMARK    5  A    between atoms: C_17  and  C_20
REMARK                            x       y       z     vdW  Elec       q    Type
REMARK                         _______ _______ _______ _____ _____    ______ ____
ROOT
ATOM      1  S   UNL     1     -10.048  -5.954 -47.862  0.00  0.00    +0.000 S 
ATOM      2  N   UNL     1      -8.847  -4.275 -49.387  0.00  0.00    +0.000 N 
ATOM      3  N   UNL     1      -7.377  -5.818 -48.724  0.00  0.00    +0.000 NA
ATOM      4  C   UNL     1      -7.678  -3.921 -50.008  0.00  0.00    +0.000 A 
ATOM      5  C   UNL     1      -6.770  -4.879 -49.544  0.00  0.00    +0.000 A 
ATOM      6  C   UNL     1      -8.608  -5.398 -48.658  0.00  0.00    +0.000 A 
ATOM      7  C   UNL     1     -10.147  -3.816 -49.354  0.00  0.00    +0.000 A 
ATOM      8  C   UNL     1     -10.929  -4.592 -48.583  0.00  0.00    +0.000 A 
ENDROOT
BRANCH   5   9
ATOM      9  C   UNL     1      -5.347  -4.917 -49.846  0.00  0.00    +0.000 A 
ATOM     10  C   UNL     1      -4.566  -3.767 -49.681  0.00  0.00    +0.000 A 
ATOM     11  C   UNL     1      -4.735  -6.090 -50.310  0.00  0.00    +0.000 A 
ATOM     12  C   UNL     1      -3.190  -3.810 -49.930  0.00  0.00    +0.000 A 
ATOM     13  C   UNL     1      -3.362  -6.139 -50.543  0.00  0.00    +0.000 A 
ATOM     14  C   UNL     1      -2.593  -4.999 -50.354  0.00  0.00    +0.000 A 
ENDBRANCH   5   9
BRANCH   4  16
ATOM     15  N   UNL     1      -7.447  -1.607 -50.491  0.00  0.00    +0.000 NA
ATOM     16  C   UNL     1      -7.503  -2.828 -50.920  0.00  0.00    +0.000 C 
BRANCH  15  17
ATOM     17  O   UNL     1      -7.239  -0.738 -51.582  0.00  0.00    +0.000 OA
BRANCH  17  18
ATOM     18  C   UNL     1      -5.829  -0.538 -51.741  0.00  0.00    +0.000 C 
BRANCH  18  21
ATOM     19 CL   UNL     1      -6.556   0.158 -54.709  0.00  0.00    +0.000 Cl
ATOM     20 CL   UNL     1      -4.485   5.009 -53.745  0.00  0.00    +0.000 Cl
ATOM     21  C   UNL     1      -5.520   0.847 -52.266  0.00  0.00    +0.000 A 
ATOM     22  C   UNL     1      -5.813   1.239 -53.583  0.00  0.00    +0.000 A 
ATOM     23  C   UNL     1      -4.869   1.774 -51.428  0.00  0.00    +0.000 A 
ATOM     24  C   UNL     1      -5.490   2.522 -54.041  0.00  0.00    +0.000 A 
ATOM     25  C   UNL     1      -4.551   3.058 -51.883  0.00  0.00    +0.000 A 
ATOM     26  C   UNL     1      -4.868   3.427 -53.187  0.00  0.00    +0.000 A 
ENDBRANCH  18  21
ENDBRANCH  17  18
ENDBRANCH  15  17
ENDBRANCH   4  16
TORSDOF 5
ENDMDL
MODEL 9
REMARK VINA RESULT:      -4.9     22.709     25.242
REMARK  Name = 9656824
REMARK  5 active torsions:
REMARK  status: ('A' for Active; 'I' for Inactive)
REMARK    1  A    between atoms: O_4  and  N_7
REMARK    2  A    between atoms: O_4  and  C_20
REMARK    3  A    between atoms: C_8  and  C_13
REMARK    4  A    between atoms: C_9  and  C_11
REMARK    5  A    between atoms: C_17  and  C_20
REMARK                            x       y       z     vdW  Elec       q    Type
REMARK                         _______ _______ _______ _____ _____    ______ ____
ROOT
ATOM      1  S   UNL     1     -28.989   5.373 -38.022  0.00  0.00    +0.000 S 
ATOM      2  N   UNL     1     -27.927   4.379 -40.136  0.00  0.00    +0.000 N 
ATOM      3  N   UNL     1     -26.814   6.232 -39.579  0.00  0.00    +0.000 NA
ATOM      4  C   UNL     1     -26.934   4.476 -41.076  0.00  0.00    +0.000 A 
ATOM      5  C   UNL     1     -26.281   5.663 -40.726  0.00  0.00    +0.000 A 
ATOM      6  C   UNL     1     -27.796   5.430 -39.283  0.00  0.00    +0.000 A 
ATOM      7  C   UNL     1     -28.948   3.500 -39.838  0.00  0.00    +0.000 A 
ATOM      8  C   UNL     1     -29.623   3.878 -38.738  0.00  0.00    +0.000 A 
ENDROOT
BRANCH   5   9
ATOM      9  C   UNL     1     -25.181   6.273 -41.456  0.00  0.00    +0.000 A 
ATOM     10  C   UNL     1     -23.879   6.202 -40.949  0.00  0.00    +0.000 A 
ATOM     11  C   UNL     1     -25.399   6.944 -42.669  0.00  0.00    +0.000 A 
ATOM     12  C   UNL     1     -22.812   6.750 -41.668  0.00  0.00    +0.000 A 
ATOM     13  C   UNL     1     -24.335   7.476 -43.395  0.00  0.00    +0.000 A 
ATOM     14  C   UNL     1     -23.045   7.379 -42.892  0.00  0.00    +0.000 A 
ENDBRANCH   5   9
BRANCH   4  16
ATOM     15  N   UNL     1     -26.338   2.316 -41.862  0.00  0.00    +0.000 NA
ATOM     16  C   UNL     1     -26.674   3.537 -42.129  0.00  0.00    +0.000 C 
BRANCH  15  17
ATOM     17  O   UNL     1     -26.174   1.602 -43.067  0.00  0.00    +0.000 OA
BRANCH  17  18
ATOM     18  C   UNL     1     -26.887   2.289 -44.102  0.00  0.00    +0.000 C 
BRANCH  18  21
ATOM     19 CL   UNL     1     -26.738   4.635 -46.176  0.00  0.00    +0.000 Cl
ATOM     20 CL   UNL     1     -24.502   1.104 -49.534  0.00  0.00    +0.000 Cl
ATOM     21  C   UNL     1     -26.281   2.026 -45.464  0.00  0.00    +0.000 A 
ATOM     22  C   UNL     1     -26.177   3.023 -46.450  0.00  0.00    +0.000 A 
ATOM     23  C   UNL     1     -25.843   0.727 -45.787  0.00  0.00    +0.000 A 
ATOM     24  C   UNL     1     -25.632   2.738 -47.707  0.00  0.00    +0.000 A 
ATOM     25  C   UNL     1     -25.294   0.443 -47.041  0.00  0.00    +0.000 A 
ATOM     26  C   UNL     1     -25.186   1.451 -47.994  0.00  0.00    +0.000 A 
ENDBRANCH  18  21
ENDBRANCH  17  18
ENDBRANCH  15  17
ENDBRANCH   4  16
TORSDOF 5
ENDMDL
MODEL 10
REMARK VINA RESULT:      -4.9     18.789     20.780
REMARK  Name = 9656824
REMARK  5 active torsions:
REMARK  status: ('A' for Active; 'I' for Inactive)
REMARK    1  A    between atoms: O_4  and  N_7
REMARK    2  A    between atoms: O_4  and  C_20
REMARK    3  A    between atoms: C_8  and  C_13
REMARK    4  A    between atoms: C_9  and  C_11
REMARK    5  A    between atoms: C_17  and  C_20
REMARK                            x       y       z     vdW  Elec       q    Type
REMARK                         _______ _______ _______ _____ _____    ______ ____
ROOT
ATOM      1  S   UNL     1     -18.377   8.170 -57.161  0.00  0.00    +0.000 S 
ATOM      2  N   UNL     1     -20.644   9.184 -56.512  0.00  0.00    +0.000 N 
ATOM      3  N   UNL     1     -20.253   7.414 -55.212  0.00  0.00    +0.000 NA
ATOM      4  C   UNL     1     -21.729   9.128 -55.677  0.00  0.00    +0.000 A 
ATOM      5  C   UNL     1     -21.476   7.991 -54.904  0.00  0.00    +0.000 A 
ATOM      6  C   UNL     1     -19.812   8.160 -56.183  0.00  0.00    +0.000 A 
ATOM      7  C   UNL     1     -20.196  10.006 -57.526  0.00  0.00    +0.000 A 
ATOM      8  C   UNL     1     -18.998   9.610 -57.994  0.00  0.00    +0.000 A 
ENDROOT
BRANCH   5   9
ATOM      9  C   UNL     1     -22.366   7.433 -53.898  0.00  0.00    +0.000 A 
ATOM     10  C   UNL     1     -23.366   6.528 -54.271  0.00  0.00    +0.000 A 
ATOM     11  C   UNL     1     -22.248   7.792 -52.547  0.00  0.00    +0.000 A 
ATOM     12  C   UNL     1     -24.196   5.957 -53.301  0.00  0.00    +0.000 A 
ATOM     13  C   UNL     1     -23.064   7.212 -51.577  0.00  0.00    +0.000 A 
ATOM     14  C   UNL     1     -24.037   6.297 -51.956  0.00  0.00    +0.000 A 
ENDBRANCH   5   9
BRANCH   4  16
ATOM     15  N   UNL     1     -22.854  11.014 -54.772  0.00  0.00    +0.000 NA
ATOM     16  C   UNL     1     -22.820  10.060 -55.646  0.00  0.00    +0.000 C 
BRANCH  15  17
ATOM     17  O   UNL     1     -24.006  11.798 -54.981  0.00  0.00    +0.000 OA
BRANCH  17  18
ATOM     18  C   UNL     1     -24.358  12.429 -53.743  0.00  0.00    +0.000 C 
BRANCH  18  21
ATOM     19 CL   UNL     1     -26.737  10.463 -54.289  0.00  0.00    +0.000 Cl
ATOM     20 CL   UNL     1     -25.776   8.450 -49.414  0.00  0.00    +0.000 Cl
ATOM     21  C   UNL     1     -24.725  11.412 -52.685  0.00  0.00    +0.000 A 
ATOM     22  C   UNL     1     -25.778  10.495 -52.851  0.00  0.00    +0.000 A 
ATOM     23  C   UNL     1     -24.026  11.403 -51.462  0.00  0.00    +0.000 A 
ATOM     24  C   UNL     1     -26.105   9.584 -51.840  0.00  0.00    +0.000 A 
ATOM     25  C   UNL     1     -24.349  10.489 -50.454  0.00  0.00    +0.000 A 
ATOM     26  C   UNL     1     -25.384   9.580 -50.650  0.00  0.00    +0.000 A 
ENDBRANCH  18  21
ENDBRANCH  17  18
ENDBRANCH  15  17
ENDBRANCH   4  16
TORSDOF 5
ENDMDL
