REMARK  Name = 9656824
REMARK  5 active torsions:
REMARK  status: ('A' for Active; 'I' for Inactive)
REMARK    1  A    between atoms: O_4  and  N_7
REMARK    2  A    between atoms: O_4  and  C_20
REMARK    3  A    between atoms: C_8  and  C_13
REMARK    4  A    between atoms: C_9  and  C_11
REMARK    5  A    between atoms: C_17  and  C_20
REMARK                            x       y       z     vdW  Elec       q    Type
REMARK                         _______ _______ _______ _____ _____    ______ ____
ROOT
ATOM      1  S   UNL     1      -3.772  -2.477  -8.393  0.00  0.00    +0.000 S 
ATOM      2  N   UNL     1      -3.338  -2.955  -5.909  0.00  0.00    +0.000 N 
ATOM      3  N   UNL     1      -1.944  -1.348  -6.583  0.00  0.00    +0.000 NA
ATOM      4  C   UNL     1      -2.628  -2.626  -4.784  0.00  0.00    +0.000 A 
ATOM      5  C   UNL     1      -1.739  -1.649  -5.245  0.00  0.00    +0.000 A 
ATOM      6  C   UNL     1      -2.898  -2.165  -6.925  0.00  0.00    +0.000 A 
ATOM      7  C   UNL     1      -4.363  -3.819  -6.235  0.00  0.00    +0.000 A 
ATOM      8  C   UNL     1      -4.721  -3.701  -7.526  0.00  0.00    +0.000 A 
ENDROOT
BRANCH   5   9
ATOM      9  C   UNL     1      -0.698  -1.009  -4.456  0.00  0.00    +0.000 A 
ATOM     10  C   UNL     1      -0.285   0.292  -4.765  0.00  0.00    +0.000 A 
ATOM     11  C   UNL     1      -0.087  -1.676  -3.384  0.00  0.00    +0.000 A 
ATOM     12  C   UNL     1       0.685   0.927  -3.983  0.00  0.00    +0.000 A 
ATOM     13  C   UNL     1       0.868  -1.039  -2.594  0.00  0.00    +0.000 A 
ATOM     14  C   UNL     1       1.253   0.260  -2.896  0.00  0.00    +0.000 A 
ENDBRANCH   5   9
BRANCH   4  16
ATOM     15  N   UNL     1      -3.204  -4.405  -3.320  0.00  0.00    +0.000 NA
ATOM     16  C   UNL     1      -2.817  -3.179  -3.474  0.00  0.00    +0.000 C 
BRANCH  15  17
ATOM     17  O   UNL     1      -3.278  -4.702  -1.944  0.00  0.00    +0.000 OA
BRANCH  17  18
ATOM     18  C   UNL     1      -3.009  -6.098  -1.765  0.00  0.00    +0.000 C 
BRANCH  18  21
ATOM     19 CL   UNL     1      -1.229  -4.841   0.488  0.00  0.00    +0.000 Cl
ATOM     20 CL   UNL     1      -3.940  -7.941   3.921  0.00  0.00    +0.000 Cl
ATOM     21  C   UNL     1      -3.230  -6.528  -0.331  0.00  0.00    +0.000 A 
ATOM     22  C   UNL     1      -2.475  -6.013   0.737  0.00  0.00    +0.000 A 
ATOM     23  C   UNL     1      -4.193  -7.516  -0.046  0.00  0.00    +0.000 A 
ATOM     24  C   UNL     1      -2.691  -6.452   2.049  0.00  0.00    +0.000 A 
ATOM     25  C   UNL     1      -4.413  -7.951   1.265  0.00  0.00    +0.000 A 
ATOM     26  C   UNL     1      -3.664  -7.413   2.307  0.00  0.00    +0.000 A 
ENDBRANCH  18  21
ENDBRANCH  17  18
ENDBRANCH  15  17
ENDBRANCH   4  16
TORSDOF 5
