MODEL 1
REMARK VINA RESULT:      -5.3      0.000      0.000
REMARK  Name = 9657326
REMARK  6 active torsions:
REMARK  status: ('A' for Active; 'I' for Inactive)
REMARK    1  A    between atoms: O_3  and  N_6
REMARK    2  A    between atoms: O_3  and  C_21
REMARK    3  A    between atoms: C_7  and  C_9
REMARK    4  A    between atoms: C_8  and  C_14
REMARK    5  A    between atoms: C_15  and  C_19
REMARK    6  A    between atoms: C_20  and  C_21
REMARK                            x       y       z     vdW  Elec       q    Type
REMARK                         _______ _______ _______ _____ _____    ______ ____
ROOT
ATOM      1  S   UNL     1     -15.614   3.654  24.679  0.00  0.00    +0.000 S 
ATOM      2  N   UNL     1     -16.084   4.750  22.405  0.00  0.00    +0.000 N 
ATOM      3  N   UNL     1     -14.067   5.390  23.108  0.00  0.00    +0.000 NA
ATOM      4  C   UNL     1     -14.366   5.972  21.883  0.00  0.00    +0.000 A 
ATOM      5  C   UNL     1     -15.610   5.560  21.404  0.00  0.00    +0.000 A 
ATOM      6  C   UNL     1     -15.129   4.686  23.371  0.00  0.00    +0.000 A 
ATOM      7  C   UNL     1     -17.214   3.995  22.651  0.00  0.00    +0.000 A 
ATOM      8  C   UNL     1     -17.132   3.343  23.823  0.00  0.00    +0.000 A 
ENDROOT
BRANCH   4   9
ATOM      9  C   UNL     1     -13.456   6.930  21.266  0.00  0.00    +0.000 A 
ATOM     10  C   UNL     1     -12.253   6.473  20.716  0.00  0.00    +0.000 A 
ATOM     11  C   UNL     1     -13.708   8.307  21.287  0.00  0.00    +0.000 A 
ATOM     12  C   UNL     1     -11.566   8.749  20.238  0.00  0.00    +0.000 A 
ATOM     13  C   UNL     1     -11.314   7.374  20.208  0.00  0.00    +0.000 A 
ATOM     14  C   UNL     1     -12.773   9.208  20.771  0.00  0.00    +0.000 A 
ATOM     15  C   UNL     1     -10.520   9.731  19.803  0.00  0.00    +0.000 C 
ENDBRANCH   4   9
BRANCH   5  17
ATOM     16  N   UNL     1     -16.787   7.031  19.972  0.00  0.00    +0.000 NA
ATOM     17  C   UNL     1     -16.286   5.856  20.178  0.00  0.00    +0.000 C 
BRANCH  16  18
ATOM     18  O   UNL     1     -17.340   7.074  18.680  0.00  0.00    +0.000 OA
BRANCH  18  19
ATOM     19  C   UNL     1     -17.273   8.422  18.205  0.00  0.00    +0.000 C 
BRANCH  19  21
ATOM     20 CL   UNL     1     -11.765  10.236  16.556  0.00  0.00    +0.000 Cl
ATOM     21  C   UNL     1     -15.855   8.832  17.889  0.00  0.00    +0.000 A 
ATOM     22  C   UNL     1     -15.476  10.177  18.037  0.00  0.00    +0.000 A 
ATOM     23  C   UNL     1     -14.925   7.924  17.360  0.00  0.00    +0.000 A 
ATOM     24  C   UNL     1     -14.204  10.607  17.649  0.00  0.00    +0.000 A 
ATOM     25  C   UNL     1     -13.652   8.353  16.973  0.00  0.00    +0.000 A 
ATOM     26  C   UNL     1     -13.304   9.695  17.103  0.00  0.00    +0.000 A 
ENDBRANCH  19  21
ENDBRANCH  18  19
ENDBRANCH  16  18
ENDBRANCH   5  17
TORSDOF 5
ENDMDL
MODEL 2
REMARK VINA RESULT:      -5.1     28.129     30.512
REMARK  Name = 9657326
REMARK  6 active torsions:
REMARK  status: ('A' for Active; 'I' for Inactive)
REMARK    1  A    between atoms: O_3  and  N_6
REMARK    2  A    between atoms: O_3  and  C_21
REMARK    3  A    between atoms: C_7  and  C_9
REMARK    4  A    between atoms: C_8  and  C_14
REMARK    5  A    between atoms: C_15  and  C_19
REMARK    6  A    between atoms: C_20  and  C_21
REMARK                            x       y       z     vdW  Elec       q    Type
REMARK                         _______ _______ _______ _____ _____    ______ ____
ROOT
ATOM      1  S   UNL     1       7.291   9.733   2.550  0.00  0.00    +0.000 S 
ATOM      2  N   UNL     1       8.985   7.833   2.880  0.00  0.00    +0.000 N 
ATOM      3  N   UNL     1       7.938   8.206   4.813  0.00  0.00    +0.000 NA
ATOM      4  C   UNL     1       8.874   7.190   4.952  0.00  0.00    +0.000 A 
ATOM      5  C   UNL     1       9.520   6.913   3.746  0.00  0.00    +0.000 A 
ATOM      6  C   UNL     1       8.059   8.554   3.566  0.00  0.00    +0.000 A 
ATOM      7  C   UNL     1       9.118   8.171   1.548  0.00  0.00    +0.000 A 
ATOM      8  C   UNL     1       8.288   9.168   1.201  0.00  0.00    +0.000 A 
ENDROOT
BRANCH   4   9
ATOM      9  C   UNL     1       9.128   6.575   6.250  0.00  0.00    +0.000 A 
ATOM     10  C   UNL     1       9.589   5.255   6.303  0.00  0.00    +0.000 A 
ATOM     11  C   UNL     1       8.836   7.236   7.450  0.00  0.00    +0.000 A 
ATOM     12  C   UNL     1       9.447   5.265   8.723  0.00  0.00    +0.000 A 
ATOM     13  C   UNL     1       9.746   4.604   7.528  0.00  0.00    +0.000 A 
ATOM     14  C   UNL     1       9.002   6.588   8.676  0.00  0.00    +0.000 A 
ATOM     15  C   UNL     1       9.500   4.542  10.035  0.00  0.00    +0.000 C 
ENDBRANCH   4   9
BRANCH   5  17
ATOM     16  N   UNL     1      11.692   6.276   3.055  0.00  0.00    +0.000 NA
ATOM     17  C   UNL     1      10.499   5.924   3.414  0.00  0.00    +0.000 C 
BRANCH  16  18
ATOM     18  O   UNL     1      12.466   5.121   2.842  0.00  0.00    +0.000 OA
BRANCH  18  19
ATOM     19  C   UNL     1      11.625   4.112   2.275  0.00  0.00    +0.000 C 
BRANCH  19  21
ATOM     20 CL   UNL     1      12.233   3.197  -3.653  0.00  0.00    +0.000 Cl
ATOM     21  C   UNL     1      11.844   3.975   0.787  0.00  0.00    +0.000 A 
ATOM     22  C   UNL     1      10.824   4.358  -0.099  0.00  0.00    +0.000 A 
ATOM     23  C   UNL     1      13.005   3.386   0.264  0.00  0.00    +0.000 A 
ATOM     24  C   UNL     1      10.954   4.141  -1.474  0.00  0.00    +0.000 A 
ATOM     25  C   UNL     1      13.137   3.171  -1.111  0.00  0.00    +0.000 A 
ATOM     26  C   UNL     1      12.103   3.533  -1.971  0.00  0.00    +0.000 A 
ENDBRANCH  19  21
ENDBRANCH  18  19
ENDBRANCH  16  18
ENDBRANCH   5  17
TORSDOF 5
ENDMDL
MODEL 3
REMARK VINA RESULT:      -4.9      5.748      9.254
REMARK  Name = 9657326
REMARK  6 active torsions:
REMARK  status: ('A' for Active; 'I' for Inactive)
REMARK    1  A    between atoms: O_3  and  N_6
REMARK    2  A    between atoms: O_3  and  C_21
REMARK    3  A    between atoms: C_7  and  C_9
REMARK    4  A    between atoms: C_8  and  C_14
REMARK    5  A    between atoms: C_15  and  C_19
REMARK    6  A    between atoms: C_20  and  C_21
REMARK                            x       y       z     vdW  Elec       q    Type
REMARK                         _______ _______ _______ _____ _____    ______ ____
ROOT
ATOM      1  S   UNL     1     -19.367   1.759  21.059  0.00  0.00    +0.000 S 
ATOM      2  N   UNL     1     -17.728   2.308  22.958  0.00  0.00    +0.000 N 
ATOM      3  N   UNL     1     -17.579   3.896  21.399  0.00  0.00    +0.000 NA
ATOM      4  C   UNL     1     -16.698   4.150  22.442  0.00  0.00    +0.000 A 
ATOM      5  C   UNL     1     -16.797   3.188  23.449  0.00  0.00    +0.000 A 
ATOM      6  C   UNL     1     -18.153   2.785  21.758  0.00  0.00    +0.000 A 
ATOM      7  C   UNL     1     -18.337   1.140  23.371  0.00  0.00    +0.000 A 
ATOM      8  C   UNL     1     -19.240   0.706  22.476  0.00  0.00    +0.000 A 
ENDROOT
BRANCH   4   9
ATOM      9  C   UNL     1     -15.777   5.279  22.388  0.00  0.00    +0.000 A 
ATOM     10  C   UNL     1     -16.203   6.531  22.845  0.00  0.00    +0.000 A 
ATOM     11  C   UNL     1     -14.507   5.169  21.807  0.00  0.00    +0.000 A 
ATOM     12  C   UNL     1     -14.119   7.542  22.127  0.00  0.00    +0.000 A 
ATOM     13  C   UNL     1     -15.382   7.654  22.715  0.00  0.00    +0.000 A 
ATOM     14  C   UNL     1     -13.683   6.290  21.684  0.00  0.00    +0.000 A 
ATOM     15  C   UNL     1     -13.277   8.757  21.877  0.00  0.00    +0.000 C 
ENDBRANCH   4   9
BRANCH   5  17
ATOM     16  N   UNL     1     -16.751   3.395  25.806  0.00  0.00    +0.000 NA
ATOM     17  C   UNL     1     -16.133   3.084  24.712  0.00  0.00    +0.000 C 
BRANCH  16  18
ATOM     18  O   UNL     1     -15.900   3.151  26.899  0.00  0.00    +0.000 OA
BRANCH  18  19
ATOM     19  C   UNL     1     -16.401   2.019  27.617  0.00  0.00    +0.000 C 
BRANCH  19  21
ATOM     20 CL   UNL     1     -14.489   1.605  33.319  0.00  0.00    +0.000 Cl
ATOM     21  C   UNL     1     -15.817   1.937  29.007  0.00  0.00    +0.000 A 
ATOM     22  C   UNL     1     -15.625   0.679  29.602  0.00  0.00    +0.000 A 
ATOM     23  C   UNL     1     -15.547   3.088  29.762  0.00  0.00    +0.000 A 
ATOM     24  C   UNL     1     -15.190   0.575  30.926  0.00  0.00    +0.000 A 
ATOM     25  C   UNL     1     -15.110   2.985  31.085  0.00  0.00    +0.000 A 
ATOM     26  C   UNL     1     -14.951   1.730  31.667  0.00  0.00    +0.000 A 
ENDBRANCH  19  21
ENDBRANCH  18  19
ENDBRANCH  16  18
ENDBRANCH   5  17
TORSDOF 5
ENDMDL
MODEL 4
REMARK VINA RESULT:      -4.8     17.684     20.796
REMARK  Name = 9657326
REMARK  6 active torsions:
REMARK  status: ('A' for Active; 'I' for Inactive)
REMARK    1  A    between atoms: O_3  and  N_6
REMARK    2  A    between atoms: O_3  and  C_21
REMARK    3  A    between atoms: C_7  and  C_9
REMARK    4  A    between atoms: C_8  and  C_14
REMARK    5  A    between atoms: C_15  and  C_19
REMARK    6  A    between atoms: C_20  and  C_21
REMARK                            x       y       z     vdW  Elec       q    Type
REMARK                         _______ _______ _______ _____ _____    ______ ____
ROOT
ATOM      1  S   UNL     1       3.853  16.607  14.694  0.00  0.00    +0.000 S 
ATOM      2  N   UNL     1       2.965  15.522  16.845  0.00  0.00    +0.000 N 
ATOM      3  N   UNL     1       4.931  16.480  17.282  0.00  0.00    +0.000 NA
ATOM      4  C   UNL     1       4.419  15.870  18.421  0.00  0.00    +0.000 A 
ATOM      5  C   UNL     1       3.171  15.292  18.182  0.00  0.00    +0.000 A 
ATOM      6  C   UNL     1       4.029  16.230  16.380  0.00  0.00    +0.000 A 
ATOM      7  C   UNL     1       1.983  15.261  15.910  0.00  0.00    +0.000 A 
ATOM      8  C   UNL     1       2.295  15.768  14.706  0.00  0.00    +0.000 A 
ENDROOT
BRANCH   4   9
ATOM      9  C   UNL     1       5.184  15.837  19.662  0.00  0.00    +0.000 A 
ATOM     10  C   UNL     1       4.799  16.663  20.724  0.00  0.00    +0.000 A 
ATOM     11  C   UNL     1       6.348  15.070  19.792  0.00  0.00    +0.000 A 
ATOM     12  C   UNL     1       6.732  15.969  22.011  0.00  0.00    +0.000 A 
ATOM     13  C   UNL     1       5.567  16.731  21.889  0.00  0.00    +0.000 A 
ATOM     14  C   UNL     1       7.112  15.130  20.960  0.00  0.00    +0.000 A 
ATOM     15  C   UNL     1       7.626  16.119  23.206  0.00  0.00    +0.000 C 
ENDBRANCH   4   9
BRANCH   5  17
ATOM     16  N   UNL     1       1.501  15.296  19.858  0.00  0.00    +0.000 NA
ATOM     17  C   UNL     1       2.267  14.620  19.064  0.00  0.00    +0.000 C 
BRANCH  16  18
ATOM     18  O   UNL     1       0.677  14.404  20.569  0.00  0.00    +0.000 OA
BRANCH  18  19
ATOM     19  C   UNL     1      -0.010  15.140  21.586  0.00  0.00    +0.000 C 
BRANCH  19  21
ATOM     20 CL   UNL     1       4.070  17.871  25.084  0.00  0.00    +0.000 Cl
ATOM     21  C   UNL     1       0.952  15.788  22.553  0.00  0.00    +0.000 A 
ATOM     22  C   UNL     1       0.907  17.178  22.744  0.00  0.00    +0.000 A 
ATOM     23  C   UNL     1       1.958  15.051  23.197  0.00  0.00    +0.000 A 
ATOM     24  C   UNL     1       1.854  17.820  23.546  0.00  0.00    +0.000 A 
ATOM     25  C   UNL     1       2.904  15.692  24.001  0.00  0.00    +0.000 A 
ATOM     26  C   UNL     1       2.859  17.075  24.158  0.00  0.00    +0.000 A 
ENDBRANCH  19  21
ENDBRANCH  18  19
ENDBRANCH  16  18
ENDBRANCH   5  17
TORSDOF 5
ENDMDL
MODEL 5
REMARK VINA RESULT:      -4.7     26.253     28.681
REMARK  Name = 9657326
REMARK  6 active torsions:
REMARK  status: ('A' for Active; 'I' for Inactive)
REMARK    1  A    between atoms: O_3  and  N_6
REMARK    2  A    between atoms: O_3  and  C_21
REMARK    3  A    between atoms: C_7  and  C_9
REMARK    4  A    between atoms: C_8  and  C_14
REMARK    5  A    between atoms: C_15  and  C_19
REMARK    6  A    between atoms: C_20  and  C_21
REMARK                            x       y       z     vdW  Elec       q    Type
REMARK                         _______ _______ _______ _____ _____    ______ ____
ROOT
ATOM      1  S   UNL     1      14.042  15.954  23.267  0.00  0.00    +0.000 S 
ATOM      2  N   UNL     1      13.273  13.505  23.225  0.00  0.00    +0.000 N 
ATOM      3  N   UNL     1      14.308  13.966  21.304  0.00  0.00    +0.000 NA
ATOM      4  C   UNL     1      13.865  12.650  21.318  0.00  0.00    +0.000 A 
ATOM      5  C   UNL     1      13.243  12.325  22.524  0.00  0.00    +0.000 A 
ATOM      6  C   UNL     1      13.918  14.424  22.457  0.00  0.00    +0.000 A 
ATOM      7  C   UNL     1      12.866  13.961  24.463  0.00  0.00    +0.000 A 
ATOM      8  C   UNL     1      13.196  15.249  24.652  0.00  0.00    +0.000 A 
ENDROOT
BRANCH   4   9
ATOM      9  C   UNL     1      14.023  11.793  20.148  0.00  0.00    +0.000 A 
ATOM     10  C   UNL     1      12.894  11.446  19.398  0.00  0.00    +0.000 A 
ATOM     11  C   UNL     1      15.259  11.233  19.804  0.00  0.00    +0.000 A 
ATOM     12  C   UNL     1      14.230   9.985  17.998  0.00  0.00    +0.000 A 
ATOM     13  C   UNL     1      12.994  10.548  18.333  0.00  0.00    +0.000 A 
ATOM     14  C   UNL     1      15.363  10.342  18.733  0.00  0.00    +0.000 A 
ATOM     15  C   UNL     1      14.332   8.935  16.933  0.00  0.00    +0.000 C 
ENDBRANCH   4   9
BRANCH   5  17
ATOM     16  N   UNL     1      11.497  10.734  22.659  0.00  0.00    +0.000 NA
ATOM     17  C   UNL     1      12.696  11.089  22.993  0.00  0.00    +0.000 C 
BRANCH  16  18
ATOM     18  O   UNL     1      11.228   9.464  23.200  0.00  0.00    +0.000 OA
BRANCH  18  19
ATOM     19  C   UNL     1      10.815   8.599  22.137  0.00  0.00    +0.000 C 
BRANCH  19  21
ATOM     20 CL   UNL     1      15.652   6.445  19.254  0.00  0.00    +0.000 Cl
ATOM     21  C   UNL     1      11.996   7.955  21.451  0.00  0.00    +0.000 A 
ATOM     22  C   UNL     1      13.275   8.076  22.021  0.00  0.00    +0.000 A 
ATOM     23  C   UNL     1      11.870   7.319  20.207  0.00  0.00    +0.000 A 
ATOM     24  C   UNL     1      14.402   7.587  21.354  0.00  0.00    +0.000 A 
ATOM     25  C   UNL     1      12.996   6.828  19.541  0.00  0.00    +0.000 A 
ATOM     26  C   UNL     1      14.258   6.980  20.109  0.00  0.00    +0.000 A 
ENDBRANCH  19  21
ENDBRANCH  18  19
ENDBRANCH  16  18
ENDBRANCH   5  17
TORSDOF 5
ENDMDL
MODEL 6
REMARK VINA RESULT:      -4.6     29.154     30.840
REMARK  Name = 9657326
REMARK  6 active torsions:
REMARK  status: ('A' for Active; 'I' for Inactive)
REMARK    1  A    between atoms: O_3  and  N_6
REMARK    2  A    between atoms: O_3  and  C_21
REMARK    3  A    between atoms: C_7  and  C_9
REMARK    4  A    between atoms: C_8  and  C_14
REMARK    5  A    between atoms: C_15  and  C_19
REMARK    6  A    between atoms: C_20  and  C_21
REMARK                            x       y       z     vdW  Elec       q    Type
REMARK                         _______ _______ _______ _____ _____    ______ ____
ROOT
ATOM      1  S   UNL     1       8.593 -15.404  28.382  0.00  0.00    +0.000 S 
ATOM      2  N   UNL     1       6.564 -14.542  29.698  0.00  0.00    +0.000 N 
ATOM      3  N   UNL     1       8.069 -12.904  29.544  0.00  0.00    +0.000 NA
ATOM      4  C   UNL     1       6.957 -12.482  30.261  0.00  0.00    +0.000 A 
ATOM      5  C   UNL     1       5.984 -13.478  30.342  0.00  0.00    +0.000 A 
ATOM      6  C   UNL     1       7.781 -14.137  29.247  0.00  0.00    +0.000 A 
ATOM      7  C   UNL     1       6.226 -15.842  29.378  0.00  0.00    +0.000 A 
ATOM      8  C   UNL     1       7.195 -16.450  28.676  0.00  0.00    +0.000 A 
ENDROOT
BRANCH   4   9
ATOM      9  C   UNL     1       6.916 -11.156  30.868  0.00  0.00    +0.000 A 
ATOM     10  C   UNL     1       6.852 -11.045  32.262  0.00  0.00    +0.000 A 
ATOM     11  C   UNL     1       6.848  -9.991  30.095  0.00  0.00    +0.000 A 
ATOM     12  C   UNL     1       6.635  -8.636  32.095  0.00  0.00    +0.000 A 
ATOM     13  C   UNL     1       6.710  -9.796  32.871  0.00  0.00    +0.000 A 
ATOM     14  C   UNL     1       6.715  -8.741  30.704  0.00  0.00    +0.000 A 
ATOM     15  C   UNL     1       6.367  -7.304  32.728  0.00  0.00    +0.000 C 
ENDBRANCH   4   9
BRANCH   5  17
ATOM     16  N   UNL     1       4.521 -13.700  32.188  0.00  0.00    +0.000 NA
ATOM     17  C   UNL     1       4.678 -13.466  30.925  0.00  0.00    +0.000 C 
BRANCH  16  18
ATOM     18  O   UNL     1       3.158 -13.572  32.513  0.00  0.00    +0.000 OA
BRANCH  18  19
ATOM     19  C   UNL     1       3.013 -13.740  33.927  0.00  0.00    +0.000 C 
BRANCH  19  21
ATOM     20 CL   UNL     1       5.011  -8.693  36.551  0.00  0.00    +0.000 Cl
ATOM     21  C   UNL     1       3.499 -12.527  34.685  0.00  0.00    +0.000 A 
ATOM     22  C   UNL     1       2.650 -11.418  34.829  0.00  0.00    +0.000 A 
ATOM     23  C   UNL     1       4.812 -12.438  35.170  0.00  0.00    +0.000 A 
ATOM     24  C   UNL     1       3.108 -10.241  35.428  0.00  0.00    +0.000 A 
ATOM     25  C   UNL     1       5.271 -11.263  35.771  0.00  0.00    +0.000 A 
ATOM     26  C   UNL     1       4.422 -10.164  35.882  0.00  0.00    +0.000 A 
ENDBRANCH  19  21
ENDBRANCH  18  19
ENDBRANCH  16  18
ENDBRANCH   5  17
TORSDOF 5
ENDMDL
MODEL 7
REMARK VINA RESULT:      -4.6     29.081     31.028
REMARK  Name = 9657326
REMARK  6 active torsions:
REMARK  status: ('A' for Active; 'I' for Inactive)
REMARK    1  A    between atoms: O_3  and  N_6
REMARK    2  A    between atoms: O_3  and  C_21
REMARK    3  A    between atoms: C_7  and  C_9
REMARK    4  A    between atoms: C_8  and  C_14
REMARK    5  A    between atoms: C_15  and  C_19
REMARK    6  A    between atoms: C_20  and  C_21
REMARK                            x       y       z     vdW  Elec       q    Type
REMARK                         _______ _______ _______ _____ _____    ______ ____
ROOT
ATOM      1  S   UNL     1       6.027  -7.227  38.810  0.00  0.00    +0.000 S 
ATOM      2  N   UNL     1       7.342  -6.395  36.768  0.00  0.00    +0.000 N 
ATOM      3  N   UNL     1       6.064  -8.114  36.148  0.00  0.00    +0.000 NA
ATOM      4  C   UNL     1       6.803  -7.641  35.072  0.00  0.00    +0.000 A 
ATOM      5  C   UNL     1       7.587  -6.541  35.426  0.00  0.00    +0.000 A 
ATOM      6  C   UNL     1       6.436  -7.343  37.127  0.00  0.00    +0.000 A 
ATOM      7  C   UNL     1       7.738  -5.550  37.786  0.00  0.00    +0.000 A 
ATOM      8  C   UNL     1       7.133  -5.852  38.947  0.00  0.00    +0.000 A 
ENDROOT
BRANCH   4   9
ATOM      9  C   UNL     1       6.749  -8.305  33.775  0.00  0.00    +0.000 A 
ATOM     10  C   UNL     1       7.257  -9.603  33.649  0.00  0.00    +0.000 A 
ATOM     11  C   UNL     1       6.284  -7.649  32.628  0.00  0.00    +0.000 A 
ATOM     12  C   UNL     1       6.855  -9.567  31.259  0.00  0.00    +0.000 A 
ATOM     13  C   UNL     1       7.312 -10.229  32.402  0.00  0.00    +0.000 A 
ATOM     14  C   UNL     1       6.331  -8.278  31.381  0.00  0.00    +0.000 A 
ATOM     15  C   UNL     1       7.014 -10.181  29.900  0.00  0.00    +0.000 C 
ENDBRANCH   4   9
BRANCH   5  17
ATOM     16  N   UNL     1       9.566  -6.177  34.182  0.00  0.00    +0.000 NA
ATOM     17  C   UNL     1       8.447  -5.713  34.638  0.00  0.00    +0.000 C 
BRANCH  16  18
ATOM     18  O   UNL     1      10.188  -5.187  33.400  0.00  0.00    +0.000 OA
BRANCH  18  19
ATOM     19  C   UNL     1      11.595  -5.222  33.660  0.00  0.00    +0.000 C 
BRANCH  19  21
ATOM     20 CL   UNL     1      14.916  -6.655  28.837  0.00  0.00    +0.000 Cl
ATOM     21  C   UNL     1      12.388  -5.486  32.403  0.00  0.00    +0.000 A 
ATOM     22  C   UNL     1      11.936  -6.454  31.492  0.00  0.00    +0.000 A 
ATOM     23  C   UNL     1      13.619  -4.856  32.162  0.00  0.00    +0.000 A 
ATOM     24  C   UNL     1      12.704  -6.798  30.376  0.00  0.00    +0.000 A 
ATOM     25  C   UNL     1      14.387  -5.198  31.046  0.00  0.00    +0.000 A 
ATOM     26  C   UNL     1      13.934  -6.179  30.168  0.00  0.00    +0.000 A 
ENDBRANCH  19  21
ENDBRANCH  18  19
ENDBRANCH  16  18
ENDBRANCH   5  17
TORSDOF 5
ENDMDL
MODEL 8
REMARK VINA RESULT:      -4.6      4.266      7.400
REMARK  Name = 9657326
REMARK  6 active torsions:
REMARK  status: ('A' for Active; 'I' for Inactive)
REMARK    1  A    between atoms: O_3  and  N_6
REMARK    2  A    between atoms: O_3  and  C_21
REMARK    3  A    between atoms: C_7  and  C_9
REMARK    4  A    between atoms: C_8  and  C_14
REMARK    5  A    between atoms: C_15  and  C_19
REMARK    6  A    between atoms: C_20  and  C_21
REMARK                            x       y       z     vdW  Elec       q    Type
REMARK                         _______ _______ _______ _____ _____    ______ ____
ROOT
ATOM      1  S   UNL     1     -21.566   3.971  26.154  0.00  0.00    +0.000 S 
ATOM      2  N   UNL     1     -19.089   3.821  25.496  0.00  0.00    +0.000 N 
ATOM      3  N   UNL     1     -19.313   3.142  27.609  0.00  0.00    +0.000 NA
ATOM      4  C   UNL     1     -17.982   3.087  27.215  0.00  0.00    +0.000 A 
ATOM      5  C   UNL     1     -17.819   3.474  25.885  0.00  0.00    +0.000 A 
ATOM      6  C   UNL     1     -19.918   3.595  26.550  0.00  0.00    +0.000 A 
ATOM      7  C   UNL     1     -19.710   4.283  24.353  0.00  0.00    +0.000 A 
ATOM      8  C   UNL     1     -21.034   4.421  24.527  0.00  0.00    +0.000 A 
ENDROOT
BRANCH   4   9
ATOM      9  C   UNL     1     -16.937   2.711  28.160  0.00  0.00    +0.000 A 
ATOM     10  C   UNL     1     -16.064   3.693  28.641  0.00  0.00    +0.000 A 
ATOM     11  C   UNL     1     -16.722   1.377  28.531  0.00  0.00    +0.000 A 
ATOM     12  C   UNL     1     -14.776   2.017  29.828  0.00  0.00    +0.000 A 
ATOM     13  C   UNL     1     -14.991   3.350  29.467  0.00  0.00    +0.000 A 
ATOM     14  C   UNL     1     -15.654   1.035  29.364  0.00  0.00    +0.000 A 
ATOM     15  C   UNL     1     -13.564   1.622  30.618  0.00  0.00    +0.000 C 
ENDBRANCH   4   9
BRANCH   5  17
ATOM     16  N   UNL     1     -16.035   4.634  24.850  0.00  0.00    +0.000 NA
ATOM     17  C   UNL     1     -16.652   3.516  25.058  0.00  0.00    +0.000 C 
BRANCH  16  18
ATOM     18  O   UNL     1     -14.898   4.390  24.058  0.00  0.00    +0.000 OA
BRANCH  18  19
ATOM     19  C   UNL     1     -15.259   4.567  22.684  0.00  0.00    +0.000 C 
BRANCH  19  21
ATOM     20 CL   UNL     1     -11.736   8.307  19.530  0.00  0.00    +0.000 Cl
ATOM     21  C   UNL     1     -14.351   5.555  21.992  0.00  0.00    +0.000 A 
ATOM     22  C   UNL     1     -14.913   6.621  21.271  0.00  0.00    +0.000 A 
ATOM     23  C   UNL     1     -12.958   5.386  21.970  0.00  0.00    +0.000 A 
ATOM     24  C   UNL     1     -14.104   7.487  20.530  0.00  0.00    +0.000 A 
ATOM     25  C   UNL     1     -12.148   6.253  21.231  0.00  0.00    +0.000 A 
ATOM     26  C   UNL     1     -12.726   7.288  20.501  0.00  0.00    +0.000 A 
ENDBRANCH  19  21
ENDBRANCH  18  19
ENDBRANCH  16  18
ENDBRANCH   5  17
TORSDOF 5
ENDMDL
MODEL 9
REMARK VINA RESULT:      -4.6     23.403     26.795
REMARK  Name = 9657326
REMARK  6 active torsions:
REMARK  status: ('A' for Active; 'I' for Inactive)
REMARK    1  A    between atoms: O_3  and  N_6
REMARK    2  A    between atoms: O_3  and  C_21
REMARK    3  A    between atoms: C_7  and  C_9
REMARK    4  A    between atoms: C_8  and  C_14
REMARK    5  A    between atoms: C_15  and  C_19
REMARK    6  A    between atoms: C_20  and  C_21
REMARK                            x       y       z     vdW  Elec       q    Type
REMARK                         _______ _______ _______ _____ _____    ______ ____
ROOT
ATOM      1  S   UNL     1      12.955  17.281  26.611  0.00  0.00    +0.000 S 
ATOM      2  N   UNL     1      12.105  15.151  25.456  0.00  0.00    +0.000 N 
ATOM      3  N   UNL     1      10.959  16.898  24.675  0.00  0.00    +0.000 NA
ATOM      4  C   UNL     1      10.521  15.720  24.083  0.00  0.00    +0.000 A 
ATOM      5  C   UNL     1      11.247  14.615  24.529  0.00  0.00    +0.000 A 
ATOM      6  C   UNL     1      11.891  16.494  25.488  0.00  0.00    +0.000 A 
ATOM      7  C   UNL     1      13.105  14.700  26.295  0.00  0.00    +0.000 A 
ATOM      8  C   UNL     1      13.665  15.705  26.987  0.00  0.00    +0.000 A 
ENDROOT
BRANCH   4   9
ATOM      9  C   UNL     1       9.396  15.721  23.155  0.00  0.00    +0.000 A 
ATOM     10  C   UNL     1       8.145  16.165  23.600  0.00  0.00    +0.000 A 
ATOM     11  C   UNL     1       9.507  15.207  21.858  0.00  0.00    +0.000 A 
ATOM     12  C   UNL     1       7.139  15.563  21.477  0.00  0.00    +0.000 A 
ATOM     13  C   UNL     1       7.024  16.085  22.769  0.00  0.00    +0.000 A 
ATOM     14  C   UNL     1       8.389  15.135  21.023  0.00  0.00    +0.000 A 
ATOM     15  C   UNL     1       5.926  15.365  20.619  0.00  0.00    +0.000 C 
ENDBRANCH   4   9
BRANCH   5  17
ATOM     16  N   UNL     1      10.259  12.468  24.639  0.00  0.00    +0.000 NA
ATOM     17  C   UNL     1      11.179  13.237  24.152  0.00  0.00    +0.000 C 
BRANCH  16  18
ATOM     18  O   UNL     1      10.380  11.188  24.069  0.00  0.00    +0.000 OA
BRANCH  18  19
ATOM     19  C   UNL     1      11.700  11.057  23.531  0.00  0.00    +0.000 C 
BRANCH  19  21
ATOM     20 CL   UNL     1      11.910   8.121  18.269  0.00  0.00    +0.000 Cl
ATOM     21  C   UNL     1      11.686  10.403  22.170  0.00  0.00    +0.000 A 
ATOM     22  C   UNL     1      10.892   9.263  21.961  0.00  0.00    +0.000 A 
ATOM     23  C   UNL     1      12.518  10.845  21.130  0.00  0.00    +0.000 A 
ATOM     24  C   UNL     1      10.942   8.572  20.747  0.00  0.00    +0.000 A 
ATOM     25  C   UNL     1      12.566  10.156  19.915  0.00  0.00    +0.000 A 
ATOM     26  C   UNL     1      11.792   9.013  19.736  0.00  0.00    +0.000 A 
ENDBRANCH  19  21
ENDBRANCH  18  19
ENDBRANCH  16  18
ENDBRANCH   5  17
TORSDOF 5
ENDMDL
MODEL 10
REMARK VINA RESULT:      -4.5     29.383     30.730
REMARK  Name = 9657326
REMARK  6 active torsions:
REMARK  status: ('A' for Active; 'I' for Inactive)
REMARK    1  A    between atoms: O_3  and  N_6
REMARK    2  A    between atoms: O_3  and  C_21
REMARK    3  A    between atoms: C_7  and  C_9
REMARK    4  A    between atoms: C_8  and  C_14
REMARK    5  A    between atoms: C_15  and  C_19
REMARK    6  A    between atoms: C_20  and  C_21
REMARK                            x       y       z     vdW  Elec       q    Type
REMARK                         _______ _______ _______ _____ _____    ______ ____
ROOT
ATOM      1  S   UNL     1       4.131  -8.822  37.407  0.00  0.00    +0.000 S 
ATOM      2  N   UNL     1       6.113  -7.926  36.042  0.00  0.00    +0.000 N 
ATOM      3  N   UNL     1       5.140  -9.575  34.899  0.00  0.00    +0.000 NA
ATOM      4  C   UNL     1       6.227  -9.068  34.198  0.00  0.00    +0.000 A 
ATOM      5  C   UNL     1       6.833  -8.010  34.878  0.00  0.00    +0.000 A 
ATOM      6  C   UNL     1       5.131  -8.865  35.988  0.00  0.00    +0.000 A 
ATOM      7  C   UNL     1       6.112  -7.145  37.181  0.00  0.00    +0.000 A 
ATOM      8  C   UNL     1       5.120  -7.488  38.019  0.00  0.00    +0.000 A 
ENDROOT
BRANCH   4   9
ATOM      9  C   UNL     1       6.650  -9.663  32.936  0.00  0.00    +0.000 A 
ATOM     10  C   UNL     1       6.517  -8.926  31.754  0.00  0.00    +0.000 A 
ATOM     11  C   UNL     1       7.101 -10.987  32.858  0.00  0.00    +0.000 A 
ATOM     12  C   UNL     1       7.260 -10.825  30.443  0.00  0.00    +0.000 A 
ATOM     13  C   UNL     1       6.817  -9.501  30.517  0.00  0.00    +0.000 A 
ATOM     14  C   UNL     1       7.410 -11.560  31.622  0.00  0.00    +0.000 A 
ATOM     15  C   UNL     1       7.474 -11.490  29.117  0.00  0.00    +0.000 C 
ENDBRANCH   4   9
BRANCH   5  17
ATOM     16  N   UNL     1       7.717  -6.020  33.952  0.00  0.00    +0.000 NA
ATOM     17  C   UNL     1       7.930  -7.168  34.511  0.00  0.00    +0.000 C 
BRANCH  16  18
ATOM     18  O   UNL     1       8.949  -5.373  33.747  0.00  0.00    +0.000 OA
BRANCH  18  19
ATOM     19  C   UNL     1       9.998  -6.270  34.129  0.00  0.00    +0.000 C 
BRANCH  19  21
ATOM     20 CL   UNL     1      14.144  -6.149  29.753  0.00  0.00    +0.000 Cl
ATOM     21  C   UNL     1      11.094  -6.319  33.091  0.00  0.00    +0.000 A 
ATOM     22  C   UNL     1      12.047  -5.289  33.044  0.00  0.00    +0.000 A 
ATOM     23  C   UNL     1      11.132  -7.318  32.106  0.00  0.00    +0.000 A 
ATOM     24  C   UNL     1      13.006  -5.250  32.028  0.00  0.00    +0.000 A 
ATOM     25  C   UNL     1      12.092  -7.281  31.091  0.00  0.00    +0.000 A 
ATOM     26  C   UNL     1      13.013  -6.237  31.047  0.00  0.00    +0.000 A 
ENDBRANCH  19  21
ENDBRANCH  18  19
ENDBRANCH  16  18
ENDBRANCH   5  17
TORSDOF 5
ENDMDL
