MODEL 1
REMARK VINA RESULT:      -6.0      0.000      0.000
REMARK  Name = 9657326
REMARK  6 active torsions:
REMARK  status: ('A' for Active; 'I' for Inactive)
REMARK    1  A    between atoms: O_3  and  N_6
REMARK    2  A    between atoms: O_3  and  C_21
REMARK    3  A    between atoms: C_7  and  C_9
REMARK    4  A    between atoms: C_8  and  C_14
REMARK    5  A    between atoms: C_15  and  C_19
REMARK    6  A    between atoms: C_20  and  C_21
REMARK                            x       y       z     vdW  Elec       q    Type
REMARK                         _______ _______ _______ _____ _____    ______ ____
ROOT
ATOM      1  S   UNL     1     -10.031  -0.560 -33.007  0.00  0.00    +0.000 S 
ATOM      2  N   UNL     1     -10.754   1.491 -34.372  0.00  0.00    +0.000 N 
ATOM      3  N   UNL     1      -8.528   1.347 -34.413  0.00  0.00    +0.000 NA
ATOM      4  C   UNL     1      -8.961   2.454 -35.133  0.00  0.00    +0.000 A 
ATOM      5  C   UNL     1     -10.354   2.547 -35.151  0.00  0.00    +0.000 A 
ATOM      6  C   UNL     1      -9.636   0.824 -33.977  0.00  0.00    +0.000 A 
ATOM      7  C   UNL     1     -11.945   0.943 -33.938  0.00  0.00    +0.000 A 
ATOM      8  C   UNL     1     -11.745  -0.159 -33.196  0.00  0.00    +0.000 A 
ENDROOT
BRANCH   4   9
ATOM      9  C   UNL     1      -8.006   3.385 -35.721  0.00  0.00    +0.000 A 
ATOM     10  C   UNL     1      -7.269   4.229 -34.883  0.00  0.00    +0.000 A 
ATOM     11  C   UNL     1      -7.869   3.525 -37.108  0.00  0.00    +0.000 A 
ATOM     12  C   UNL     1      -6.293   5.343 -36.803  0.00  0.00    +0.000 A 
ATOM     13  C   UNL     1      -6.421   5.202 -35.418  0.00  0.00    +0.000 A 
ATOM     14  C   UNL     1      -7.014   4.492 -37.644  0.00  0.00    +0.000 A 
ATOM     15  C   UNL     1      -5.477   6.455 -37.389  0.00  0.00    +0.000 C 
ENDBRANCH   4   9
BRANCH   5  17
ATOM     16  N   UNL     1     -11.809   4.413 -35.133  0.00  0.00    +0.000 NA
ATOM     17  C   UNL     1     -11.221   3.477 -35.807  0.00  0.00    +0.000 C 
BRANCH  16  18
ATOM     18  O   UNL     1     -12.551   5.216 -36.017  0.00  0.00    +0.000 OA
BRANCH  18  19
ATOM     19  C   UNL     1     -11.637   5.996 -36.795  0.00  0.00    +0.000 C 
BRANCH  19  21
ATOM     20 CL   UNL     1      -9.310  10.239 -33.200  0.00  0.00    +0.000 Cl
ATOM     21  C   UNL     1     -11.038   7.122 -35.988  0.00  0.00    +0.000 A 
ATOM     22  C   UNL     1      -9.723   7.003 -35.507  0.00  0.00    +0.000 A 
ATOM     23  C   UNL     1     -11.790   8.249 -35.622  0.00  0.00    +0.000 A 
ATOM     24  C   UNL     1      -9.180   7.978 -34.666  0.00  0.00    +0.000 A 
ATOM     25  C   UNL     1     -11.247   9.225 -34.783  0.00  0.00    +0.000 A 
ATOM     26  C   UNL     1      -9.951   9.077 -34.295  0.00  0.00    +0.000 A 
ENDBRANCH  19  21
ENDBRANCH  18  19
ENDBRANCH  16  18
ENDBRANCH   5  17
TORSDOF 5
ENDMDL
MODEL 2
REMARK VINA RESULT:      -5.9      3.590      5.749
REMARK  Name = 9657326
REMARK  6 active torsions:
REMARK  status: ('A' for Active; 'I' for Inactive)
REMARK    1  A    between atoms: O_3  and  N_6
REMARK    2  A    between atoms: O_3  and  C_21
REMARK    3  A    between atoms: C_7  and  C_9
REMARK    4  A    between atoms: C_8  and  C_14
REMARK    5  A    between atoms: C_15  and  C_19
REMARK    6  A    between atoms: C_20  and  C_21
REMARK                            x       y       z     vdW  Elec       q    Type
REMARK                         _______ _______ _______ _____ _____    ______ ____
ROOT
ATOM      1  S   UNL     1     -14.532   7.731 -35.316  0.00  0.00    +0.000 S 
ATOM      2  N   UNL     1     -12.916   6.020 -34.291  0.00  0.00    +0.000 N 
ATOM      3  N   UNL     1     -11.853   7.134 -35.905  0.00  0.00    +0.000 NA
ATOM      4  C   UNL     1     -11.015   6.187 -35.330  0.00  0.00    +0.000 A 
ATOM      5  C   UNL     1     -11.646   5.499 -34.292  0.00  0.00    +0.000 A 
ATOM      6  C   UNL     1     -12.969   6.978 -35.254  0.00  0.00    +0.000 A 
ATOM      7  C   UNL     1     -14.082   5.849 -33.572  0.00  0.00    +0.000 A 
ATOM      8  C   UNL     1     -15.050   6.683 -33.987  0.00  0.00    +0.000 A 
ENDROOT
BRANCH   4   9
ATOM      9  C   UNL     1      -9.669   5.966 -35.845  0.00  0.00    +0.000 A 
ATOM     10  C   UNL     1      -8.746   7.018 -35.818  0.00  0.00    +0.000 A 
ATOM     11  C   UNL     1      -9.298   4.759 -36.449  0.00  0.00    +0.000 A 
ATOM     12  C   UNL     1      -7.119   5.667 -37.003  0.00  0.00    +0.000 A 
ATOM     13  C   UNL     1      -7.482   6.871 -36.394  0.00  0.00    +0.000 A 
ATOM     14  C   UNL     1      -8.031   4.608 -37.017  0.00  0.00    +0.000 A 
ATOM     15  C   UNL     1      -5.811   5.535 -37.725  0.00  0.00    +0.000 C 
ENDBRANCH   4   9
BRANCH   5  17
ATOM     16  N   UNL     1     -11.296   3.240 -33.681  0.00  0.00    +0.000 NA
ATOM     17  C   UNL     1     -11.154   4.495 -33.400  0.00  0.00    +0.000 C 
BRANCH  16  18
ATOM     18  O   UNL     1     -10.679   2.472 -32.677  0.00  0.00    +0.000 OA
BRANCH  18  19
ATOM     19  C   UNL     1      -9.675   1.655 -33.286  0.00  0.00    +0.000 C 
BRANCH  19  21
ATOM     20 CL   UNL     1      -3.984   2.833 -31.682  0.00  0.00    +0.000 Cl
ATOM     21  C   UNL     1      -8.291   2.020 -32.805  0.00  0.00    +0.000 A 
ATOM     22  C   UNL     1      -7.511   2.911 -33.559  0.00  0.00    +0.000 A 
ATOM     23  C   UNL     1      -7.723   1.420 -31.671  0.00  0.00    +0.000 A 
ATOM     24  C   UNL     1      -6.188   3.183 -33.199  0.00  0.00    +0.000 A 
ATOM     25  C   UNL     1      -6.401   1.693 -31.308  0.00  0.00    +0.000 A 
ATOM     26  C   UNL     1      -5.634   2.559 -32.084  0.00  0.00    +0.000 A 
ENDBRANCH  19  21
ENDBRANCH  18  19
ENDBRANCH  16  18
ENDBRANCH   5  17
TORSDOF 5
ENDMDL
MODEL 3
REMARK VINA RESULT:      -5.4      2.330      2.996
REMARK  Name = 9657326
REMARK  6 active torsions:
REMARK  status: ('A' for Active; 'I' for Inactive)
REMARK    1  A    between atoms: O_3  and  N_6
REMARK    2  A    between atoms: O_3  and  C_21
REMARK    3  A    between atoms: C_7  and  C_9
REMARK    4  A    between atoms: C_8  and  C_14
REMARK    5  A    between atoms: C_15  and  C_19
REMARK    6  A    between atoms: C_20  and  C_21
REMARK                            x       y       z     vdW  Elec       q    Type
REMARK                         _______ _______ _______ _____ _____    ______ ____
ROOT
ATOM      1  S   UNL     1      -5.485  -1.496 -34.184  0.00  0.00    +0.000 S 
ATOM      2  N   UNL     1      -7.267   0.329 -33.890  0.00  0.00    +0.000 N 
ATOM      3  N   UNL     1      -5.813   0.988 -35.448  0.00  0.00    +0.000 NA
ATOM      4  C   UNL     1      -6.790   1.955 -35.250  0.00  0.00    +0.000 A 
ATOM      5  C   UNL     1      -7.733   1.552 -34.303  0.00  0.00    +0.000 A 
ATOM      6  C   UNL     1      -6.144   0.054 -34.606  0.00  0.00    +0.000 A 
ATOM      7  C   UNL     1      -7.650  -0.657 -33.003  0.00  0.00    +0.000 A 
ATOM      8  C   UNL     1      -6.811  -1.704 -33.029  0.00  0.00    +0.000 A 
ENDROOT
BRANCH   4   9
ATOM      9  C   UNL     1      -6.732   3.233 -35.949  0.00  0.00    +0.000 A 
ATOM     10  C   UNL     1      -7.319   3.347 -37.215  0.00  0.00    +0.000 A 
ATOM     11  C   UNL     1      -6.028   4.327 -35.432  0.00  0.00    +0.000 A 
ATOM     12  C   UNL     1      -6.485   5.612 -37.437  0.00  0.00    +0.000 A 
ATOM     13  C   UNL     1      -7.196   4.525 -37.954  0.00  0.00    +0.000 A 
ATOM     14  C   UNL     1      -5.912   5.510 -36.167  0.00  0.00    +0.000 A 
ATOM     15  C   UNL     1      -6.247   6.839 -38.266  0.00  0.00    +0.000 C 
ENDBRANCH   4   9
BRANCH   5  17
ATOM     16  N   UNL     1      -8.875   3.020 -32.841  0.00  0.00    +0.000 NA
ATOM     17  C   UNL     1      -8.923   2.194 -33.835  0.00  0.00    +0.000 C 
BRANCH  16  18
ATOM     18  O   UNL     1     -10.160   3.549 -32.621  0.00  0.00    +0.000 OA
BRANCH  18  19
ATOM     19  C   UNL     1     -10.659   4.052 -33.865  0.00  0.00    +0.000 C 
BRANCH  19  21
ATOM     20 CL   UNL     1      -9.317   9.923 -34.150  0.00  0.00    +0.000 Cl
ATOM     21  C   UNL     1     -10.413   5.535 -34.006  0.00  0.00    +0.000 A 
ATOM     22  C   UNL     1      -9.372   5.986 -34.834  0.00  0.00    +0.000 A 
ATOM     23  C   UNL     1     -11.135   6.477 -33.257  0.00  0.00    +0.000 A 
ATOM     24  C   UNL     1      -9.049   7.344 -34.898  0.00  0.00    +0.000 A 
ATOM     25  C   UNL     1     -10.814   7.836 -33.323  0.00  0.00    +0.000 A 
ATOM     26  C   UNL     1      -9.762   8.261 -34.130  0.00  0.00    +0.000 A 
ENDBRANCH  19  21
ENDBRANCH  18  19
ENDBRANCH  16  18
ENDBRANCH   5  17
TORSDOF 5
ENDMDL
MODEL 4
REMARK VINA RESULT:      -5.4      2.888      3.500
REMARK  Name = 9657326
REMARK  6 active torsions:
REMARK  status: ('A' for Active; 'I' for Inactive)
REMARK    1  A    between atoms: O_3  and  N_6
REMARK    2  A    between atoms: O_3  and  C_21
REMARK    3  A    between atoms: C_7  and  C_9
REMARK    4  A    between atoms: C_8  and  C_14
REMARK    5  A    between atoms: C_15  and  C_19
REMARK    6  A    between atoms: C_20  and  C_21
REMARK                            x       y       z     vdW  Elec       q    Type
REMARK                         _______ _______ _______ _____ _____    ______ ____
ROOT
ATOM      1  S   UNL     1     -10.962   0.669 -33.603  0.00  0.00    +0.000 S 
ATOM      2  N   UNL     1     -11.415   2.896 -34.799  0.00  0.00    +0.000 N 
ATOM      3  N   UNL     1      -9.254   2.387 -35.020  0.00  0.00    +0.000 NA
ATOM      4  C   UNL     1      -9.540   3.594 -35.645  0.00  0.00    +0.000 A 
ATOM      5  C   UNL     1     -10.894   3.919 -35.550  0.00  0.00    +0.000 A 
ATOM      6  C   UNL     1     -10.403   2.028 -34.528  0.00  0.00    +0.000 A 
ATOM      7  C   UNL     1     -12.649   2.526 -34.303  0.00  0.00    +0.000 A 
ATOM      8  C   UNL     1     -12.590   1.361 -33.637  0.00  0.00    +0.000 A 
ENDROOT
BRANCH   4   9
ATOM      9  C   UNL     1      -8.482   4.391 -36.257  0.00  0.00    +0.000 A 
ATOM     10  C   UNL     1      -7.843   3.911 -37.406  0.00  0.00    +0.000 A 
ATOM     11  C   UNL     1      -8.024   5.580 -35.677  0.00  0.00    +0.000 A 
ATOM     12  C   UNL     1      -6.301   5.781 -37.372  0.00  0.00    +0.000 A 
ATOM     13  C   UNL     1      -6.760   4.598 -37.958  0.00  0.00    +0.000 A 
ATOM     14  C   UNL     1      -6.947   6.273 -36.235  0.00  0.00    +0.000 A 
ATOM     15  C   UNL     1      -5.070   6.466 -37.886  0.00  0.00    +0.000 C 
ENDBRANCH   4   9
BRANCH   5  17
ATOM     16  N   UNL     1     -11.512   6.203 -35.574  0.00  0.00    +0.000 NA
ATOM     17  C   UNL     1     -11.632   5.021 -36.087  0.00  0.00    +0.000 C 
BRANCH  16  18
ATOM     18  O   UNL     1     -12.294   7.106 -36.316  0.00  0.00    +0.000 OA
BRANCH  18  19
ATOM     19  C   UNL     1     -12.683   8.180 -35.454  0.00  0.00    +0.000 C 
BRANCH  19  21
ATOM     20 CL   UNL     1     -18.001   6.779 -32.984  0.00  0.00    +0.000 Cl
ATOM     21  C   UNL     1     -14.043   7.940 -34.843  0.00  0.00    +0.000 A 
ATOM     22  C   UNL     1     -14.150   7.732 -33.458  0.00  0.00    +0.000 A 
ATOM     23  C   UNL     1     -15.197   7.822 -35.633  0.00  0.00    +0.000 A 
ATOM     24  C   UNL     1     -15.378   7.399 -32.879  0.00  0.00    +0.000 A 
ATOM     25  C   UNL     1     -16.425   7.491 -35.055  0.00  0.00    +0.000 A 
ATOM     26  C   UNL     1     -16.506   7.263 -33.684  0.00  0.00    +0.000 A 
ENDBRANCH  19  21
ENDBRANCH  18  19
ENDBRANCH  16  18
ENDBRANCH   5  17
TORSDOF 5
ENDMDL
MODEL 5
REMARK VINA RESULT:      -5.3      2.432      4.829
REMARK  Name = 9657326
REMARK  6 active torsions:
REMARK  status: ('A' for Active; 'I' for Inactive)
REMARK    1  A    between atoms: O_3  and  N_6
REMARK    2  A    between atoms: O_3  and  C_21
REMARK    3  A    between atoms: C_7  and  C_9
REMARK    4  A    between atoms: C_8  and  C_14
REMARK    5  A    between atoms: C_15  and  C_19
REMARK    6  A    between atoms: C_20  and  C_21
REMARK                            x       y       z     vdW  Elec       q    Type
REMARK                         _______ _______ _______ _____ _____    ______ ____
ROOT
ATOM      1  S   UNL     1     -15.277  -0.067 -33.109  0.00  0.00    +0.000 S 
ATOM      2  N   UNL     1     -12.816   0.649 -33.268  0.00  0.00    +0.000 N 
ATOM      3  N   UNL     1     -14.102   2.337 -33.954  0.00  0.00    +0.000 NA
ATOM      4  C   UNL     1     -12.758   2.680 -34.035  0.00  0.00    +0.000 A 
ATOM      5  C   UNL     1     -11.933   1.652 -33.578  0.00  0.00    +0.000 A 
ATOM      6  C   UNL     1     -14.071   1.118 -33.503  0.00  0.00    +0.000 A 
ATOM      7  C   UNL     1     -12.758  -0.637 -32.769  0.00  0.00    +0.000 A 
ATOM      8  C   UNL     1     -13.981  -1.171 -32.622  0.00  0.00    +0.000 A 
ENDROOT
BRANCH   4   9
ATOM      9  C   UNL     1     -12.344   3.962 -34.593  0.00  0.00    +0.000 A 
ATOM     10  C   UNL     1     -11.655   3.987 -35.812  0.00  0.00    +0.000 A 
ATOM     11  C   UNL     1     -12.535   5.165 -33.903  0.00  0.00    +0.000 A 
ATOM     12  C   UNL     1     -11.343   6.384 -35.628  0.00  0.00    +0.000 A 
ATOM     13  C   UNL     1     -11.157   5.186 -36.324  0.00  0.00    +0.000 A 
ATOM     14  C   UNL     1     -12.045   6.367 -34.420  0.00  0.00    +0.000 A 
ATOM     15  C   UNL     1     -10.716   7.658 -36.108  0.00  0.00    +0.000 C 
ENDBRANCH   4   9
BRANCH   5  17
ATOM     16  N   UNL     1      -9.778   1.050 -34.350  0.00  0.00    +0.000 NA
ATOM     17  C   UNL     1     -10.511   1.589 -33.429  0.00  0.00    +0.000 C 
BRANCH  16  18
ATOM     18  O   UNL     1      -8.425   1.168 -33.986  0.00  0.00    +0.000 OA
BRANCH  18  19
ATOM     19  C   UNL     1      -7.657   1.398 -35.172  0.00  0.00    +0.000 C 
BRANCH  19  21
ATOM     20 CL   UNL     1      -7.307   7.173 -36.866  0.00  0.00    +0.000 Cl
ATOM     21  C   UNL     1      -7.682   2.852 -35.579  0.00  0.00    +0.000 A 
ATOM     22  C   UNL     1      -7.600   3.189 -36.940  0.00  0.00    +0.000 A 
ATOM     23  C   UNL     1      -7.688   3.884 -34.628  0.00  0.00    +0.000 A 
ATOM     24  C   UNL     1      -7.510   4.525 -37.340  0.00  0.00    +0.000 A 
ATOM     25  C   UNL     1      -7.600   5.220 -35.027  0.00  0.00    +0.000 A 
ATOM     26  C   UNL     1      -7.493   5.533 -36.380  0.00  0.00    +0.000 A 
ENDBRANCH  19  21
ENDBRANCH  18  19
ENDBRANCH  16  18
ENDBRANCH   5  17
TORSDOF 5
ENDMDL
MODEL 6
REMARK VINA RESULT:      -5.3      3.799      6.465
REMARK  Name = 9657326
REMARK  6 active torsions:
REMARK  status: ('A' for Active; 'I' for Inactive)
REMARK    1  A    between atoms: O_3  and  N_6
REMARK    2  A    between atoms: O_3  and  C_21
REMARK    3  A    between atoms: C_7  and  C_9
REMARK    4  A    between atoms: C_8  and  C_14
REMARK    5  A    between atoms: C_15  and  C_19
REMARK    6  A    between atoms: C_20  and  C_21
REMARK                            x       y       z     vdW  Elec       q    Type
REMARK                         _______ _______ _______ _____ _____    ______ ____
ROOT
ATOM      1  S   UNL     1     -15.637   8.489 -34.507  0.00  0.00    +0.000 S 
ATOM      2  N   UNL     1     -14.451   6.300 -33.879  0.00  0.00    +0.000 N 
ATOM      3  N   UNL     1     -13.252   7.343 -35.443  0.00  0.00    +0.000 NA
ATOM      4  C   UNL     1     -12.649   6.145 -35.082  0.00  0.00    +0.000 A 
ATOM      5  C   UNL     1     -13.363   5.488 -34.078  0.00  0.00    +0.000 A 
ATOM      6  C   UNL     1     -14.321   7.373 -34.704  0.00  0.00    +0.000 A 
ATOM      7  C   UNL     1     -15.569   6.318 -33.068  0.00  0.00    +0.000 A 
ATOM      8  C   UNL     1     -16.314   7.416 -33.273  0.00  0.00    +0.000 A 
ENDROOT
BRANCH   4   9
ATOM      9  C   UNL     1     -11.445   5.677 -35.759  0.00  0.00    +0.000 A 
ATOM     10  C   UNL     1     -11.564   4.756 -36.806  0.00  0.00    +0.000 A 
ATOM     11  C   UNL     1     -10.165   6.054 -35.334  0.00  0.00    +0.000 A 
ATOM     12  C   UNL     1      -9.151   4.585 -36.976  0.00  0.00    +0.000 A 
ATOM     13  C   UNL     1     -10.427   4.212 -37.409  0.00  0.00    +0.000 A 
ATOM     14  C   UNL     1      -9.028   5.517 -35.942  0.00  0.00    +0.000 A 
ATOM     15  C   UNL     1      -7.927   3.924 -37.534  0.00  0.00    +0.000 C 
ENDBRANCH   4   9
BRANCH   5  17
ATOM     16  N   UNL     1     -13.681   3.173 -33.705  0.00  0.00    +0.000 NA
ATOM     17  C   UNL     1     -13.086   4.274 -33.375  0.00  0.00    +0.000 C 
BRANCH  16  18
ATOM     18  O   UNL     1     -13.192   2.128 -32.902  0.00  0.00    +0.000 OA
BRANCH  18  19
ATOM     19  C   UNL     1     -12.849   1.028 -33.751  0.00  0.00    +0.000 C 
BRANCH  19  21
ATOM     20 CL   UNL     1      -6.943   0.383 -34.773  0.00  0.00    +0.000 Cl
ATOM     21  C   UNL     1     -11.353   0.880 -33.895  0.00  0.00    +0.000 A 
ATOM     22  C   UNL     1     -10.599   1.951 -34.402  0.00  0.00    +0.000 A 
ATOM     23  C   UNL     1     -10.704  -0.335 -33.626  0.00  0.00    +0.000 A 
ATOM     24  C   UNL     1      -9.231   1.806 -34.649  0.00  0.00    +0.000 A 
ATOM     25  C   UNL     1      -9.336  -0.479 -33.871  0.00  0.00    +0.000 A 
ATOM     26  C   UNL     1      -8.610   0.586 -34.398  0.00  0.00    +0.000 A 
ENDBRANCH  19  21
ENDBRANCH  18  19
ENDBRANCH  16  18
ENDBRANCH   5  17
TORSDOF 5
ENDMDL
MODEL 7
REMARK VINA RESULT:      -5.2     19.670     22.005
REMARK  Name = 9657326
REMARK  6 active torsions:
REMARK  status: ('A' for Active; 'I' for Inactive)
REMARK    1  A    between atoms: O_3  and  N_6
REMARK    2  A    between atoms: O_3  and  C_21
REMARK    3  A    between atoms: C_7  and  C_9
REMARK    4  A    between atoms: C_8  and  C_14
REMARK    5  A    between atoms: C_15  and  C_19
REMARK    6  A    between atoms: C_20  and  C_21
REMARK                            x       y       z     vdW  Elec       q    Type
REMARK                         _______ _______ _______ _____ _____    ______ ____
ROOT
ATOM      1  S   UNL     1     -24.075  12.461 -53.049  0.00  0.00    +0.000 S 
ATOM      2  N   UNL     1     -23.777  10.153 -51.964  0.00  0.00    +0.000 N 
ATOM      3  N   UNL     1     -23.100  10.042 -54.086  0.00  0.00    +0.000 NA
ATOM      4  C   UNL     1     -22.966   8.807 -53.464  0.00  0.00    +0.000 A 
ATOM      5  C   UNL     1     -23.351   8.858 -52.124  0.00  0.00    +0.000 A 
ATOM      6  C   UNL     1     -23.596  10.795 -53.149  0.00  0.00    +0.000 A 
ATOM      7  C   UNL     1     -24.284  10.937 -50.947  0.00  0.00    +0.000 A 
ATOM      8  C   UNL     1     -24.502  12.199 -51.352  0.00  0.00    +0.000 A 
ENDROOT
BRANCH   4   9
ATOM      9  C   UNL     1     -22.520   7.637 -54.210  0.00  0.00    +0.000 A 
ATOM     10  C   UNL     1     -21.247   7.642 -54.793  0.00  0.00    +0.000 A 
ATOM     11  C   UNL     1     -23.361   6.541 -54.438  0.00  0.00    +0.000 A 
ATOM     12  C   UNL     1     -21.674   5.492 -55.829  0.00  0.00    +0.000 A 
ATOM     13  C   UNL     1     -20.828   6.580 -55.597  0.00  0.00    +0.000 A 
ATOM     14  C   UNL     1     -22.939   5.474 -55.235  0.00  0.00    +0.000 A 
ATOM     15  C   UNL     1     -21.281   4.402 -56.781  0.00  0.00    +0.000 C 
ENDBRANCH   4   9
BRANCH   5  17
ATOM     16  N   UNL     1     -22.428   7.889 -50.173  0.00  0.00    +0.000 NA
ATOM     17  C   UNL     1     -23.326   7.855 -51.104  0.00  0.00    +0.000 C 
BRANCH  16  18
ATOM     18  O   UNL     1     -22.659   6.833 -49.273  0.00  0.00    +0.000 OA
BRANCH  18  19
ATOM     19  C   UNL     1     -24.013   6.918 -48.816  0.00  0.00    +0.000 C 
BRANCH  19  21
ATOM     20 CL   UNL     1     -24.002  10.142 -43.721  0.00  0.00    +0.000 Cl
ATOM     21  C   UNL     1     -24.116   7.687 -47.520  0.00  0.00    +0.000 A 
ATOM     22  C   UNL     1     -24.342   9.072 -47.556  0.00  0.00    +0.000 A 
ATOM     23  C   UNL     1     -23.896   7.072 -46.278  0.00  0.00    +0.000 A 
ATOM     24  C   UNL     1     -24.332   9.828 -46.381  0.00  0.00    +0.000 A 
ATOM     25  C   UNL     1     -23.888   7.826 -45.102  0.00  0.00    +0.000 A 
ATOM     26  C   UNL     1     -24.089   9.203 -45.160  0.00  0.00    +0.000 A 
ENDBRANCH  19  21
ENDBRANCH  18  19
ENDBRANCH  16  18
ENDBRANCH   5  17
TORSDOF 5
ENDMDL
MODEL 8
REMARK VINA RESULT:      -5.2     23.716     25.404
REMARK  Name = 9657326
REMARK  6 active torsions:
REMARK  status: ('A' for Active; 'I' for Inactive)
REMARK    1  A    between atoms: O_3  and  N_6
REMARK    2  A    between atoms: O_3  and  C_21
REMARK    3  A    between atoms: C_7  and  C_9
REMARK    4  A    between atoms: C_8  and  C_14
REMARK    5  A    between atoms: C_15  and  C_19
REMARK    6  A    between atoms: C_20  and  C_21
REMARK                            x       y       z     vdW  Elec       q    Type
REMARK                         _______ _______ _______ _____ _____    ______ ____
ROOT
ATOM      1  S   UNL     1     -24.462   1.756 -60.494  0.00  0.00    +0.000 S 
ATOM      2  N   UNL     1     -24.225   2.609 -58.083  0.00  0.00    +0.000 N 
ATOM      3  N   UNL     1     -22.770   3.697 -59.377  0.00  0.00    +0.000 NA
ATOM      4  C   UNL     1     -22.667   4.121 -58.058  0.00  0.00    +0.000 A 
ATOM      5  C   UNL     1     -23.591   3.480 -57.233  0.00  0.00    +0.000 A 
ATOM      6  C   UNL     1     -23.703   2.792 -59.325  0.00  0.00    +0.000 A 
ATOM      7  C   UNL     1     -25.232   1.667 -58.006  0.00  0.00    +0.000 A 
ATOM      8  C   UNL     1     -25.487   1.112 -59.202  0.00  0.00    +0.000 A 
ENDROOT
BRANCH   4   9
ATOM      9  C   UNL     1     -21.649   5.087 -57.659  0.00  0.00    +0.000 A 
ATOM     10  C   UNL     1     -21.430   6.217 -58.456  0.00  0.00    +0.000 A 
ATOM     11  C   UNL     1     -20.821   4.873 -56.551  0.00  0.00    +0.000 A 
ATOM     12  C   UNL     1     -19.567   6.887 -57.055  0.00  0.00    +0.000 A 
ATOM     13  C   UNL     1     -20.397   7.109 -58.158  0.00  0.00    +0.000 A 
ATOM     14  C   UNL     1     -19.793   5.769 -56.247  0.00  0.00    +0.000 A 
ATOM     15  C   UNL     1     -18.386   7.771 -56.792  0.00  0.00    +0.000 C 
ENDBRANCH   4   9
BRANCH   5  17
ATOM     16  N   UNL     1     -24.578   4.650 -55.428  0.00  0.00    +0.000 NA
ATOM     17  C   UNL     1     -23.875   3.644 -55.841  0.00  0.00    +0.000 C 
BRANCH  16  18
ATOM     18  O   UNL     1     -24.757   4.545 -54.037  0.00  0.00    +0.000 OA
BRANCH  18  19
ATOM     19  C   UNL     1     -24.818   5.865 -53.489  0.00  0.00    +0.000 C 
BRANCH  19  21
ATOM     20 CL   UNL     1     -21.392  10.010 -56.215  0.00  0.00    +0.000 Cl
ATOM     21  C   UNL     1     -23.943   6.828 -54.256  0.00  0.00    +0.000 A 
ATOM     22  C   UNL     1     -22.622   7.047 -53.833  0.00  0.00    +0.000 A 
ATOM     23  C   UNL     1     -24.443   7.586 -55.327  0.00  0.00    +0.000 A 
ATOM     24  C   UNL     1     -21.824   8.012 -54.454  0.00  0.00    +0.000 A 
ATOM     25  C   UNL     1     -23.645   8.549 -55.950  0.00  0.00    +0.000 A 
ATOM     26  C   UNL     1     -22.346   8.770 -55.499  0.00  0.00    +0.000 A 
ENDBRANCH  19  21
ENDBRANCH  18  19
ENDBRANCH  16  18
ENDBRANCH   5  17
TORSDOF 5
ENDMDL
MODEL 9
REMARK VINA RESULT:      -5.1     20.668     23.089
REMARK  Name = 9657326
REMARK  6 active torsions:
REMARK  status: ('A' for Active; 'I' for Inactive)
REMARK    1  A    between atoms: O_3  and  N_6
REMARK    2  A    between atoms: O_3  and  C_21
REMARK    3  A    between atoms: C_7  and  C_9
REMARK    4  A    between atoms: C_8  and  C_14
REMARK    5  A    between atoms: C_15  and  C_19
REMARK    6  A    between atoms: C_20  and  C_21
REMARK                            x       y       z     vdW  Elec       q    Type
REMARK                         _______ _______ _______ _____ _____    ______ ____
ROOT
ATOM      1  S   UNL     1      -5.480   4.951 -60.871  0.00  0.00    +0.000 S 
ATOM      2  N   UNL     1      -3.967   5.564 -58.889  0.00  0.00    +0.000 N 
ATOM      3  N   UNL     1      -5.339   3.920 -58.265  0.00  0.00    +0.000 NA
ATOM      4  C   UNL     1      -4.509   4.291 -57.214  0.00  0.00    +0.000 A 
ATOM      5  C   UNL     1      -3.616   5.295 -57.590  0.00  0.00    +0.000 A 
ATOM      6  C   UNL     1      -4.978   4.718 -59.225  0.00  0.00    +0.000 A 
ATOM      7  C   UNL     1      -3.552   6.409 -59.899  0.00  0.00    +0.000 A 
ATOM      8  C   UNL     1      -4.252   6.217 -61.028  0.00  0.00    +0.000 A 
ENDROOT
BRANCH   4   9
ATOM      9  C   UNL     1      -4.656   3.688 -55.894  0.00  0.00    +0.000 A 
ATOM     10  C   UNL     1      -4.484   2.307 -55.751  0.00  0.00    +0.000 A 
ATOM     11  C   UNL     1      -5.053   4.438 -54.780  0.00  0.00    +0.000 A 
ATOM     12  C   UNL     1      -5.119   2.435 -53.414  0.00  0.00    +0.000 A 
ATOM     13  C   UNL     1      -4.715   1.684 -54.522  0.00  0.00    +0.000 A 
ATOM     14  C   UNL     1      -5.276   3.816 -53.549  0.00  0.00    +0.000 A 
ATOM     15  C   UNL     1      -5.482   1.765 -52.123  0.00  0.00    +0.000 C 
ENDBRANCH   4   9
BRANCH   5  17
ATOM     16  N   UNL     1      -2.711   7.132 -56.404  0.00  0.00    +0.000 NA
ATOM     17  C   UNL     1      -2.562   5.930 -56.861  0.00  0.00    +0.000 C 
BRANCH  16  18
ATOM     18  O   UNL     1      -1.558   7.495 -55.684  0.00  0.00    +0.000 OA
BRANCH  18  19
ATOM     19  C   UNL     1      -0.568   7.945 -56.614  0.00  0.00    +0.000 C 
BRANCH  19  21
ATOM     20 CL   UNL     1       4.297  10.123 -53.795  0.00  0.00    +0.000 Cl
ATOM     21  C   UNL     1       0.602   8.594 -55.912  0.00  0.00    +0.000 A 
ATOM     22  C   UNL     1       1.787   8.835 -56.625  0.00  0.00    +0.000 A 
ATOM     23  C   UNL     1       0.572   8.877 -54.538  0.00  0.00    +0.000 A 
ATOM     24  C   UNL     1       2.922   9.331 -55.978  0.00  0.00    +0.000 A 
ATOM     25  C   UNL     1       1.706   9.375 -53.890  0.00  0.00    +0.000 A 
ATOM     26  C   UNL     1       2.880   9.583 -54.609  0.00  0.00    +0.000 A 
ENDBRANCH  19  21
ENDBRANCH  18  19
ENDBRANCH  16  18
ENDBRANCH   5  17
TORSDOF 5
ENDMDL
MODEL 10
REMARK VINA RESULT:      -4.9     16.003     18.311
REMARK  Name = 9657326
REMARK  6 active torsions:
REMARK  status: ('A' for Active; 'I' for Inactive)
REMARK    1  A    between atoms: O_3  and  N_6
REMARK    2  A    between atoms: O_3  and  C_21
REMARK    3  A    between atoms: C_7  and  C_9
REMARK    4  A    between atoms: C_8  and  C_14
REMARK    5  A    between atoms: C_15  and  C_19
REMARK    6  A    between atoms: C_20  and  C_21
REMARK                            x       y       z     vdW  Elec       q    Type
REMARK                         _______ _______ _______ _____ _____    ______ ____
ROOT
ATOM      1  S   UNL     1     -19.000  16.105 -51.685  0.00  0.00    +0.000 S 
ATOM      2  N   UNL     1     -18.184  15.689 -49.286  0.00  0.00    +0.000 N 
ATOM      3  N   UNL     1     -16.564  16.710 -50.430  0.00  0.00    +0.000 NA
ATOM      4  C   UNL     1     -16.158  16.456 -49.126  0.00  0.00    +0.000 A 
ATOM      5  C   UNL     1     -17.167  15.848 -48.378  0.00  0.00    +0.000 A 
ATOM      6  C   UNL     1     -17.769  16.222 -50.466  0.00  0.00    +0.000 A 
ATOM      7  C   UNL     1     -19.468  15.182 -49.293  0.00  0.00    +0.000 A 
ATOM      8  C   UNL     1     -20.051  15.321 -50.495  0.00  0.00    +0.000 A 
ENDROOT
BRANCH   4   9
ATOM      9  C   UNL     1     -14.802  16.770 -48.689  0.00  0.00    +0.000 A 
ATOM     10  C   UNL     1     -14.584  17.910 -47.905  0.00  0.00    +0.000 A 
ATOM     11  C   UNL     1     -13.698  16.016 -49.104  0.00  0.00    +0.000 A 
ATOM     12  C   UNL     1     -12.189  17.543 -47.977  0.00  0.00    +0.000 A 
ATOM     13  C   UNL     1     -13.289  18.295 -47.554  0.00  0.00    +0.000 A 
ATOM     14  C   UNL     1     -12.402  16.396 -48.745  0.00  0.00    +0.000 A 
ATOM     15  C   UNL     1     -10.790  18.009 -47.705  0.00  0.00    +0.000 C 
ENDBRANCH   4   9
BRANCH   5  17
ATOM     16  N   UNL     1     -16.400  14.565 -46.544  0.00  0.00    +0.000 NA
ATOM     17  C   UNL     1     -17.210  15.465 -47.001  0.00  0.00    +0.000 C 
BRANCH  16  18
ATOM     18  O   UNL     1     -16.609  14.418 -45.161  0.00  0.00    +0.000 OA
BRANCH  18  19
ATOM     19  C   UNL     1     -16.501  15.707 -44.549  0.00  0.00    +0.000 C 
BRANCH  19  21
ATOM     20 CL   UNL     1     -10.695  17.173 -43.844  0.00  0.00    +0.000 Cl
ATOM     21  C   UNL     1     -15.063  16.157 -44.449  0.00  0.00    +0.000 A 
ATOM     22  C   UNL     1     -14.059  15.408 -45.083  0.00  0.00    +0.000 A 
ATOM     23  C   UNL     1     -14.687  17.254 -43.657  0.00  0.00    +0.000 A 
ATOM     24  C   UNL     1     -12.711  15.736 -44.918  0.00  0.00    +0.000 A 
ATOM     25  C   UNL     1     -13.339  17.584 -43.493  0.00  0.00    +0.000 A 
ATOM     26  C   UNL     1     -12.357  16.813 -44.109  0.00  0.00    +0.000 A 
ENDBRANCH  19  21
ENDBRANCH  18  19
ENDBRANCH  16  18
ENDBRANCH   5  17
TORSDOF 5
ENDMDL
