REMARK  Name = 9657326
REMARK  6 active torsions:
REMARK  status: ('A' for Active; 'I' for Inactive)
REMARK    1  A    between atoms: O_3  and  N_6
REMARK    2  A    between atoms: O_3  and  C_21
REMARK    3  A    between atoms: C_7  and  C_9
REMARK    4  A    between atoms: C_8  and  C_14
REMARK    5  A    between atoms: C_15  and  C_19
REMARK    6  A    between atoms: C_20  and  C_21
REMARK                            x       y       z     vdW  Elec       q    Type
REMARK                         _______ _______ _______ _____ _____    ______ ____
ROOT
ATOM      1  S   UNL     1       4.967   0.540   8.420  0.00  0.00    +0.000 S 
ATOM      2  N   UNL     1       4.834  -0.152   5.951  0.00  0.00    +0.000 N 
ATOM      3  N   UNL     1       2.824   0.557   6.608  0.00  0.00    +0.000 NA
ATOM      4  C   UNL     1       2.793   0.161   5.277  0.00  0.00    +0.000 A 
ATOM      5  C   UNL     1       4.048  -0.255   4.831  0.00  0.00    +0.000 A 
ATOM      6  C   UNL     1       4.058   0.337   6.955  0.00  0.00    +0.000 A 
ATOM      7  C   UNL     1       6.154  -0.375   6.289  0.00  0.00    +0.000 A 
ATOM      8  C   UNL     1       6.400  -0.059   7.571  0.00  0.00    +0.000 A 
ENDROOT
BRANCH   4   9
ATOM      9  C   UNL     1       1.544   0.161   4.524  0.00  0.00    +0.000 A 
ATOM     10  C   UNL     1       0.556   1.101   4.839  0.00  0.00    +0.000 A 
ATOM     11  C   UNL     1       1.266  -0.810   3.554  0.00  0.00    +0.000 A 
ATOM     12  C   UNL     1      -0.965   0.089   3.245  0.00  0.00    +0.000 A 
ATOM     13  C   UNL     1      -0.689   1.065   4.207  0.00  0.00    +0.000 A 
ATOM     14  C   UNL     1       0.024  -0.841   2.915  0.00  0.00    +0.000 A 
ATOM     15  C   UNL     1      -2.333  -0.032   2.644  0.00  0.00    +0.000 C 
ENDBRANCH   4   9
BRANCH   5  17
ATOM     16  N   UNL     1       5.469  -1.520   3.424  0.00  0.00    +0.000 NA
ATOM     17  C   UNL     1       4.487  -0.685   3.539  0.00  0.00    +0.000 C 
BRANCH  16  18
ATOM     18  O   UNL     1       5.660  -1.819   2.063  0.00  0.00    +0.000 OA
BRANCH  18  19
ATOM     19  C   UNL     1       6.209  -3.137   1.963  0.00  0.00    +0.000 C 
BRANCH  19  21
ATOM     20 CL   UNL     1       8.118  -4.643  -3.554  0.00  0.00    +0.000 Cl
ATOM     21  C   UNL     1       6.587  -3.477   0.541  0.00  0.00    +0.000 A 
ATOM     22  C   UNL     1       6.559  -4.817   0.121  0.00  0.00    +0.000 A 
ATOM     23  C   UNL     1       7.059  -2.501  -0.350  0.00  0.00    +0.000 A 
ATOM     24  C   UNL     1       7.008  -5.175  -1.153  0.00  0.00    +0.000 A 
ATOM     25  C   UNL     1       7.506  -2.858  -1.625  0.00  0.00    +0.000 A 
ATOM     26  C   UNL     1       7.495  -4.195  -2.014  0.00  0.00    +0.000 A 
ENDBRANCH  19  21
ENDBRANCH  18  19
ENDBRANCH  16  18
ENDBRANCH   5  17
TORSDOF 5
