REMARK  Name = 40779852
REMARK  8 active torsions:
REMARK  status: ('A' for Active; 'I' for Inactive)
REMARK    1  A    between atoms: S_1  and  N_7
REMARK    2  A    between atoms: S_1  and  C_21
REMARK    3  A    between atoms: N_6  and  C_15
REMARK    4  A    between atoms: N_6  and  C_17
REMARK    5  A    between atoms: N_6  and  C_18
REMARK    6  A    between atoms: N_7  and  C_16
REMARK    7  A    between atoms: C_9  and  C_15
REMARK    8  A    between atoms: C_10  and  C_16
REMARK                            x       y       z     vdW  Elec       q    Type
REMARK                         _______ _______ _______ _____ _____    ______ ____
ROOT
ATOM      5  N   UNL     1      -0.254  -2.138   1.352  0.00  0.00    -0.298 NA
ATOM      8  C   UNL     1       1.187  -1.858  -0.796  0.00  0.00    -0.002 C 
ATOM      9  C   UNL     1       1.625  -0.856   0.296  0.00  0.00    +0.023 C 
ATOM     10  C   UNL     1      -1.136  -1.974   0.165  0.00  0.00    +0.072 C 
ATOM     11  C   UNL     1      -0.309  -1.657  -1.101  0.00  0.00    +0.024 C 
ATOM     12  C   UNL     1       0.647  -0.968   1.488  0.00  0.00    +0.090 C 
ATOM     13  C   UNL     1       1.345  -3.269  -0.199  0.00  0.00    +0.019 C 
ATOM     14  C   UNL     1       0.583  -3.343   1.137  0.00  0.00    +0.085 C 
ENDROOT
BRANCH   9  15
ATOM     15  C   UNL     1       1.732   0.580  -0.211  0.00  0.00    +0.109 C 
BRANCH  15   6
ATOM      6  N   UNL     1       2.940   0.735  -0.979  0.00  0.00    -0.333 N 
ATOM     17  C   UNL     1       2.856   0.686  -2.442  0.00  0.00    +0.129 C 
BRANCH   6  18
ATOM     18  C   UNL     1       4.186   0.924  -0.359  0.00  0.00    +0.029 A 
ATOM     19  C   UNL     1       4.274   0.972   1.032  0.00  0.00    +0.023 A 
ATOM     20  C   UNL     1       5.336   1.064  -1.136  0.00  0.00    +0.023 A 
ATOM     22  C   UNL     1       5.511   1.160   1.647  0.00  0.00    +0.002 A 
ATOM     23  C   UNL     1       6.574   1.252  -0.521  0.00  0.00    +0.002 A 
ATOM     25  C   UNL     1       6.662   1.300   0.870  0.00  0.00    +0.000 A 
ENDBRANCH   6  18
ENDBRANCH  15   6
ENDBRANCH   9  15
BRANCH  10  16
ATOM     16  C   UNL     1      -2.240  -0.941   0.396  0.00  0.00    +0.124 C 
BRANCH  16   7
ATOM      7  N   UNL     1      -3.140  -0.937  -0.725  0.00  0.00    -0.188 NA
ATOM     28  H   UNL     1      -2.721  -0.613  -1.606  0.00  0.00    +0.148 HD
BRANCH   7   1
ATOM      1  S   UNL     1      -4.803  -0.538  -0.531  0.00  0.00    +0.065 S 
ATOM      3  O   UNL     1      -5.365  -1.382   0.506  0.00  0.00    -0.153 OA
ATOM      4  O   UNL     1      -5.448  -0.447  -1.827  0.00  0.00    -0.153 OA
BRANCH   1  21
ATOM      2  S   UNL     1      -4.147   2.277  -1.018  0.00  0.00    -0.077 S 
ATOM     21  C   UNL     1      -4.692   1.107   0.107  0.00  0.00    +0.142 A 
ATOM     24  C   UNL     1      -4.955   1.659   1.341  0.00  0.00    +0.036 A 
ATOM     26  C   UNL     1      -4.706   3.062   1.363  0.00  0.00    +0.010 A 
ATOM     27  C   UNL     1      -4.263   3.529   0.145  0.00  0.00    +0.047 A 
ENDBRANCH   1  21
ENDBRANCH   7   1
ENDBRANCH  16   7
ENDBRANCH  10  16
TORSDOF 7
