REMARK  Name = 11941660
REMARK  8 active torsions:
REMARK  status: ('A' for Active; 'I' for Inactive)
REMARK    1  A    between atoms: O_4  and  C_33
REMARK    2  A    between atoms: O_4  and  C_36
REMARK    3  A    between atoms: N_6  and  C_13
REMARK    4  A    between atoms: N_7  and  C_14
REMARK    5  A    between atoms: N_8  and  C_20
REMARK    6  A    between atoms: C_19  and  C_23
REMARK    7  A    between atoms: C_30  and  C_34
REMARK    8  A    between atoms: C_34  and  C_35
REMARK                            x       y       z     vdW  Elec       q    Type
REMARK                         _______ _______ _______ _____ _____    ______ ____
ROOT
ATOM      1  O   UNL     1      -0.023  -3.841   0.879  0.00  0.00    -0.370 OA
ATOM      2  O   UNL     1      -1.080  -1.204   2.169  0.00  0.00    -0.370 OA
ATOM     11  C   UNL     1      -0.970  -1.659   0.810  0.00  0.00    +0.171 C 
ATOM     12  C   UNL     1       0.317  -2.456   0.705  0.00  0.00    +0.171 C 
ATOM     13  C   UNL     1      -2.053  -2.667   0.505  0.00  0.00    +0.130 C 
ATOM     14  C   UNL     1       1.147  -1.968   1.870  0.00  0.00    +0.131 C 
ATOM     15  C   UNL     1      -1.447  -3.967   1.000  0.00  0.00    +0.185 C 
ATOM     16  C   UNL     1       0.088  -1.611   2.898  0.00  0.00    +0.185 C 
ENDROOT
BRANCH  13   6
ATOM      6  N   UNL     1      -2.282  -2.732  -0.922  0.00  0.00    -0.306 N 
ATOM      9  N   UNL     1      -3.755  -0.938  -0.862  0.00  0.00    -0.214 NA
ATOM     10  N   UNL     1      -3.233  -2.059  -2.931  0.00  0.00    -0.223 NA
ATOM     17  C   UNL     1      -3.127  -1.872  -1.601  0.00  0.00    +0.216 A 
ATOM     19  C   UNL     1      -4.571  -0.117  -1.557  0.00  0.00    +0.076 A 
ATOM     21  C   UNL     1      -4.064  -1.204  -3.561  0.00  0.00    +0.116 A 
ATOM     22  C   UNL     1      -4.766  -0.204  -2.920  0.00  0.00    +0.048 A 
ATOM     37  H   UNL     1      -1.766  -3.403  -1.479  0.00  0.00    +0.149 HD
BRANCH  19  23
ATOM     23  C   UNL     1      -5.245   0.886  -0.769  0.00  0.00    +0.001 A 
ATOM     28  C   UNL     1      -6.639   0.920  -0.731  0.00  0.00    +0.013 A 
ATOM     29  C   UNL     1      -4.505   1.822  -0.046  0.00  0.00    +0.013 A 
ATOM     31  C   UNL     1      -7.293   1.890   0.029  0.00  0.00    +0.046 A 
ATOM     32  C   UNL     1      -5.159   2.792   0.713  0.00  0.00    +0.046 A 
ATOM     33  C   UNL     1      -6.553   2.826   0.751  0.00  0.00    +0.120 A 
BRANCH  33   4
ATOM      4  O   UNL     1      -7.191   3.771   1.494  0.00  0.00    -0.495 OA
ATOM     36  C   UNL     1      -6.373   4.698   2.208  0.00  0.00    +0.277 C 
ENDBRANCH  33   4
ENDBRANCH  19  23
ENDBRANCH  13   6
BRANCH  14   7
ATOM      3  O   UNL     1       3.866  -1.959   0.969  0.00  0.00    -0.252 OA
ATOM      7  N   UNL     1       1.931  -0.813   1.505  0.00  0.00    -0.292 N 
ATOM      8  N   UNL     1       3.760   0.380   0.791  0.00  0.00    -0.269 N 
ATOM     18  C   UNL     1       3.260  -0.895   1.073  0.00  0.00    +0.304 C 
ATOM     38  H   UNL     1       1.479   0.097   1.500  0.00  0.00    +0.151 HD
ATOM     39  H   UNL     1       3.124   1.161   0.932  0.00  0.00    +0.156 HD
BRANCH   8  20
ATOM     20  C   UNL     1       5.053   0.723   0.331  0.00  0.00    +0.035 A 
ATOM     24  C   UNL     1       5.379   2.060   0.102  0.00  0.00    +0.024 A 
ATOM     25  C   UNL     1       6.001  -0.275   0.106  0.00  0.00    +0.024 A 
ATOM     26  C   UNL     1       6.654   2.398  -0.352  0.00  0.00    +0.013 A 
ATOM     27  C   UNL     1       7.275   0.064  -0.348  0.00  0.00    +0.013 A 
ATOM     30  C   UNL     1       7.602   1.400  -0.578  0.00  0.00    +0.017 A 
BRANCH  30  34
ATOM      5  O   UNL     1       9.930   1.067  -0.758  0.00  0.00    -0.292 OA
ATOM     34  C   UNL     1       8.931   1.754  -1.050  0.00  0.00    +0.160 C 
ATOM     35  C   UNL     1       9.133   2.987  -1.925  0.00  0.00    +0.091 C 
ENDBRANCH  30  34
ENDBRANCH   8  20
ENDBRANCH  14   7
TORSDOF 6
