REMARK  Name = 45783739
REMARK  4 active torsions:
REMARK  status: ('A' for Active; 'I' for Inactive)
REMARK    1  A    between atoms: N_2  and  C_9
REMARK    2  A    between atoms: N_3  and  C_19
REMARK    3  A    between atoms: C_10  and  C_18
REMARK    4  A    between atoms: C_20  and  C_21
REMARK                            x       y       z     vdW  Elec       q    Type
REMARK                         _______ _______ _______ _____ _____    ______ ____
ROOT
ATOM      1  O   UNL     1       0.606  -1.758   1.854  0.00  0.00    -0.336 OA
ATOM      4  N   UNL     1       0.801  -0.820  -0.171  0.00  0.00    -0.190 NA
ATOM      5  N   UNL     1       1.875  -1.167   1.819  0.00  0.00    -0.056 NA
ATOM     18  C   UNL     1       0.041  -1.507   0.644  0.00  0.00    +0.245 A 
ATOM     20  C   UNL     1       1.915  -0.634   0.594  0.00  0.00    +0.207 A 
ENDROOT
BRANCH  20  21
ATOM      6  N   UNL     1       4.046   1.788  -1.281  0.00  0.00    -0.220 NA
ATOM      7  N   UNL     1       1.700   1.480  -1.319  0.00  0.00    -0.342 N 
ATOM      8  N   UNL     1       5.438   0.416   0.128  0.00  0.00    -0.243 NA
ATOM     21  C   UNL     1       3.054   0.087   0.103  0.00  0.00    +0.080 A 
ATOM     22  C   UNL     1       2.974   1.110  -0.819  0.00  0.00    +0.130 A 
ATOM     23  C   UNL     1       4.324  -0.220   0.547  0.00  0.00    +0.127 A 
ATOM     24  C   UNL     1       5.229   1.395  -0.772  0.00  0.00    +0.223 A 
ATOM     25  H   UNL     1       0.993   0.764  -1.423  0.00  0.00    +0.144 HD
ATOM     26  H   UNL     1       1.686   2.244  -1.984  0.00  0.00    +0.144 HD
ENDBRANCH  20  21
BRANCH  18  10
ATOM      2  N   UNL     1      -2.128  -1.255  -0.551  0.00  0.00    -0.288 NA
ATOM     10  C   UNL     1      -1.356  -2.050   0.426  0.00  0.00    +0.146 C 
ATOM     11  C   UNL     1      -3.068  -2.179  -1.185  0.00  0.00    +0.085 C 
ATOM     14  C   UNL     1      -1.357  -3.479  -0.146  0.00  0.00    +0.030 C 
ATOM     15  C   UNL     1      -2.202  -3.402  -1.409  0.00  0.00    +0.017 C 
BRANCH   2   9
ATOM      3  N   UNL     1      -3.196   2.789   0.203  0.00  0.00    -0.305 NA
ATOM      9  C   UNL     1      -2.805  -0.107   0.048  0.00  0.00    +0.060 C 
ATOM     12  C   UNL     1      -3.574   0.672  -1.023  0.00  0.00    +0.034 C 
ATOM     13  C   UNL     1      -1.804   0.817   0.747  0.00  0.00    +0.034 C 
ATOM     16  C   UNL     1      -4.208   1.934  -0.433  0.00  0.00    +0.085 C 
ATOM     17  C   UNL     1      -2.496   2.074   1.279  0.00  0.00    +0.085 C 
ATOM     19  C   UNL     1      -3.810   4.014   0.716  0.00  0.00    +0.104 C 
ENDBRANCH   2   9
ENDBRANCH  18  10
TORSDOF 3
