REMARK  Name = 51137884
REMARK  3 active torsions:
REMARK  status: ('A' for Active; 'I' for Inactive)
REMARK    1  A    between atoms: N_1  and  C_4
REMARK    2  A    between atoms: N_2  and  C_17
REMARK    3  A    between atoms: C_5  and  C_14
REMARK                            x       y       z     vdW  Elec       q    Type
REMARK                         _______ _______ _______ _____ _____    ______ ____
ROOT
ATOM      1  N   UNL     1      -2.259   0.357   0.671  0.00  0.00    -0.299 NA
ATOM      5  C   UNL     1       0.025   0.310   1.204  0.00  0.00    +0.070 C 
ATOM      6  C   UNL     1      -1.044  -0.401   0.362  0.00  0.00    +0.096 C 
ATOM      7  C   UNL     1      -1.844   1.759   0.650  0.00  0.00    +0.085 C 
ATOM      8  C   UNL     1      -0.522   1.734   1.406  0.00  0.00    +0.028 C 
ENDROOT
BRANCH   5  14
ATOM      2  N   UNL     1       2.271  -0.780   0.860  0.00  0.00    -0.330 N 
ATOM      3  N   UNL     1       1.917   1.113  -0.250  0.00  0.00    -0.232 NA
ATOM     14  C   UNL     1       1.403   0.241   0.588  0.00  0.00    +0.115 A 
ATOM     15  C   UNL     1       3.422  -0.550   0.150  0.00  0.00    +0.069 A 
ATOM     16  C   UNL     1       3.176   0.637  -0.534  0.00  0.00    +0.089 A 
ATOM     17  C   UNL     1       2.024  -1.902   1.737  0.00  0.00    +0.150 C 
ATOM     18  C   UNL     1       4.621  -1.257   0.052  0.00  0.00    +0.028 A 
ATOM     19  C   UNL     1       4.174   1.165  -1.370  0.00  0.00    +0.030 A 
ATOM     20  C   UNL     1       5.603  -0.718  -0.785  0.00  0.00    +0.002 A 
ATOM     21  C   UNL     1       5.386   0.472  -1.485  0.00  0.00    +0.002 A 
ENDBRANCH   5  14
BRANCH   1   4
ATOM      4  C   UNL     1      -3.342   0.082  -0.271  0.00  0.00    +0.057 C 
ATOM      9  C   UNL     1      -3.729  -1.399  -0.202  0.00  0.00    +0.019 C 
ATOM     10  C   UNL     1      -4.542   0.982   0.038  0.00  0.00    +0.019 C 
ATOM     11  C   UNL     1      -4.911  -1.709  -1.119  0.00  0.00    +0.002 C 
ATOM     12  C   UNL     1      -5.723   0.670  -0.880  0.00  0.00    +0.002 C 
ATOM     13  C   UNL     1      -6.105  -0.806  -0.822  0.00  0.00    +0.000 C 
ENDBRANCH   1   4
TORSDOF 2
