REMARK  Name = 71693206
REMARK  16 active torsions:
REMARK  status: ('A' for Active; 'I' for Inactive)
REMARK    1  A    between atoms: O_2  and  C_32
REMARK    2  A    between atoms: O_2  and  C_34
REMARK    3  A    between atoms: O_4  and  C_33
REMARK    4  A    between atoms: N_6  and  C_16
REMARK    5  A    between atoms: C_9  and  C_13
REMARK    6  A    between atoms: C_10  and  C_16
REMARK    7  A    between atoms: C_12  and  C_17
REMARK    8  A    between atoms: C_13  and  C_18
REMARK    9  A    between atoms: C_13  and  C_19
REMARK   10  A    between atoms: C_14  and  C_20
REMARK   11  A    between atoms: C_17  and  C_21
REMARK   12  A    between atoms: C_22  and  C_25
REMARK   13  A    between atoms: C_25  and  C_27
REMARK   14  A    between atoms: C_27  and  C_31
REMARK   15  A    between atoms: C_29  and  C_32
REMARK   16  A    between atoms: C_31  and  C_33
REMARK                            x       y       z     vdW  Elec       q    Type
REMARK                         _______ _______ _______ _____ _____    ______ ____
ROOT
ATOM      9  C   UNL     1       2.369  -1.019   1.256  0.00  0.00    +0.000 C 
ATOM     10  C   UNL     1       3.870  -1.345   1.058  0.00  0.00    +0.032 C 
ATOM     11  C   UNL     1       1.500  -2.212   0.830  0.00  0.00    +0.012 C 
ATOM     12  C   UNL     1       1.725  -2.600  -0.643  0.00  0.00    +0.022 C 
ATOM     14  C   UNL     1       3.199  -2.679  -0.986  0.00  0.00    -0.073 C 
ATOM     15  C   UNL     1       4.144  -2.124  -0.207  0.00  0.00    -0.022 C 
ATOM     20  C   UNL     1       3.566  -3.452  -2.223  0.00  0.00    +0.039 C 
ENDROOT
BRANCH   9  13
ATOM     13  C   UNL     1       2.056  -0.641   2.707  0.00  0.00    -0.013 C 
ATOM     18  C   UNL     1       0.800   0.223   2.773  0.00  0.00    +0.007 C 
ATOM     19  C   UNL     1       1.895  -1.895   3.561  0.00  0.00    +0.007 C 
ENDBRANCH   9  13
BRANCH  10  16
ATOM     16  C   UNL     1       4.719  -0.068   1.065  0.00  0.00    +0.112 C 
BRANCH  16   6
ATOM      1  O   UNL     1       3.718   2.621   1.132  0.00  0.00    -0.276 OA
ATOM      6  N   UNL     1       4.410   0.753  -0.062  0.00  0.00    -0.315 N 
ATOM     22  C   UNL     1       3.925   2.056   0.062  0.00  0.00    +0.213 C 
ATOM     35  H   UNL     1       4.610   0.392  -0.991  0.00  0.00    +0.149 HD
BRANCH  22  25
ATOM     25  C   UNL     1       3.651   2.696  -1.288  0.00  0.00    +0.096 C 
BRANCH  25  27
ATOM     27  C   UNL     1       2.519   3.723  -1.263  0.00  0.00    +0.020 C 
BRANCH  27  31
ATOM     31  C   UNL     1       1.187   3.111  -0.827  0.00  0.00    +0.121 C 
BRANCH  31  33
ATOM      5  O   UNL     1       0.188   5.310  -1.130  0.00  0.00    -0.251 OA
ATOM     33  C   UNL     1       0.075   4.135  -0.812  0.00  0.00    +0.305 C 
BRANCH  33   4
ATOM      4  O   UNL     1      -1.097   3.588  -0.396  0.00  0.00    -0.481 OA
ATOM     37  H   UNL     1      -1.824   4.247  -0.385  0.00  0.00    +0.295 HD
ENDBRANCH  33   4
ENDBRANCH  31  33
ENDBRANCH  27  31
ENDBRANCH  25  27
ENDBRANCH  22  25
ENDBRANCH  16   6
ENDBRANCH  10  16
BRANCH  12  17
ATOM     17  C   UNL     1       0.994  -1.638  -1.586  0.00  0.00    +0.082 C 
BRANCH  17  21
ATOM      7  N   UNL     1      -1.018  -0.516  -0.610  0.00  0.00    -0.342 N 
ATOM      8  N   UNL     1      -1.380  -2.480  -1.585  0.00  0.00    -0.232 NA
ATOM     21  C   UNL     1      -0.475  -1.578  -1.277  0.00  0.00    +0.109 A 
ATOM     23  C   UNL     1      -2.364  -0.748  -0.479  0.00  0.00    +0.067 A 
ATOM     24  C   UNL     1      -2.564  -1.979  -1.096  0.00  0.00    +0.089 A 
ATOM     26  C   UNL     1      -3.391  -0.008   0.108  0.00  0.00    +0.042 A 
ATOM     28  C   UNL     1      -3.860  -2.521  -1.139  0.00  0.00    +0.030 A 
ATOM     29  C   UNL     1      -4.674  -0.562   0.056  0.00  0.00    +0.061 A 
ATOM     30  C   UNL     1      -4.907  -1.796  -0.556  0.00  0.00    +0.017 A 
ATOM     36  H   UNL     1      -0.519   0.296  -0.269  0.00  0.00    +0.167 HD
BRANCH  29  32
ATOM      3  O   UNL     1      -6.788  -0.373   1.142  0.00  0.00    -0.245 OA
ATOM     32  C   UNL     1      -5.787   0.163   0.652  0.00  0.00    +0.339 C 
BRANCH  32   2
ATOM      2  O   UNL     1      -5.588   1.516   0.603  0.00  0.00    -0.464 OA
ATOM     34  C   UNL     1      -6.617   2.340   1.160  0.00  0.00    +0.280 C 
ENDBRANCH  32   2
ENDBRANCH  29  32
ENDBRANCH  17  21
ENDBRANCH  12  17
TORSDOF 12
