REMARK  Name = 75537141
REMARK  6 active torsions:
REMARK  status: ('A' for Active; 'I' for Inactive)
REMARK    1  A    between atoms: O_2  and  C_16
REMARK    2  A    between atoms: O_2  and  C_20
REMARK    3  A    between atoms: N_4  and  C_14
REMARK    4  A    between atoms: N_5  and  C_15
REMARK    5  A    between atoms: C_14  and  C_17
REMARK    6  A    between atoms: C_15  and  C_16
REMARK                            x       y       z     vdW  Elec       q    Type
REMARK                         _______ _______ _______ _____ _____    ______ ____
ROOT
ATOM      1  O   UNL     1       3.286   1.887  -0.303  0.00  0.00    -0.252 OA
ATOM      3  N   UNL     1       1.042   1.200  -0.404  0.00  0.00    -0.278 N 
ATOM      4  N   UNL     1      -1.631   0.837   0.395  0.00  0.00    -0.292 NA
ATOM      5  N   UNL     1       2.628  -0.252  -1.050  0.00  0.00    -0.281 N 
ATOM      8  C   UNL     1       0.306   0.060  -0.910  0.00  0.00    +0.109 C 
ATOM      9  C   UNL     1      -0.797  -0.339   0.069  0.00  0.00    +0.109 C 
ATOM     10  C   UNL     1       1.385  -0.999  -1.128  0.00  0.00    +0.133 C 
ATOM     11  C   UNL     1       0.314   2.353   0.084  0.00  0.00    +0.125 C 
ATOM     12  C   UNL     1      -0.818   1.904   1.012  0.00  0.00    +0.104 C 
ATOM     13  C   UNL     1       2.427   1.053  -0.557  0.00  0.00    +0.305 C 
ENDROOT
BRANCH   4  14
ATOM     14  C   UNL     1      -2.727   0.453   1.285  0.00  0.00    +0.158 C 
BRANCH  14  17
ATOM      6  N   UNL     1      -4.719   0.444  -0.235  0.00  0.00    -0.347 N 
ATOM      7  N   UNL     1      -4.084  -1.539   0.537  0.00  0.00    -0.239 NA
ATOM     17  C   UNL     1      -3.832  -0.249   0.542  0.00  0.00    +0.121 A 
ATOM     18  C   UNL     1      -5.591  -0.462  -0.769  0.00  0.00    +0.104 A 
ATOM     19  C   UNL     1      -5.179  -1.679  -0.278  0.00  0.00    +0.130 A 
ATOM     21  H   UNL     1      -4.729   1.444  -0.388  0.00  0.00    +0.167 HD
ENDBRANCH  14  17
ENDBRANCH   4  14
BRANCH   5  15
ATOM     15  C   UNL     1       3.910  -0.868  -1.312  0.00  0.00    +0.137 C 
BRANCH  15  16
ATOM     16  C   UNL     1       4.415  -1.639  -0.106  0.00  0.00    +0.178 C 
BRANCH  16   2
ATOM      2  O   UNL     1       4.593  -0.745   0.986  0.00  0.00    -0.381 OA
ATOM     20  C   UNL     1       5.071  -1.421   2.141  0.00  0.00    +0.194 C 
ENDBRANCH  16   2
ENDBRANCH  15  16
ENDBRANCH   5  15
TORSDOF 5
