REMARK  Name = 45783797
REMARK  9 active torsions:
REMARK  status: ('A' for Active; 'I' for Inactive)
REMARK    1  A    between atoms: O_2  and  C_25
REMARK    2  A    between atoms: N_4  and  C_13
REMARK    3  A    between atoms: N_8  and  C_27
REMARK    4  A    between atoms: N_8  and  C_28
REMARK    5  A    between atoms: N_8  and  C_29
REMARK    6  A    between atoms: C_9  and  C_14
REMARK    7  A    between atoms: C_13  and  C_15
REMARK    8  A    between atoms: C_18  and  C_21
REMARK    9  A    between atoms: C_22  and  C_25
REMARK                            x       y       z     vdW  Elec       q    Type
REMARK                         _______ _______ _______ _____ _____    ______ ____
ROOT
ATOM      4  N   UNL     1      -3.789  -0.480  -0.803  0.00  0.00    -0.287 NA
ATOM      9  C   UNL     1      -3.512  -1.325   0.375  0.00  0.00    +0.146 C 
ATOM     10  C   UNL     1      -4.082  -2.708   0.008  0.00  0.00    +0.030 C 
ATOM     11  C   UNL     1      -4.712  -2.526  -1.366  0.00  0.00    +0.017 C 
ATOM     12  C   UNL     1      -4.983  -1.037  -1.439  0.00  0.00    +0.085 C 
ENDROOT
BRANCH   9  14
ATOM      1  O   UNL     1      -1.732  -1.605   2.026  0.00  0.00    -0.336 OA
ATOM      5  N   UNL     1      -0.997  -1.224  -0.055  0.00  0.00    -0.190 NA
ATOM      6  N   UNL     1      -0.333  -1.605   2.101  0.00  0.00    -0.056 NA
ATOM     14  C   UNL     1      -2.039  -1.374   0.723  0.00  0.00    +0.245 A 
ATOM     18  C   UNL     1       0.027  -1.374   0.835  0.00  0.00    +0.204 A 
BRANCH  18  21
ATOM      7  N   UNL     1       3.741  -1.373   1.021  0.00  0.00    -0.240 NA
ATOM     21  C   UNL     1       1.399  -1.288   0.426  0.00  0.00    +0.041 A 
ATOM     23  C   UNL     1       1.738  -1.048  -0.901  0.00  0.00    +0.016 A 
ATOM     24  C   UNL     1       2.429  -1.442   1.340  0.00  0.00    +0.124 A 
ATOM     26  C   UNL     1       3.077  -0.970  -1.268  0.00  0.00    +0.044 A 
ATOM     27  C   UNL     1       4.031  -1.137  -0.278  0.00  0.00    +0.121 A 
BRANCH  27   8
ATOM      8  N   UNL     1       5.391  -1.056  -0.667  0.00  0.00    -0.321 N 
ATOM     28  C   UNL     1       5.738  -0.807  -2.049  0.00  0.00    +0.130 C 
ATOM     29  C   UNL     1       6.440  -1.214   0.316  0.00  0.00    +0.130 C 
ENDBRANCH  27   8
ENDBRANCH  18  21
ENDBRANCH   9  14
BRANCH   4  13
ATOM     13  C   UNL     1      -3.951   0.930  -0.473  0.00  0.00    +0.120 C 
BRANCH  13  15
ATOM     15  C   UNL     1      -2.625   1.616  -0.280  0.00  0.00    -0.033 A 
ATOM     16  C   UNL     1      -2.332   2.237   0.935  0.00  0.00    +0.006 A 
ATOM     17  C   UNL     1      -1.689   1.632  -1.314  0.00  0.00    +0.006 A 
ATOM     19  C   UNL     1      -1.103   2.873   1.115  0.00  0.00    +0.015 A 
ATOM     20  C   UNL     1      -0.461   2.268  -1.135  0.00  0.00    +0.015 A 
ATOM     22  C   UNL     1      -0.168   2.888   0.080  0.00  0.00    +0.059 A 
BRANCH  22  25
ATOM      3  O   UNL     1       1.477   4.128   1.296  0.00  0.00    -0.245 OA
ATOM     25  C   UNL     1       1.113   3.550   0.267  0.00  0.00    +0.337 C 
BRANCH  25   2
ATOM      2  O   UNL     1       1.906   3.471  -0.837  0.00  0.00    -0.477 OA
ATOM     30  H   UNL     1       2.768   3.920  -0.700  0.00  0.00    +0.295 HD
ENDBRANCH  25   2
ENDBRANCH  22  25
ENDBRANCH  13  15
ENDBRANCH   4  13
TORSDOF 7
