REMARK  Name = 45361055
REMARK  7 active torsions:
REMARK  status: ('A' for Active; 'I' for Inactive)
REMARK    1  A    between atoms: N_4  and  C_19
REMARK    2  A    between atoms: N_5  and  C_18
REMARK    3  A    between atoms: N_8  and  C_24
REMARK    4  A    between atoms: C_14  and  C_17
REMARK    5  A    between atoms: C_17  and  C_20
REMARK    6  A    between atoms: C_18  and  C_21
REMARK    7  A    between atoms: C_20  and  C_22
REMARK                            x       y       z     vdW  Elec       q    Type
REMARK                         _______ _______ _______ _____ _____    ______ ____
ROOT
ATOM      2  O   UNL     1       1.591  -0.943   1.265  0.00  0.00    -0.274 OA
ATOM      4  N   UNL     1       0.453   2.120  -0.811  0.00  0.00    -0.296 NA
ATOM      5  N   UNL     1       3.536   0.255  -0.175  0.00  0.00    -0.284 NA
ATOM      6  N   UNL     1       0.543   1.006   1.848  0.00  0.00    -0.312 N 
ATOM     10  C   UNL     1       1.924   1.982  -0.732  0.00  0.00    +0.084 C 
ATOM     11  C   UNL     1       2.528   1.144   0.433  0.00  0.00    +0.161 C 
ATOM     12  C   UNL     1       2.557   1.315  -1.968  0.00  0.00    +0.036 C 
ATOM     13  C   UNL     1       3.901   0.837  -1.461  0.00  0.00    +0.087 C 
ATOM     14  C   UNL     1      -0.161   2.839   0.339  0.00  0.00    +0.074 C 
ATOM     15  C   UNL     1       1.525   0.284   1.198  0.00  0.00    +0.232 C 
ATOM     16  C   UNL     1       0.390   2.442   1.722  0.00  0.00    +0.123 C 
ATOM     19  C   UNL     1       0.054   2.752  -2.080  0.00  0.00    +0.105 C 
ATOM     30  H   UNL     1      -0.117   0.498   2.430  0.00  0.00    +0.149 HD
ENDROOT
BRANCH  14  17
ATOM     17  C   UNL     1      -1.688   2.612   0.365  0.00  0.00    +0.029 C 
BRANCH  17  20
ATOM     20  C   UNL     1      -2.044   1.149   0.163  0.00  0.00    +0.098 C 
BRANCH  20  22
ATOM      3  O   UNL     1      -4.373   1.763   0.276  0.00  0.00    -0.275 OA
ATOM      8  N   UNL     1      -3.784  -0.489  -0.036  0.00  0.00    -0.285 N 
ATOM     22  C   UNL     1      -3.542   0.869   0.153  0.00  0.00    +0.217 C 
ATOM     31  H   UNL     1      -2.977  -1.100  -0.136  0.00  0.00    +0.155 HD
BRANCH   8  24
ATOM     24  C   UNL     1      -5.039  -1.140  -0.105  0.00  0.00    +0.033 A 
ATOM     25  C   UNL     1      -5.099  -2.519  -0.300  0.00  0.00    +0.023 A 
ATOM     26  C   UNL     1      -6.216  -0.402   0.024  0.00  0.00    +0.023 A 
ATOM     27  C   UNL     1      -6.336  -3.161  -0.368  0.00  0.00    +0.002 A 
ATOM     28  C   UNL     1      -7.452  -1.043  -0.044  0.00  0.00    +0.002 A 
ATOM     29  C   UNL     1      -7.513  -2.423  -0.240  0.00  0.00    +0.000 A 
ENDBRANCH   8  24
ENDBRANCH  20  22
ENDBRANCH  17  20
ENDBRANCH  14  17
BRANCH   5  18
ATOM     18  C   UNL     1       4.699   0.033   0.676  0.00  0.00    +0.143 C 
BRANCH  18  21
ATOM      1  S   UNL     1       7.106  -3.023  -0.145  0.00  0.00    +0.028 S 
ATOM      7  N   UNL     1       4.713  -2.285  -0.220  0.00  0.00    -0.145 NA
ATOM      9  N   UNL     1       5.496  -3.315  -0.500  0.00  0.00    -0.110 NA
ATOM     21  C   UNL     1       5.437  -1.224   0.300  0.00  0.00    +0.086 A 
ATOM     23  C   UNL     1       6.796  -1.434   0.423  0.00  0.00    +0.093 A 
ENDBRANCH  18  21
ENDBRANCH   5  18
TORSDOF 6
