REMARK  Name = 25388978
REMARK  6 active torsions:
REMARK  status: ('A' for Active; 'I' for Inactive)
REMARK    1  A    between atoms: N_3  and  C_23
REMARK    2  A    between atoms: N_4  and  C_14
REMARK    3  A    between atoms: C_7  and  C_13
REMARK    4  A    between atoms: C_8  and  C_14
REMARK    5  A    between atoms: C_16  and  C_17
REMARK    6  A    between atoms: C_24  and  C_25
REMARK                            x       y       z     vdW  Elec       q    Type
REMARK                         _______ _______ _______ _____ _____    ______ ____
ROOT
ATOM      2  N   UNL     1      -3.306  -0.508   1.365  0.00  0.00    -0.297 NA
ATOM      6  C   UNL     1      -2.459  -1.340  -0.952  0.00  0.00    +0.002 C 
ATOM      7  C   UNL     1      -1.515  -1.832   0.180  0.00  0.00    +0.055 C 
ATOM      8  C   UNL     1      -3.248   0.628   0.408  0.00  0.00    +0.074 C 
ATOM      9  C   UNL     1      -2.555   0.199  -0.904  0.00  0.00    +0.024 C 
ATOM     10  C   UNL     1      -1.966  -1.134   1.495  0.00  0.00    +0.094 C 
ATOM     11  C   UNL     1      -3.864  -1.893  -0.632  0.00  0.00    +0.019 C 
ATOM     12  C   UNL     1      -4.238  -1.520   0.813  0.00  0.00    +0.085 C 
ENDROOT
BRANCH   7  13
ATOM      3  N   UNL     1       0.723  -2.722  -0.619  0.00  0.00    -0.271 N 
ATOM      5  N   UNL     1       2.032  -2.437  -0.724  0.00  0.00    -0.176 NA
ATOM     13  C   UNL     1      -0.013  -1.730  -0.042  0.00  0.00    +0.044 A 
ATOM     15  C   UNL     1       0.877  -0.725   0.252  0.00  0.00    +0.048 A 
ATOM     17  C   UNL     1       2.120  -1.215  -0.191  0.00  0.00    +0.066 A 
ATOM     23  C   UNL     1       0.238  -3.994  -1.102  0.00  0.00    +0.172 C 
BRANCH  17  16
ATOM     16  C   UNL     1       3.467  -0.519  -0.119  0.00  0.00    +0.040 C 
ATOM     18  C   UNL     1       3.894  -0.249   1.335  0.00  0.00    +0.010 C 
ATOM     19  C   UNL     1       3.487   0.777  -0.948  0.00  0.00    +0.010 C 
ATOM     20  C   UNL     1       5.255   0.442   1.397  0.00  0.00    +0.001 C 
ATOM     21  C   UNL     1       4.850   1.464  -0.877  0.00  0.00    +0.001 C 
ATOM     22  C   UNL     1       5.275   1.722   0.566  0.00  0.00    +0.000 C 
ENDBRANCH  17  16
ENDBRANCH   7  13
BRANCH   8  14
ATOM     14  C   UNL     1      -2.596   1.871   1.017  0.00  0.00    +0.123 C 
BRANCH  14   4
ATOM      1  O   UNL     1      -0.372   3.358  -0.112  0.00  0.00    -0.276 OA
ATOM      4  N   UNL     1      -2.660   2.976   0.112  0.00  0.00    -0.314 N 
ATOM     24  C   UNL     1      -1.538   3.636  -0.383  0.00  0.00    +0.210 C 
ATOM     25  C   UNL     1      -1.889   4.747  -1.336  0.00  0.00    +0.109 C 
ATOM     26  H   UNL     1      -3.580   3.313  -0.156  0.00  0.00    +0.149 HD
ENDBRANCH  14   4
ENDBRANCH   8  14
TORSDOF 4
