REMARK  Name = 75537110
REMARK  3 active torsions:
REMARK  status: ('A' for Active; 'I' for Inactive)
REMARK    1  A    between atoms: N_3  and  C_13
REMARK    2  A    between atoms: N_4  and  C_14
REMARK    3  A    between atoms: C_13  and  C_15
REMARK                            x       y       z     vdW  Elec       q    Type
REMARK                         _______ _______ _______ _____ _____    ______ ____
ROOT
ATOM      1  O   UNL     1       4.304   1.083  -0.098  0.00  0.00    -0.252 OA
ATOM      2  N   UNL     1       2.007   0.625  -0.283  0.00  0.00    -0.278 N 
ATOM      3  N   UNL     1      -0.761   0.863   0.154  0.00  0.00    -0.292 NA
ATOM      4  N   UNL     1       3.422  -1.104  -0.053  0.00  0.00    -0.287 N 
ATOM      7  C   UNL     1       1.171  -0.550  -0.419  0.00  0.00    +0.109 C 
ATOM      8  C   UNL     1      -0.081  -0.415   0.447  0.00  0.00    +0.109 C 
ATOM      9  C   UNL     1       2.098  -1.701  -0.034  0.00  0.00    +0.132 C 
ATOM     10  C   UNL     1       1.410   1.938  -0.405  0.00  0.00    +0.125 C 
ATOM     11  C   UNL     1       0.129   2.009   0.431  0.00  0.00    +0.104 C 
ATOM     12  C   UNL     1       3.364   0.301  -0.143  0.00  0.00    +0.305 C 
ATOM     14  C   UNL     1       4.619  -1.889   0.154  0.00  0.00    +0.133 C 
ENDROOT
BRANCH   3  13
ATOM     13  C   UNL     1      -1.993   0.975   0.934  0.00  0.00    +0.158 C 
BRANCH  13  15
ATOM      5  N   UNL     1      -3.784   0.536  -0.761  0.00  0.00    -0.347 N 
ATOM      6  N   UNL     1      -3.540  -1.014   0.810  0.00  0.00    -0.239 NA
ATOM     15  C   UNL     1      -3.102   0.138   0.354  0.00  0.00    +0.121 A 
ATOM     16  C   UNL     1      -4.717  -0.424  -1.035  0.00  0.00    +0.104 A 
ATOM     17  C   UNL     1      -4.547  -1.371  -0.052  0.00  0.00    +0.130 A 
ATOM     18  H   UNL     1      -3.628   1.385  -1.290  0.00  0.00    +0.167 HD
ENDBRANCH  13  15
ENDBRANCH   3  13
TORSDOF 2
