REMARK  Name = 51136667
REMARK  8 active torsions:
REMARK  status: ('A' for Active; 'I' for Inactive)
REMARK    1  A    between atoms: O_2  and  C_21
REMARK    2  A    between atoms: O_4  and  C_29
REMARK    3  A    between atoms: O_4  and  C_30
REMARK    4  A    between atoms: C_7  and  C_13
REMARK    5  A    between atoms: C_8  and  C_15
REMARK    6  A    between atoms: C_12  and  C_14
REMARK    7  A    between atoms: C_13  and  C_20
REMARK    8  A    between atoms: C_15  and  C_21
REMARK                            x       y       z     vdW  Elec       q    Type
REMARK                         _______ _______ _______ _____ _____    ______ ____
ROOT
ATOM      1  O   UNL     1       0.666  -3.545  -1.326  0.00  0.00    -0.275 OA
ATOM      5  N   UNL     1       1.663  -1.955   0.044  0.00  0.00    -0.301 N 
ATOM      7  C   UNL     1       2.069   0.402   0.717  0.00  0.00    +0.016 C 
ATOM      8  C   UNL     1       3.462   0.316   0.042  0.00  0.00    +0.006 C 
ATOM      9  C   UNL     1       1.615  -1.001   1.159  0.00  0.00    +0.112 C 
ATOM     10  C   UNL     1       3.480  -0.731  -1.085  0.00  0.00    +0.023 C 
ATOM     11  C   UNL     1       2.972  -2.084  -0.594  0.00  0.00    +0.108 C 
ATOM     14  C   UNL     1       0.593  -2.730  -0.402  0.00  0.00    +0.219 C 
ENDROOT
BRANCH  14  12
ATOM     12  C   UNL     1      -0.716  -2.538   0.301  0.00  0.00    +0.075 C 
ATOM     16  C   UNL     1      -0.844  -3.526   1.465  0.00  0.00    +0.013 C 
ATOM     17  C   UNL     1      -1.884  -2.832  -0.641  0.00  0.00    +0.013 C 
ATOM     18  C   UNL     1      -2.137  -4.297   1.217  0.00  0.00    +0.001 C 
ATOM     19  C   UNL     1      -2.313  -4.250  -0.290  0.00  0.00    +0.001 C 
ENDBRANCH  14  12
BRANCH   7  13
ATOM     13  C   UNL     1       0.993   1.060  -0.156  0.00  0.00    +0.061 C 
BRANCH  13  20
ATOM      6  N   UNL     1       0.142   1.912   1.922  0.00  0.00    -0.287 NA
ATOM     20  C   UNL     1      -0.138   1.557   0.711  0.00  0.00    +0.044 C 
ATOM     22  C   UNL     1      -1.509   1.607   0.141  0.00  0.00    -0.001 A 
ATOM     23  C   UNL     1      -2.569   1.692   1.052  0.00  0.00    -0.033 A 
ATOM     24  C   UNL     1      -0.946   2.451   2.745  0.00  0.00    +0.146 C 
ATOM     25  C   UNL     1      -2.258   1.712   2.519  0.00  0.00    +0.059 C 
ATOM     26  C   UNL     1      -1.757   1.557  -1.232  0.00  0.00    +0.013 A 
ATOM     27  C   UNL     1      -3.885   1.702   0.581  0.00  0.00    +0.050 A 
ATOM     28  C   UNL     1      -3.074   1.584  -1.694  0.00  0.00    +0.046 A 
ATOM     29  C   UNL     1      -4.135   1.653  -0.791  0.00  0.00    +0.120 A 
BRANCH  29   4
ATOM      4  O   UNL     1      -5.417   1.670  -1.249  0.00  0.00    -0.495 OA
ATOM     30  C   UNL     1      -5.601   1.615  -2.662  0.00  0.00    +0.277 C 
ENDBRANCH  29   4
ENDBRANCH  13  20
ENDBRANCH   7  13
BRANCH   8  15
ATOM     15  C   UNL     1       3.967   1.665  -0.468  0.00  0.00    +0.124 C 
BRANCH  15  21
ATOM      3  O   UNL     1       6.227   0.758  -0.362  0.00  0.00    -0.251 OA
ATOM     21  C   UNL     1       5.464   1.680  -0.607  0.00  0.00    +0.305 C 
BRANCH  21   2
ATOM      2  O   UNL     1       5.870   2.896  -1.056  0.00  0.00    -0.481 OA
ATOM     31  H   UNL     1       6.844   2.941  -1.158  0.00  0.00    +0.295 HD
ENDBRANCH  21   2
ENDBRANCH  15  21
ENDBRANCH   8  15
TORSDOF 7
