REMARK  Name = 45784275
REMARK  5 active torsions:
REMARK  status: ('A' for Active; 'I' for Inactive)
REMARK    1  A    between atoms: N_4  and  C_11
REMARK    2  A    between atoms: C_7  and  C_12
REMARK    3  A    between atoms: C_11  and  C_13
REMARK    4  A    between atoms: C_11  and  C_14
REMARK    5  A    between atoms: C_19  and  C_21
REMARK                            x       y       z     vdW  Elec       q    Type
REMARK                         _______ _______ _______ _____ _____    ______ ____
ROOT
ATOM      5  N   UNL     1       0.226  -1.279  -0.122  0.00  0.00    -0.342 N 
ATOM      6  N   UNL     1      -0.415   0.740   0.551  0.00  0.00    -0.232 NA
ATOM     12  C   UNL     1      -0.818  -0.469   0.231  0.00  0.00    +0.113 A 
ATOM     15  C   UNL     1       1.379  -0.543  -0.025  0.00  0.00    +0.067 A 
ATOM     16  C   UNL     1       0.953   0.713   0.397  0.00  0.00    +0.089 A 
ATOM     17  C   UNL     1       2.717  -0.859  -0.262  0.00  0.00    +0.040 A 
ATOM     18  C   UNL     1       1.904   1.727   0.599  0.00  0.00    +0.030 A 
ATOM     19  C   UNL     1       3.651   0.162  -0.056  0.00  0.00    +0.057 A 
ATOM     20  C   UNL     1       3.254   1.433   0.367  0.00  0.00    +0.014 A 
ATOM     22  H   UNL     1       0.163  -2.248  -0.406  0.00  0.00    +0.167 HD
ENDROOT
BRANCH  12   7
ATOM      4  N   UNL     1      -4.465  -0.299  -0.081  0.00  0.00    -0.299 NA
ATOM      7  C   UNL     1      -2.241  -0.977   0.230  0.00  0.00    +0.070 C 
ATOM      8  C   UNL     1      -3.154  -0.197  -0.726  0.00  0.00    +0.096 C 
ATOM      9  C   UNL     1      -2.953  -0.907   1.592  0.00  0.00    +0.028 C 
ATOM     10  C   UNL     1      -4.204  -0.075   1.341  0.00  0.00    +0.085 C 
BRANCH   4  11
ATOM     11  C   UNL     1      -5.426   0.648  -0.624  0.00  0.00    +0.050 C 
ATOM     13  C   UNL     1      -6.751   0.546   0.127  0.00  0.00    +0.024 C 
ATOM     14  C   UNL     1      -5.618   0.380  -2.113  0.00  0.00    +0.024 C 
ENDBRANCH   4  11
ENDBRANCH  12   7
BRANCH  19  21
ATOM      1  F   UNL     1       5.885   0.974  -0.051  0.00  0.00    -0.166 F 
ATOM      2  F   UNL     1       5.600  -1.112   0.492  0.00  0.00    -0.166 F 
ATOM      3  F   UNL     1       5.379  -0.492  -1.575  0.00  0.00    -0.166 F 
ATOM     21  C   UNL     1       5.099  -0.114  -0.293  0.00  0.00    +0.417 C 
ENDBRANCH  19  21
TORSDOF 3
