REMARK  Name = 28960006
REMARK  8 active torsions:
REMARK  status: ('A' for Active; 'I' for Inactive)
REMARK    1  A    between atoms: O_1  and  C_24
REMARK    2  A    between atoms: N_5  and  C_15
REMARK    3  A    between atoms: N_7  and  C_17
REMARK    4  A    between atoms: N_9  and  C_31
REMARK    5  A    between atoms: C_10  and  C_12
REMARK    6  A    between atoms: C_11  and  C_20
REMARK    7  A    between atoms: C_12  and  C_15
REMARK    8  A    between atoms: C_20  and  C_24
REMARK                            x       y       z     vdW  Elec       q    Type
REMARK                         _______ _______ _______ _____ _____    ______ ____
ROOT
ATOM      2  O   UNL     1      -3.576  -3.214   1.334  0.00  0.00    -0.252 OA
ATOM      6  N   UNL     1      -4.172  -1.562  -0.169  0.00  0.00    -0.285 N 
ATOM      9  N   UNL     1      -2.247  -2.874  -0.537  0.00  0.00    -0.269 N 
ATOM     10  C   UNL     1      -3.857   0.708  -1.116  0.00  0.00    +0.011 C 
ATOM     11  C   UNL     1      -5.058   1.192  -0.261  0.00  0.00    +0.006 C 
ATOM     13  C   UNL     1      -4.009  -0.794  -1.413  0.00  0.00    +0.113 C 
ATOM     14  C   UNL     1      -5.264   0.313   0.986  0.00  0.00    +0.023 C 
ATOM     16  C   UNL     1      -5.339  -1.169   0.622  0.00  0.00    +0.109 C 
ATOM     23  C   UNL     1      -3.344  -2.611   0.283  0.00  0.00    +0.306 C 
ATOM     39  H   UNL     1      -2.326  -2.681  -1.528  0.00  0.00    +0.156 HD
ENDROOT
BRANCH   9  31
ATOM     31  C   UNL     1      -0.983  -3.381  -0.145  0.00  0.00    +0.035 A 
ATOM     33  C   UNL     1       0.012  -3.588  -1.100  0.00  0.00    +0.023 A 
ATOM     34  C   UNL     1      -0.734  -3.674   1.196  0.00  0.00    +0.023 A 
ATOM     35  C   UNL     1       1.256  -4.087  -0.714  0.00  0.00    +0.002 A 
ATOM     36  C   UNL     1       0.510  -4.172   1.582  0.00  0.00    +0.002 A 
ATOM     37  C   UNL     1       1.505  -4.379   0.627  0.00  0.00    +0.000 A 
ENDBRANCH   9  31
BRANCH  10  12
ATOM     12  C   UNL     1      -2.488   0.995  -0.488  0.00  0.00    +0.020 C 
BRANCH  12  15
ATOM     15  C   UNL     1      -1.409   1.093  -1.557  0.00  0.00    +0.085 C 
BRANCH  15   5
ATOM      5  N   UNL     1      -0.111   1.349  -0.932  0.00  0.00    -0.302 NA
ATOM     17  C   UNL     1       2.767   0.979  -0.560  0.00  0.00    +0.095 C 
ATOM     18  C   UNL     1       0.839   1.878  -1.920  0.00  0.00    +0.086 C 
ATOM     19  C   UNL     1       0.405   0.127  -0.300  0.00  0.00    +0.086 C 
ATOM     21  C   UNL     1       2.186   2.202  -1.271  0.00  0.00    +0.040 C 
ATOM     22  C   UNL     1       1.737   0.390   0.404  0.00  0.00    +0.040 C 
BRANCH  17   7
ATOM      4  O   UNL     1       3.218   2.940   1.686  0.00  0.00    -0.247 OA
ATOM      7  N   UNL     1       3.987   1.312   0.133  0.00  0.00    -0.289 N 
ATOM      8  N   UNL     1       5.477   2.252   1.556  0.00  0.00    -0.306 N 
ATOM     25  C   UNL     1       5.245   0.755  -0.128  0.00  0.00    +0.070 A 
ATOM     26  C   UNL     1       4.102   2.257   1.187  0.00  0.00    +0.328 A 
ATOM     27  C   UNL     1       6.156   1.338   0.751  0.00  0.00    +0.067 A 
ATOM     28  C   UNL     1       5.636  -0.195  -1.048  0.00  0.00    +0.028 A 
ATOM     29  C   UNL     1       7.493   1.006   0.756  0.00  0.00    +0.028 A 
ATOM     30  C   UNL     1       6.990  -0.548  -1.063  0.00  0.00    +0.002 A 
ATOM     32  C   UNL     1       7.908   0.045  -0.171  0.00  0.00    +0.002 A 
ATOM     38  H   UNL     1       5.904   2.815   2.281  0.00  0.00    +0.170 HD
ENDBRANCH  17   7
ENDBRANCH  15   5
ENDBRANCH  12  15
ENDBRANCH  10  12
BRANCH  11  20
ATOM     20  C   UNL     1      -4.963   2.667   0.128  0.00  0.00    +0.124 C 
BRANCH  20  24
ATOM      3  O   UNL     1      -7.382   2.652   0.427  0.00  0.00    -0.251 OA
ATOM     24  C   UNL     1      -6.313   3.244   0.451  0.00  0.00    +0.305 C 
BRANCH  24   1
ATOM      1  O   UNL     1      -6.182   4.554   0.786  0.00  0.00    -0.481 OA
ATOM     40  H   UNL     1      -7.047   4.963   1.004  0.00  0.00    +0.295 HD
ENDBRANCH  24   1
ENDBRANCH  20  24
ENDBRANCH  11  20
TORSDOF 8
