REMARK  Name = 45361687
REMARK  11 active torsions:
REMARK  status: ('A' for Active; 'I' for Inactive)
REMARK    1  A    between atoms: O_4  and  C_16
REMARK    2  A    between atoms: O_5  and  C_21
REMARK    3  A    between atoms: N_9  and  C_27
REMARK    4  A    between atoms: N_9  and  C_28
REMARK    5  A    between atoms: C_11  and  C_19
REMARK    6  A    between atoms: C_13  and  C_21
REMARK    7  A    between atoms: C_13  and  C_22
REMARK    8  A    between atoms: C_14  and  C_24
REMARK    9  A    between atoms: C_24  and  C_25
REMARK   10  A    between atoms: C_27  and  C_30
REMARK   11  A    between atoms: C_29  and  C_31
REMARK                            x       y       z     vdW  Elec       q    Type
REMARK                         _______ _______ _______ _____ _____    ______ ____
ROOT
ATOM      1  S   UNL     1       0.087   2.674   0.075  0.00  0.00    -0.057 S 
ATOM      7  O   UNL     1       3.412  -0.618  -0.067  0.00  0.00    -0.270 OA
ATOM      8  N   UNL     1       0.492   0.121  -0.034  0.00  0.00    -0.229 NA
ATOM     10  N   UNL     1       2.446   1.531   0.027  0.00  0.00    -0.261 N 
ATOM     11  C   UNL     1      -3.314  -0.367   0.347  0.00  0.00    -0.019 C 
ATOM     12  C   UNL     1      -3.643   0.999  -0.404  0.00  0.00    +0.011 C 
ATOM     13  C   UNL     1      -5.157   1.436  -0.464  0.00  0.00    +0.021 C 
ATOM     14  C   UNL     1      -1.845  -0.826  -0.085  0.00  0.00    +0.054 C 
ATOM     15  C   UNL     1      -4.319  -1.458  -0.105  0.00  0.00    +0.010 C 
ATOM     16  C   UNL     1      -6.026   0.217  -0.884  0.00  0.00    +0.123 C 
ATOM     17  C   UNL     1      -2.679   2.137   0.039  0.00  0.00    +0.049 C 
ATOM     18  C   UNL     1      -5.776  -1.023  -0.033  0.00  0.00    +0.032 C 
ATOM     19  C   UNL     1      -3.381  -0.237   1.888  0.00  0.00    +0.012 C 
ATOM     20  C   UNL     1      -0.875   0.326  -0.015  0.00  0.00    +0.058 A 
ATOM     22  C   UNL     1      -5.328   2.525  -1.560  0.00  0.00    +0.016 C 
ATOM     23  C   UNL     1      -1.270   1.647   0.022  0.00  0.00    +0.015 A 
ATOM     26  C   UNL     1       1.099   1.288   0.017  0.00  0.00    +0.165 A 
ATOM     29  C   UNL     1       3.517   0.603  -0.014  0.00  0.00    +0.255 C 
ATOM     40  H   UNL     1       2.679   2.520   0.052  0.00  0.00    +0.157 HD
ENDROOT
BRANCH  29  31
ATOM      2  F   UNL     1       4.138   3.056   1.234  0.00  0.00    -0.205 F 
ATOM      3  F   UNL     1       5.703  -0.666  -1.268  0.00  0.00    -0.205 F 
ATOM     31  C   UNL     1       4.886   1.180  -0.017  0.00  0.00    +0.107 A 
ATOM     33  C   UNL     1       5.131   2.398   0.618  0.00  0.00    +0.138 A 
ATOM     34  C   UNL     1       5.927   0.505  -0.655  0.00  0.00    +0.138 A 
ATOM     35  C   UNL     1       6.416   2.940   0.616  0.00  0.00    +0.039 A 
ATOM     36  C   UNL     1       7.212   1.047  -0.657  0.00  0.00    +0.039 A 
ATOM     37  C   UNL     1       7.457   2.264  -0.022  0.00  0.00    +0.006 A 
ENDBRANCH  29  31
BRANCH  16   4
ATOM      4  O   UNL     1      -7.415   0.543  -0.822  0.00  0.00    -0.391 OA
ATOM     38  H   UNL     1      -7.914  -0.230  -1.137  0.00  0.00    +0.210 HD
ENDBRANCH  16   4
BRANCH  13  21
ATOM     21  C   UNL     1      -5.693   2.070   0.839  0.00  0.00    +0.165 C 
BRANCH  21   5
ATOM      5  O   UNL     1      -7.044   2.415   0.628  0.00  0.00    -0.394 OA
ATOM     39  H   UNL     1      -7.370   2.823   1.448  0.00  0.00    +0.209 HD
ENDBRANCH  21   5
ENDBRANCH  13  21
BRANCH  14  24
ATOM     24  C   UNL     1      -1.314  -2.054   0.666  0.00  0.00    +0.106 C 
BRANCH  24  25
ATOM      6  O   UNL     1       0.034  -2.450  -1.276  0.00  0.00    -0.276 OA
ATOM      9  N   UNL     1       0.239  -3.963   0.470  0.00  0.00    -0.301 N 
ATOM     25  C   UNL     1      -0.291  -2.825  -0.146  0.00  0.00    +0.216 C 
ATOM     28  C   UNL     1      -0.161  -4.386   1.806  0.00  0.00    +0.132 C 
BRANCH   9  27
ATOM     27  C   UNL     1       1.235  -4.813  -0.179  0.00  0.00    +0.134 C 
BRANCH  27  30
ATOM     30  C   UNL     1       2.599  -4.314   0.162  0.00  0.00    -0.016 C 
ATOM     32  C   UNL     1       3.499  -3.924  -0.748  0.00  0.00    +0.005 C 
ENDBRANCH  27  30
ENDBRANCH   9  27
ENDBRANCH  24  25
ENDBRANCH  14  24
TORSDOF 8
