REMARK  Name = 45783784
REMARK  7 active torsions:
REMARK  status: ('A' for Active; 'I' for Inactive)
REMARK    1  A    between atoms: N_2  and  C_11
REMARK    2  A    between atoms: N_6  and  C_25
REMARK    3  A    between atoms: N_6  and  C_26
REMARK    4  A    between atoms: C_7  and  C_12
REMARK    5  A    between atoms: C_11  and  C_13
REMARK    6  A    between atoms: C_16  and  C_20
REMARK    7  A    between atoms: C_19  and  C_21
REMARK                            x       y       z     vdW  Elec       q    Type
REMARK                         _______ _______ _______ _____ _____    ______ ____
ROOT
ATOM      1  O   UNL     1      -1.192  -1.531   1.957  0.00  0.00    -0.336 OA
ATOM      3  N   UNL     1      -0.592  -0.997  -0.134  0.00  0.00    -0.190 NA
ATOM      4  N   UNL     1       0.206  -1.444   1.963  0.00  0.00    -0.056 NA
ATOM     12  C   UNL     1      -1.580  -1.254   0.685  0.00  0.00    +0.245 A 
ATOM     16  C   UNL     1       0.484  -1.126   0.695  0.00  0.00    +0.204 A 
ENDROOT
BRANCH  16  20
ATOM      5  N   UNL     1       4.196  -0.893   0.700  0.00  0.00    -0.240 NA
ATOM     20  C   UNL     1       1.825  -0.930   0.225  0.00  0.00    +0.041 A 
ATOM     22  C   UNL     1       2.079  -0.601  -1.102  0.00  0.00    +0.016 A 
ATOM     23  C   UNL     1       2.909  -1.064   1.078  0.00  0.00    +0.124 A 
ATOM     24  C   UNL     1       3.389  -0.418  -1.529  0.00  0.00    +0.044 A 
ATOM     25  C   UNL     1       4.403  -0.574  -0.597  0.00  0.00    +0.118 A 
BRANCH  25   6
ATOM      6  N   UNL     1       5.733  -0.385  -1.048  0.00  0.00    -0.332 N 
ATOM     26  C   UNL     1       6.863  -0.517  -0.188  0.00  0.00    +0.127 C 
ATOM     27  H   UNL     1       5.856   0.072  -1.945  0.00  0.00    +0.147 HD
ENDBRANCH  25   6
ENDBRANCH  16  20
BRANCH  12   7
ATOM      2  N   UNL     1      -3.460  -0.399  -0.703  0.00  0.00    -0.287 NA
ATOM      7  C   UNL     1      -3.070  -1.283   0.413  0.00  0.00    +0.146 C 
ATOM      8  C   UNL     1      -3.571  -2.679  -0.001  0.00  0.00    +0.030 C 
ATOM      9  C   UNL     1      -4.282  -2.468  -1.330  0.00  0.00    +0.017 C 
ATOM     10  C   UNL     1      -4.649  -0.998  -1.310  0.00  0.00    +0.085 C 
BRANCH   2  11
ATOM     11  C   UNL     1      -3.692   0.980  -0.289  0.00  0.00    +0.120 C 
BRANCH  11  13
ATOM     13  C   UNL     1      -2.402   1.739  -0.124  0.00  0.00    -0.033 A 
ATOM     14  C   UNL     1      -2.085   2.315   1.106  0.00  0.00    +0.005 A 
ATOM     15  C   UNL     1      -1.527   1.871  -1.202  0.00  0.00    +0.005 A 
ATOM     17  C   UNL     1      -0.892   3.021   1.259  0.00  0.00    +0.003 A 
ATOM     18  C   UNL     1      -0.334   2.577  -1.049  0.00  0.00    +0.003 A 
ATOM     19  C   UNL     1      -0.016   3.152   0.181  0.00  0.00    -0.050 A 
ATOM     21  C   UNL     1       1.259   3.908   0.345  0.00  0.00    +0.044 C 
ENDBRANCH  11  13
ENDBRANCH   2  11
ENDBRANCH  12   7
TORSDOF 5
