REMARK  Name = 45783398
REMARK  9 active torsions:
REMARK  status: ('A' for Active; 'I' for Inactive)
REMARK    1  A    between atoms: O_2  and  C_31
REMARK    2  A    between atoms: O_2  and  C_32
REMARK    3  A    between atoms: N_3  and  C_13
REMARK    4  A    between atoms: N_4  and  C_22
REMARK    5  A    between atoms: N_7  and  C_29
REMARK    6  A    between atoms: C_9  and  C_14
REMARK    7  A    between atoms: C_13  and  C_15
REMARK    8  A    between atoms: C_20  and  C_25
REMARK    9  A    between atoms: C_29  and  C_31
REMARK                            x       y       z     vdW  Elec       q    Type
REMARK                         _______ _______ _______ _____ _____    ______ ____
ROOT
ATOM      1  O   UNL     1      -0.831   0.384   3.070  0.00  0.00    -0.336 OA
ATOM      5  N   UNL     1      -0.223  -0.386   1.056  0.00  0.00    -0.190 NA
ATOM      6  N   UNL     1       0.570   0.400   3.053  0.00  0.00    -0.056 NA
ATOM     14  C   UNL     1      -1.216  -0.092   1.857  0.00  0.00    +0.245 A 
ATOM     20  C   UNL     1       0.852  -0.067   1.833  0.00  0.00    +0.205 A 
ENDROOT
BRANCH  20  25
ATOM      7  N   UNL     1       1.553  -2.078  -0.046  0.00  0.00    -0.326 N 
ATOM      8  N   UNL     1       3.814  -1.381  -0.018  0.00  0.00    -0.240 NA
ATOM     25  C   UNL     1       2.197  -0.229   1.361  0.00  0.00    +0.062 A 
ATOM     26  C   UNL     1       2.556  -1.204   0.445  0.00  0.00    +0.130 A 
ATOM     27  C   UNL     1       3.192   0.619   1.833  0.00  0.00    +0.016 A 
ATOM     28  C   UNL     1       4.498   0.469   1.380  0.00  0.00    +0.020 A 
ATOM     30  C   UNL     1       4.755  -0.538   0.463  0.00  0.00    +0.113 A 
ATOM     33  H   UNL     1       0.737  -2.197   0.545  0.00  0.00    +0.148 HD
BRANCH   7  29
ATOM     29  C   UNL     1       1.828  -3.111  -0.990  0.00  0.00    +0.131 C 
BRANCH  29  31
ATOM     31  C   UNL     1       0.546  -3.847  -1.342  0.00  0.00    +0.178 C 
BRANCH  31   2
ATOM      2  O   UNL     1      -0.398  -2.927  -1.873  0.00  0.00    -0.381 OA
ATOM     32  C   UNL     1      -1.619  -3.570  -2.213  0.00  0.00    +0.194 C 
ENDBRANCH  31   2
ENDBRANCH  29  31
ENDBRANCH   7  29
ENDBRANCH  20  25
BRANCH  14   9
ATOM      3  N   UNL     1      -3.066  -0.094   0.193  0.00  0.00    -0.287 NA
ATOM      9  C   UNL     1      -2.708  -0.207   1.621  0.00  0.00    +0.146 C 
ATOM     10  C   UNL     1      -3.276  -1.569   2.060  0.00  0.00    +0.030 C 
ATOM     11  C   UNL     1      -4.286  -0.881   0.009  0.00  0.00    +0.085 C 
ATOM     12  C   UNL     1      -3.987  -2.118   0.831  0.00  0.00    +0.017 C 
BRANCH   3  13
ATOM     13  C   UNL     1      -3.231   1.284  -0.251  0.00  0.00    +0.122 C 
BRANCH  13  15
ATOM      4  N   UNL     1      -0.203   3.369  -0.422  0.00  0.00    -0.349 N 
ATOM     15  C   UNL     1      -1.907   1.949  -0.519  0.00  0.00    -0.008 A 
ATOM     16  C   UNL     1      -0.916   1.519  -1.445  0.00  0.00    +0.004 A 
ATOM     17  C   UNL     1      -1.440   3.089   0.094  0.00  0.00    +0.091 A 
ATOM     18  C   UNL     1       0.142   2.427  -1.365  0.00  0.00    +0.049 A 
ATOM     19  C   UNL     1      -0.817   0.441  -2.347  0.00  0.00    +0.010 A 
ATOM     21  C   UNL     1       1.299   2.310  -2.143  0.00  0.00    +0.026 A 
ATOM     22  C   UNL     1       0.610   4.497  -0.024  0.00  0.00    +0.149 C 
ATOM     23  C   UNL     1       0.334   0.311  -3.133  0.00  0.00    +0.001 A 
ATOM     24  C   UNL     1       1.375   1.233  -3.031  0.00  0.00    +0.002 A 
ENDBRANCH  13  15
ENDBRANCH   3  13
ENDBRANCH  14   9
TORSDOF 7
