REMARK  Name = 28961586
REMARK  7 active torsions:
REMARK  status: ('A' for Active; 'I' for Inactive)
REMARK    1  A    between atoms: O_2  and  C_13
REMARK    2  A    between atoms: O_3  and  C_20
REMARK    3  A    between atoms: N_6  and  C_11
REMARK    4  A    between atoms: N_8  and  C_17
REMARK    5  A    between atoms: C_12  and  C_17
REMARK    6  A    between atoms: C_14  and  C_20
REMARK    7  A    between atoms: C_22  and  C_23
REMARK                            x       y       z     vdW  Elec       q    Type
REMARK                         _______ _______ _______ _____ _____    ______ ____
ROOT
ATOM      1  O   UNL     1       2.435   1.983   0.568  0.00  0.00    -0.365 OA
ATOM     11  C   UNL     1       0.071   1.722   0.669  0.00  0.00    +0.118 C 
ATOM     12  C   UNL     1       1.405   0.970   0.574  0.00  0.00    +0.155 C 
ATOM     13  C   UNL     1       0.399   3.078   0.062  0.00  0.00    +0.165 C 
ATOM     14  C   UNL     1       1.817   3.284   0.582  0.00  0.00    +0.174 C 
ENDROOT
BRANCH  11   6
ATOM      6  N   UNL     1      -1.086   1.053   0.101  0.00  0.00    -0.292 NA
ATOM      7  N   UNL     1      -3.690  -0.120   0.122  0.00  0.00    -0.297 N 
ATOM      9  N   UNL     1      -5.049  -1.973   0.543  0.00  0.00    -0.223 NA
ATOM     10  N   UNL     1      -5.908  -0.036  -0.604  0.00  0.00    -0.223 NA
ATOM     15  C   UNL     1      -1.315  -0.235   0.769  0.00  0.00    +0.104 C 
ATOM     16  C   UNL     1      -2.280   1.897   0.222  0.00  0.00    +0.104 C 
ATOM     18  C   UNL     1      -2.497  -0.976   0.141  0.00  0.00    +0.123 C 
ATOM     19  C   UNL     1      -3.496   1.227  -0.423  0.00  0.00    +0.123 C 
ATOM     21  C   UNL     1      -4.941  -0.739   0.016  0.00  0.00    +0.218 A 
ATOM     24  C   UNL     1      -6.267  -2.539   0.423  0.00  0.00    +0.116 A 
ATOM     25  C   UNL     1      -7.101  -0.661  -0.689  0.00  0.00    +0.116 A 
ATOM     26  C   UNL     1      -7.341  -1.925  -0.189  0.00  0.00    +0.039 A 
ENDBRANCH  11   6
BRANCH  13   2
ATOM      2  O   UNL     1       0.395   3.027  -1.359  0.00  0.00    -0.388 OA
ATOM     30  H   UNL     1       0.503   3.936  -1.686  0.00  0.00    +0.210 HD
ENDBRANCH  13   2
BRANCH  12  17
ATOM     17  C   UNL     1       1.615   0.105  -0.664  0.00  0.00    +0.137 C 
BRANCH  17   8
ATOM      4  O   UNL     1       2.217  -2.462   0.473  0.00  0.00    -0.267 OA
ATOM      8  N   UNL     1       2.895  -0.538  -0.632  0.00  0.00    -0.306 N 
ATOM     22  C   UNL     1       3.098  -1.790  -0.058  0.00  0.00    +0.279 C 
ATOM     31  H   UNL     1       3.687  -0.047  -1.036  0.00  0.00    +0.149 HD
BRANCH  22  23
ATOM      5  O   UNL     1       5.447  -1.530  -0.655  0.00  0.00    -0.458 OA
ATOM     23  C   UNL     1       4.490  -2.307  -0.083  0.00  0.00    +0.189 A 
ATOM     27  C   UNL     1       5.036  -3.480   0.384  0.00  0.00    +0.054 A 
ATOM     28  C   UNL     1       6.417  -3.420   0.079  0.00  0.00    +0.042 A 
ATOM     29  C   UNL     1       6.616  -2.214  -0.553  0.00  0.00    +0.196 A 
ENDBRANCH  22  23
ENDBRANCH  17   8
ENDBRANCH  12  17
BRANCH  14  20
ATOM     20  C   UNL     1       2.671   4.253  -0.215  0.00  0.00    +0.190 C 
BRANCH  20   3
ATOM      3  O   UNL     1       3.948   4.346   0.394  0.00  0.00    -0.392 OA
ATOM     32  H   UNL     1       4.472   4.974  -0.133  0.00  0.00    +0.210 HD
ENDBRANCH  20   3
ENDBRANCH  14  20
TORSDOF 7
