REMARK  Name = 11879647
REMARK  8 active torsions:
REMARK  status: ('A' for Active; 'I' for Inactive)
REMARK    1  A    between atoms: O_3  and  C_20
REMARK    2  A    between atoms: O_3  and  C_23
REMARK    3  A    between atoms: O_5  and  C_33
REMARK    4  A    between atoms: O_5  and  C_36
REMARK    5  A    between atoms: N_6  and  C_16
REMARK    6  A    between atoms: N_7  and  C_17
REMARK    7  A    between atoms: N_11  and  C_22
REMARK    8  A    between atoms: N_12  and  C_32
REMARK                            x       y       z     vdW  Elec       q    Type
REMARK                         _______ _______ _______ _____ _____    ______ ____
ROOT
ATOM      1  O   UNL     1       0.216  -2.677   1.993  0.00  0.00    -0.370 OA
ATOM      2  O   UNL     1       0.836  -3.054  -1.067  0.00  0.00    -0.370 OA
ATOM     14  C   UNL     1       0.888  -1.931  -0.170  0.00  0.00    +0.176 C 
ATOM     15  C   UNL     1      -0.279  -2.069   0.789  0.00  0.00    +0.172 C 
ATOM     16  C   UNL     1       2.121  -2.028   0.708  0.00  0.00    +0.171 C 
ATOM     17  C   UNL     1      -1.233  -3.006   0.083  0.00  0.00    +0.131 C 
ATOM     18  C   UNL     1       1.635  -2.857   1.892  0.00  0.00    +0.190 C 
ATOM     19  C   UNL     1      -0.292  -3.874  -0.731  0.00  0.00    +0.185 C 
ENDROOT
BRANCH  17   7
ATOM      4  O   UNL     1      -3.874  -2.122   0.756  0.00  0.00    -0.252 OA
ATOM      7  N   UNL     1      -2.143  -2.279  -0.769  0.00  0.00    -0.292 N 
ATOM     11  N   UNL     1      -4.072  -1.200  -1.393  0.00  0.00    -0.269 N 
ATOM     21  C   UNL     1      -3.423  -1.883  -0.361  0.00  0.00    +0.304 C 
ATOM     43  H   UNL     1      -1.817  -1.985  -1.684  0.00  0.00    +0.151 HD
ATOM     44  H   UNL     1      -3.556  -1.087  -2.262  0.00  0.00    +0.156 HD
BRANCH  11  22
ATOM     22  C   UNL     1      -5.372  -0.641  -1.381  0.00  0.00    +0.035 A 
ATOM     26  C   UNL     1      -6.164  -0.743  -0.238  0.00  0.00    +0.027 A 
ATOM     27  C   UNL     1      -5.861   0.011  -2.514  0.00  0.00    +0.027 A 
ATOM     30  C   UNL     1      -7.446  -0.193  -0.227  0.00  0.00    +0.048 A 
ATOM     31  C   UNL     1      -7.143   0.561  -2.502  0.00  0.00    +0.048 A 
ATOM     33  C   UNL     1      -7.935   0.459  -1.359  0.00  0.00    +0.129 A 
BRANCH  33   5
ATOM      5  O   UNL     1      -9.187   0.994  -1.349  0.00  0.00    -0.456 OA
BRANCH   5  36
ATOM     36  C   UNL     1      -9.564   1.728  -0.236  0.00  0.00    +0.128 A 
ATOM     38  C   UNL     1      -8.689   2.666   0.310  0.00  0.00    +0.046 A 
ATOM     39  C   UNL     1     -10.819   1.527   0.338  0.00  0.00    +0.046 A 
ATOM     40  C   UNL     1      -9.069   3.404   1.431  0.00  0.00    +0.004 A 
ATOM     41  C   UNL     1     -11.199   2.265   1.459  0.00  0.00    +0.004 A 
ATOM     42  C   UNL     1     -10.324   3.204   2.006  0.00  0.00    +0.000 A 
ENDBRANCH   5  36
ENDBRANCH  33   5
ENDBRANCH  11  22
ENDBRANCH  17   7
BRANCH  16   6
ATOM      6  N   UNL     1       2.670  -0.714   1.054  0.00  0.00    -0.187 N 
ATOM      8  N   UNL     1       1.929   0.200   1.696  0.00  0.00    -0.041 NA
ATOM      9  N   UNL     1       3.970   1.005   1.297  0.00  0.00    -0.071 NA
ATOM     10  N   UNL     1       2.730   1.248   1.843  0.00  0.00    -0.020 NA
ATOM     20  C   UNL     1       3.911  -0.215   0.815  0.00  0.00    +0.342 A 
BRANCH  20   3
ATOM      3  O   UNL     1       4.878  -0.867   0.198  0.00  0.00    -0.423 OA
BRANCH   3  23
ATOM     23  C   UNL     1       6.119  -0.236   0.011  0.00  0.00    +0.132 A 
ATOM     24  C   UNL     1       7.117  -0.359   0.978  0.00  0.00    +0.048 A 
ATOM     25  C   UNL     1       6.353   0.515  -1.141  0.00  0.00    +0.048 A 
ATOM     28  C   UNL     1       8.349   0.268   0.793  0.00  0.00    +0.030 A 
ATOM     29  C   UNL     1       7.585   1.142  -1.326  0.00  0.00    +0.030 A 
ATOM     32  C   UNL     1       8.583   1.019  -0.359  0.00  0.00    +0.048 A 
BRANCH  32  12
ATOM     12  N   UNL     1       9.805   1.640  -0.543  0.00  0.00    -0.306 N 
ATOM     13  N   UNL     1      11.890   2.291  -0.141  0.00  0.00    -0.244 NA
ATOM     34  C   UNL     1      10.172   2.401  -1.616  0.00  0.00    +0.112 A 
ATOM     35  C   UNL     1      10.868   1.603   0.316  0.00  0.00    +0.204 A 
ATOM     37  C   UNL     1      11.462   2.792  -1.345  0.00  0.00    +0.130 A 
ENDBRANCH  32  12
ENDBRANCH   3  23
ENDBRANCH  20   3
ENDBRANCH  16   6
TORSDOF 8
