REMARK  Name = 11866364
REMARK  13 active torsions:
REMARK  status: ('A' for Active; 'I' for Inactive)
REMARK    1  A    between atoms: O_1  and  C_11
REMARK    2  A    between atoms: O_2  and  C_14
REMARK    3  A    between atoms: O_3  and  C_16
REMARK    4  A    between atoms: N_7  and  C_12
REMARK    5  A    between atoms: N_8  and  C_18
REMARK    6  A    between atoms: N_10  and  C_20
REMARK    7  A    between atoms: N_10  and  C_29
REMARK    8  A    between atoms: C_11  and  C_17
REMARK    9  A    between atoms: C_19  and  C_20
REMARK   10  A    between atoms: C_20  and  C_22
REMARK   11  A    between atoms: C_22  and  C_25
REMARK   12  A    between atoms: C_25  and  C_27
REMARK   13  A    between atoms: C_25  and  C_28
REMARK                            x       y       z     vdW  Elec       q    Type
REMARK                         _______ _______ _______ _____ _____    ______ ____
ROOT
ATOM     11  C   UNL     1       1.381  -1.531  -0.968  0.00  0.00    +0.146 C 
ATOM     12  C   UNL     1      -1.064  -1.343  -0.301  0.00  0.00    +0.107 C 
ATOM     13  C   UNL     1       0.223  -0.585  -0.644  0.00  0.00    +0.069 C 
ATOM     14  C   UNL     1      -0.840  -2.374   0.813  0.00  0.00    +0.163 C 
ATOM     15  C   UNL     1       1.607  -2.538   0.158  0.00  0.00    +0.078 C 
ATOM     16  C   UNL     1       0.332  -3.309   0.503  0.00  0.00    +0.148 C 
ENDROOT
BRANCH  11  17
ATOM      4  O   UNL     1       3.241  -0.836  -2.296  0.00  0.00    -0.273 OA
ATOM      8  N   UNL     1       3.020   0.007  -0.138  0.00  0.00    -0.302 N 
ATOM     17  C   UNL     1       2.640  -0.756  -1.229  0.00  0.00    +0.245 C 
ATOM     32  H   UNL     1       2.453   0.008   0.704  0.00  0.00    +0.150 HD
BRANCH   8  18
ATOM      6  O   UNL     1       4.729  -0.232   1.982  0.00  0.00    -0.274 OA
ATOM      9  N   UNL     1       5.490   1.901   1.686  0.00  0.00    -0.314 N 
ATOM     18  C   UNL     1       4.205   0.825  -0.124  0.00  0.00    +0.159 C 
ATOM     21  C   UNL     1       3.903   2.227  -0.635  0.00  0.00    +0.033 C 
ATOM     23  C   UNL     1       5.123   3.114  -0.445  0.00  0.00    +0.021 C 
ATOM     24  C   UNL     1       4.789   0.783   1.284  0.00  0.00    +0.233 C 
ATOM     26  C   UNL     1       5.448   3.198   1.035  0.00  0.00    +0.104 C 
ATOM     35  H   UNL     1       5.932   1.862   2.599  0.00  0.00    +0.149 HD
ENDBRANCH   8  18
ENDBRANCH  11  17
BRANCH  12   7
ATOM      5  O   UNL     1      -2.923  -0.008  -2.060  0.00  0.00    -0.274 OA
ATOM      7  N   UNL     1      -2.099  -0.405   0.074  0.00  0.00    -0.309 N 
ATOM     19  C   UNL     1      -2.949   0.189  -0.847  0.00  0.00    +0.230 C 
ATOM     30  H   UNL     1      -2.163  -0.137   1.052  0.00  0.00    +0.149 HD
BRANCH  19  20
ATOM     20  C   UNL     1      -3.926   1.163  -0.197  0.00  0.00    +0.140 C 
BRANCH  20  10
ATOM     10  N   UNL     1      -4.111   2.244  -1.168  0.00  0.00    -0.309 NA
ATOM     29  C   UNL     1      -3.005   3.186  -1.102  0.00  0.00    +0.101 C 
ATOM     36  H   UNL     1      -4.220   1.875  -2.111  0.00  0.00    +0.122 HD
ENDBRANCH  20  10
BRANCH  20  22
ATOM     22  C   UNL     1      -5.279   0.506   0.125  0.00  0.00    +0.031 C 
BRANCH  22  25
ATOM     25  C   UNL     1      -6.289   1.435   0.832  0.00  0.00    -0.015 C 
ATOM     27  C   UNL     1      -5.703   1.916   2.163  0.00  0.00    +0.007 C 
ATOM     28  C   UNL     1      -7.637   0.755   1.079  0.00  0.00    +0.007 C 
ENDBRANCH  22  25
ENDBRANCH  20  22
ENDBRANCH  19  20
ENDBRANCH  12   7
BRANCH  11   1
ATOM      1  O   UNL     1       1.125  -2.235  -2.178  0.00  0.00    -0.379 OA
ATOM     31  H   UNL     1       0.879  -1.588  -2.861  0.00  0.00    +0.211 HD
ENDBRANCH  11   1
BRANCH  14   2
ATOM      2  O   UNL     1      -2.013  -3.181   0.947  0.00  0.00    -0.387 OA
ATOM     33  H   UNL     1      -2.180  -3.614   0.092  0.00  0.00    +0.210 HD
ENDBRANCH  14   2
BRANCH  16   3
ATOM      3  O   UNL     1       0.581  -4.119   1.653  0.00  0.00    -0.389 OA
ATOM     34  H   UNL     1       1.318  -4.715   1.438  0.00  0.00    +0.210 HD
ENDBRANCH  16   3
TORSDOF 10
