REMARK  Name = 11911977
REMARK  5 active torsions:
REMARK  status: ('A' for Active; 'I' for Inactive)
REMARK    1  A    between atoms: O_4  and  C_27
REMARK    2  A    between atoms: N_5  and  C_14
REMARK    3  A    between atoms: C_14  and  C_19
REMARK    4  A    between atoms: C_17  and  C_20
REMARK    5  A    between atoms: C_23  and  C_27
REMARK                            x       y       z     vdW  Elec       q    Type
REMARK                         _______ _______ _______ _____ _____    ______ ____
ROOT
ATOM      2  O   UNL     1      -1.177   2.042  -1.455  0.00  0.00    -0.267 OA
ATOM      5  N   UNL     1       3.597   0.710  -0.694  0.00  0.00    -0.294 NA
ATOM      6  N   UNL     1       0.727   1.973  -0.110  0.00  0.00    -0.311 N 
ATOM      7  C   UNL     1       2.923   3.124  -0.760  0.00  0.00    +0.024 C 
ATOM      8  C   UNL     1       2.776   1.890   1.350  0.00  0.00    +0.050 C 
ATOM      9  C   UNL     1       3.132   3.245   0.744  0.00  0.00    +0.017 C 
ATOM     10  C   UNL     1       3.826   2.012  -1.333  0.00  0.00    +0.090 C 
ATOM     11  C   UNL     1       3.709   0.803   0.770  0.00  0.00    +0.094 C 
ATOM     12  C   UNL     1       1.433   2.873  -1.033  0.00  0.00    +0.130 C 
ATOM     13  C   UNL     1       1.324   1.544   1.077  0.00  0.00    +0.026 A 
ATOM     15  C   UNL     1       0.621   0.814   1.959  0.00  0.00    +0.022 A 
ATOM     16  C   UNL     1      -0.607   1.654  -0.434  0.00  0.00    +0.260 A 
ATOM     17  C   UNL     1      -1.358   0.806   0.558  0.00  0.00    +0.053 A 
ATOM     18  C   UNL     1      -0.737   0.438   1.688  0.00  0.00    +0.016 A 
ENDROOT
BRANCH  17  20
ATOM      1  S   UNL     1      -3.036  -1.092  -0.523  0.00  0.00    -0.088 S 
ATOM     20  C   UNL     1      -2.744   0.377   0.300  0.00  0.00    +0.026 A 
ATOM     22  C   UNL     1      -3.921   1.010   0.639  0.00  0.00    +0.024 A 
ATOM     25  C   UNL     1      -5.091   0.290   0.222  0.00  0.00    -0.010 A 
ATOM     26  C   UNL     1      -4.747  -0.896  -0.435  0.00  0.00    +0.020 A 
ATOM     28  C   UNL     1      -6.465   0.596   0.375  0.00  0.00    +0.009 A 
ATOM     29  C   UNL     1      -5.729  -1.772  -0.936  0.00  0.00    +0.015 A 
ATOM     30  C   UNL     1      -7.442  -0.271  -0.121  0.00  0.00    +0.001 A 
ATOM     31  C   UNL     1      -7.076  -1.442  -0.769  0.00  0.00    +0.001 A 
ENDBRANCH  17  20
BRANCH   5  14
ATOM     14  C   UNL     1       4.507  -0.302  -1.225  0.00  0.00    +0.158 C 
BRANCH  14  19
ATOM      3  O   UNL     1       2.896  -1.980  -0.623  0.00  0.00    -0.461 OA
ATOM     19  C   UNL     1       4.201  -1.659  -0.652  0.00  0.00    +0.119 A 
ATOM     21  C   UNL     1       4.995  -2.632  -0.153  0.00  0.00    +0.046 A 
ATOM     23  C   UNL     1       2.845  -3.224  -0.078  0.00  0.00    +0.131 A 
ATOM     24  C   UNL     1       4.111  -3.669   0.229  0.00  0.00    +0.047 A 
BRANCH  23  27
ATOM     27  C   UNL     1       1.508  -3.816   0.068  0.00  0.00    +0.230 C 
BRANCH  27   4
ATOM      4  O   UNL     1       0.998  -3.448   1.351  0.00  0.00    -0.387 OA
ATOM     32  H   UNL     1       0.113  -3.843   1.427  0.00  0.00    +0.210 HD
ENDBRANCH  27   4
ENDBRANCH  23  27
ENDBRANCH  14  19
ENDBRANCH   5  14
TORSDOF 5
