REMARK  Name = 28960535
REMARK  7 active torsions:
REMARK  status: ('A' for Active; 'I' for Inactive)
REMARK    1  A    between atoms: O_3  and  C_12
REMARK    2  A    between atoms: O_6  and  C_29
REMARK    3  A    between atoms: O_6  and  C_30
REMARK    4  A    between atoms: N_7  and  C_11
REMARK    5  A    between atoms: N_8  and  C_13
REMARK    6  A    between atoms: N_10  and  C_24
REMARK    7  A    between atoms: C_21  and  C_22
REMARK                            x       y       z     vdW  Elec       q    Type
REMARK                         _______ _______ _______ _____ _____    ______ ____
ROOT
ATOM      1  O   UNL     1       2.735  -1.854   1.561  0.00  0.00    -0.342 OA
ATOM      2  O   UNL     1       3.982  -3.168   0.114  0.00  0.00    -0.347 OA
ATOM     11  C   UNL     1       3.031  -1.103  -0.711  0.00  0.00    +0.143 C 
ATOM     12  C   UNL     1       1.745  -1.843  -1.144  0.00  0.00    +0.159 C 
ATOM     13  C   UNL     1       0.981  -2.489   0.033  0.00  0.00    +0.136 C 
ATOM     14  C   UNL     1       3.685  -1.813   0.488  0.00  0.00    +0.270 C 
ATOM     15  C   UNL     1       1.907  -2.955   1.175  0.00  0.00    +0.170 C 
ATOM     16  C   UNL     1       2.963  -3.957   0.747  0.00  0.00    +0.196 C 
ENDROOT
BRANCH  13   8
ATOM      5  O   UNL     1      -1.720  -2.191  -0.873  0.00  0.00    -0.252 OA
ATOM      8  N   UNL     1      -0.008  -1.567   0.550  0.00  0.00    -0.291 N 
ATOM     10  N   UNL     1      -2.034  -0.513   0.739  0.00  0.00    -0.269 N 
ATOM     23  C   UNL     1      -1.309  -1.488   0.047  0.00  0.00    +0.304 C 
ATOM     31  H   UNL     1       0.281  -0.898   1.257  0.00  0.00    +0.151 HD
ATOM     35  H   UNL     1      -1.543  -0.018   1.478  0.00  0.00    +0.156 HD
BRANCH  10  24
ATOM     24  C   UNL     1      -3.380  -0.126   0.537  0.00  0.00    +0.035 A 
ATOM     25  C   UNL     1      -3.943   0.875   1.328  0.00  0.00    +0.027 A 
ATOM     26  C   UNL     1      -4.143  -0.746  -0.453  0.00  0.00    +0.027 A 
ATOM     27  C   UNL     1      -5.270   1.257   1.129  0.00  0.00    +0.047 A 
ATOM     28  C   UNL     1      -5.470  -0.364  -0.651  0.00  0.00    +0.047 A 
ATOM     29  C   UNL     1      -6.033   0.637   0.140  0.00  0.00    +0.120 A 
BRANCH  29   6
ATOM      6  O   UNL     1      -7.328   1.010  -0.054  0.00  0.00    -0.495 OA
ATOM     30  C   UNL     1      -8.050   0.335  -1.083  0.00  0.00    +0.277 C 
ENDBRANCH  29   6
ENDBRANCH  10  24
ENDBRANCH  13   8
BRANCH  11   7
ATOM      7  N   UNL     1       2.720   0.283  -0.357  0.00  0.00    -0.293 NA
ATOM     17  C   UNL     1       3.792   0.855   0.469  0.00  0.00    +0.085 C 
ATOM     18  C   UNL     1       2.498   1.085  -1.568  0.00  0.00    +0.085 C 
ATOM     19  C   UNL     1       3.456   2.286   0.893  0.00  0.00    +0.028 C 
ATOM     20  C   UNL     1       2.118   2.524  -1.215  0.00  0.00    +0.028 C 
ATOM     21  C   UNL     1       3.173   3.171  -0.319  0.00  0.00    +0.077 C 
BRANCH  21  22
ATOM      4  O   UNL     1       2.061   4.678   1.164  0.00  0.00    -0.276 OA
ATOM      9  N   UNL     1       3.020   5.535  -0.743  0.00  0.00    -0.329 N 
ATOM     22  C   UNL     1       2.696   4.519   0.125  0.00  0.00    +0.214 C 
ATOM     33  H   UNL     1       3.535   5.375  -1.603  0.00  0.00    +0.145 HD
ATOM     34  H   UNL     1       2.745   6.493  -0.550  0.00  0.00    +0.145 HD
ENDBRANCH  21  22
ENDBRANCH  11   7
BRANCH  12   3
ATOM      3  O   UNL     1       2.123  -2.873  -2.068  0.00  0.00    -0.388 OA
ATOM     32  H   UNL     1       1.308  -3.299  -2.383  0.00  0.00    +0.210 HD
ENDBRANCH  12   3
TORSDOF 6
