REMARK  Name = 25313142
REMARK  9 active torsions:
REMARK  status: ('A' for Active; 'I' for Inactive)
REMARK    1  A    between atoms: O_5  and  C_24
REMARK    2  A    between atoms: N_9  and  C_17
REMARK    3  A    between atoms: C_11  and  C_15
REMARK    4  A    between atoms: C_12  and  C_18
REMARK    5  A    between atoms: C_15  and  C_17
REMARK    6  A    between atoms: C_18  and  C_24
REMARK    7  A    between atoms: C_21  and  C_25
REMARK    8  A    between atoms: C_26  and  C_29
REMARK    9  A    between atoms: C_32  and  C_33
REMARK                            x       y       z     vdW  Elec       q    Type
REMARK                         _______ _______ _______ _____ _____    ______ ____
ROOT
ATOM      4  O   UNL     1      -1.750  -1.828  -2.687  0.00  0.00    -0.270 OA
ATOM      8  N   UNL     1      -0.999  -2.493  -0.574  0.00  0.00    -0.297 N 
ATOM     11  C   UNL     1       0.960  -2.048   0.889  0.00  0.00    +0.011 C 
ATOM     12  C   UNL     1       1.520  -3.439   0.497  0.00  0.00    +0.006 C 
ATOM     13  C   UNL     1      -0.574  -2.044   0.760  0.00  0.00    +0.112 C 
ATOM     14  C   UNL     1       1.010  -3.885  -0.884  0.00  0.00    +0.023 C 
ATOM     16  C   UNL     1      -0.513  -3.817  -0.960  0.00  0.00    +0.108 C 
ATOM     21  C   UNL     1      -1.797  -1.766  -1.460  0.00  0.00    +0.247 C 
ENDROOT
BRANCH  21  25
ATOM     25  C   UNL     1      -2.786  -0.840  -0.897  0.00  0.00    +0.037 A 
ATOM     27  C   UNL     1      -3.794  -1.319  -0.060  0.00  0.00    +0.013 A 
ATOM     28  C   UNL     1      -2.719   0.520  -1.199  0.00  0.00    +0.013 A 
ATOM     30  C   UNL     1      -4.734  -0.439   0.475  0.00  0.00    +0.013 A 
ATOM     31  C   UNL     1      -3.659   1.401  -0.665  0.00  0.00    +0.013 A 
ATOM     32  C   UNL     1      -4.667   0.921   0.172  0.00  0.00    +0.055 A 
BRANCH  32  33
ATOM      1  F   UNL     1      -5.125   2.844   1.520  0.00  0.00    -0.166 F 
ATOM      2  F   UNL     1      -6.587   1.235   1.539  0.00  0.00    -0.166 F 
ATOM      3  F   UNL     1      -6.403   2.524  -0.202  0.00  0.00    -0.166 F 
ATOM     33  C   UNL     1      -5.672   1.863   0.744  0.00  0.00    +0.417 C 
ENDBRANCH  32  33
ENDBRANCH  21  25
BRANCH  11  15
ATOM     15  C   UNL     1       1.565  -0.886   0.090  0.00  0.00    +0.020 C 
BRANCH  15  17
ATOM     17  C   UNL     1       1.496   0.411   0.882  0.00  0.00    +0.085 C 
BRANCH  17   9
ATOM      7  O   UNL     1       5.680   4.902  -0.234  0.00  0.00    -0.276 OA
ATOM      9  N   UNL     1       2.061   1.506   0.094  0.00  0.00    -0.299 NA
ATOM     10  N   UNL     1       3.591   3.891  -0.326  0.00  0.00    -0.299 N 
ATOM     19  C   UNL     1       1.566   2.802   0.580  0.00  0.00    +0.103 C 
ATOM     20  C   UNL     1       3.530   1.467   0.137  0.00  0.00    +0.103 C 
ATOM     22  C   UNL     1       2.127   3.952  -0.258  0.00  0.00    +0.123 C 
ATOM     23  C   UNL     1       4.126   2.588  -0.714  0.00  0.00    +0.123 C 
ATOM     26  C   UNL     1       4.450   4.978  -0.172  0.00  0.00    +0.213 C 
ATOM     29  C   UNL     1       3.806   6.316   0.088  0.00  0.00    +0.109 C 
ENDBRANCH  17   9
ENDBRANCH  15  17
ENDBRANCH  11  15
BRANCH  12  18
ATOM     18  C   UNL     1       3.045  -3.512   0.557  0.00  0.00    +0.124 C 
BRANCH  18  24
ATOM      6  O   UNL     1       2.832  -5.930   0.785  0.00  0.00    -0.251 OA
ATOM     24  C   UNL     1       3.528  -4.928   0.714  0.00  0.00    +0.305 C 
BRANCH  24   5
ATOM      5  O   UNL     1       4.884  -4.946   0.768  0.00  0.00    -0.481 OA
ATOM     34  H   UNL     1       5.234  -5.857   0.871  0.00  0.00    +0.295 HD
ENDBRANCH  24   5
ENDBRANCH  18  24
ENDBRANCH  12  18
TORSDOF 8
