REMARK  Name = 45783528
REMARK  5 active torsions:
REMARK  status: ('A' for Active; 'I' for Inactive)
REMARK    1  A    between atoms: N_4  and  C_11
REMARK    2  A    between atoms: C_12  and  C_20
REMARK    3  A    between atoms: C_21  and  C_28
REMARK    4  A    between atoms: C_22  and  C_31
REMARK    5  A    between atoms: C_27  and  C_30
REMARK                            x       y       z     vdW  Elec       q    Type
REMARK                         _______ _______ _______ _____ _____    ______ ____
ROOT
ATOM      1  O   UNL     1       2.316   2.584   1.785  0.00  0.00    -0.336 OA
ATOM      6  N   UNL     1       1.671   1.577  -0.109  0.00  0.00    -0.190 NA
ATOM      8  N   UNL     1       0.936   2.375   1.905  0.00  0.00    -0.056 NA
ATOM     20  C   UNL     1       2.667   2.086   0.571  0.00  0.00    +0.245 A 
ATOM     27  C   UNL     1       0.630   1.777   0.750  0.00  0.00    +0.204 A 
ENDROOT
BRANCH  27  30
ATOM      7  N   UNL     1      -4.580   0.229  -0.437  0.00  0.00    -0.315 N 
ATOM      9  N   UNL     1      -3.034   1.219   1.058  0.00  0.00    -0.240 NA
ATOM     22  C   UNL     1      -7.317  -0.533  -1.036  0.00  0.00    +0.078 C 
ATOM     23  C   UNL     1      -6.927   0.912  -0.729  0.00  0.00    +0.031 C 
ATOM     24  C   UNL     1      -6.124  -1.329  -1.561  0.00  0.00    +0.031 C 
ATOM     25  C   UNL     1      -5.675   1.017   0.141  0.00  0.00    +0.107 C 
ATOM     26  C   UNL     1      -4.867  -1.184  -0.700  0.00  0.00    +0.107 C 
ATOM     29  C   UNL     1      -3.271   0.621  -0.131  0.00  0.00    +0.121 A 
ATOM     30  C   UNL     1      -0.706   1.369   0.423  0.00  0.00    +0.041 A 
ATOM     32  C   UNL     1      -2.294   0.366  -1.080  0.00  0.00    +0.044 A 
ATOM     33  C   UNL     1      -0.990   0.751  -0.790  0.00  0.00    +0.016 A 
ATOM     34  C   UNL     1      -1.754   1.579   1.304  0.00  0.00    +0.124 A 
BRANCH  22  31
ATOM      3  O   UNL     1      -7.459  -2.211   0.662  0.00  0.00    -0.276 OA
ATOM     10  N   UNL     1      -9.036  -0.535   0.653  0.00  0.00    -0.329 N 
ATOM     31  C   UNL     1      -7.922  -1.184   0.173  0.00  0.00    +0.214 C 
ATOM     35  H   UNL     1      -9.527  -0.885   1.469  0.00  0.00    +0.145 HD
ATOM     36  H   UNL     1      -9.441   0.277   0.199  0.00  0.00    +0.145 HD
ENDBRANCH  22  31
ENDBRANCH  27  30
BRANCH  20  12
ATOM      4  N   UNL     1       4.554   1.134  -0.744  0.00  0.00    -0.288 NA
ATOM     12  C   UNL     1       4.131   2.191   0.196  0.00  0.00    +0.146 C 
ATOM     13  C   UNL     1       5.644   1.699  -1.539  0.00  0.00    +0.085 C 
ATOM     14  C   UNL     1       4.467   3.511  -0.523  0.00  0.00    +0.030 C 
ATOM     17  C   UNL     1       5.129   3.095  -1.829  0.00  0.00    +0.017 C 
BRANCH   4  11
ATOM      2  O   UNL     1       4.426  -5.013  -0.648  0.00  0.00    -0.276 OA
ATOM      5  N   UNL     1       4.567  -2.938   0.388  0.00  0.00    -0.302 N 
ATOM     11  C   UNL     1       4.946  -0.106  -0.077  0.00  0.00    +0.060 C 
ATOM     15  C   UNL     1       3.787  -0.631   0.781  0.00  0.00    +0.038 C 
ATOM     16  C   UNL     1       5.361  -1.154  -1.117  0.00  0.00    +0.038 C 
ATOM     18  C   UNL     1       4.140  -1.978   1.413  0.00  0.00    +0.109 C 
ATOM     19  C   UNL     1       5.683  -2.489  -0.447  0.00  0.00    +0.109 C 
ATOM     21  C   UNL     1       4.026  -4.209   0.198  0.00  0.00    +0.212 C 
ATOM     28  C   UNL     1       2.878  -4.596   1.096  0.00  0.00    +0.109 C 
ENDBRANCH   4  11
ENDBRANCH  20  12
TORSDOF 4
