REMARK  Name = 75367644
REMARK  6 active torsions:
REMARK  status: ('A' for Active; 'I' for Inactive)
REMARK    1  A    between atoms: O_5  and  C_10
REMARK    2  A    between atoms: O_5  and  C_17
REMARK    3  A    between atoms: N_8  and  C_16
REMARK    4  A    between atoms: C_16  and  C_18
REMARK    5  A    between atoms: C_18  and  C_20
REMARK    6  A    between atoms: C_22  and  C_24
REMARK                            x       y       z     vdW  Elec       q    Type
REMARK                         _______ _______ _______ _____ _____    ______ ____
ROOT
ATOM      4  O   UNL     1      -3.029   2.750   1.290  0.00  0.00    -0.375 OA
ATOM      6  O   UNL     1      -1.336  -1.362  -1.439  0.00  0.00    -0.253 OA
ATOM      7  N   UNL     1      -2.622   0.425  -0.670  0.00  0.00    -0.280 N 
ATOM      8  N   UNL     1      -3.406  -1.805  -0.535  0.00  0.00    -0.299 N 
ATOM     10  C   UNL     1      -0.933   2.019   0.221  0.00  0.00    +0.218 C 
ATOM     11  C   UNL     1      -1.578   1.394  -1.016  0.00  0.00    +0.156 C 
ATOM     12  C   UNL     1      -3.865   0.911  -0.051  0.00  0.00    +0.137 C 
ATOM     13  C   UNL     1      -1.755   3.161   0.812  0.00  0.00    +0.206 C 
ATOM     14  C   UNL     1      -3.942   2.401   0.255  0.00  0.00    +0.179 C 
ATOM     15  C   UNL     1      -2.377  -0.948  -0.920  0.00  0.00    +0.302 C 
ATOM     25  H   UNL     1      -4.255  -1.436  -0.126  0.00  0.00    +0.150 HD
ENDROOT
BRANCH  10   5
ATOM      5  O   UNL     1       0.342   2.530  -0.162  0.00  0.00    -0.469 OA
BRANCH   5  17
ATOM      9  N   UNL     1       1.129   0.406   0.335  0.00  0.00    -0.221 NA
ATOM     17  C   UNL     1       1.397   1.662  -0.090  0.00  0.00    +0.215 A 
ATOM     19  C   UNL     1       2.659   2.106  -0.450  0.00  0.00    +0.068 A 
ATOM     21  C   UNL     1       3.714   1.204  -0.369  0.00  0.00    +0.019 A 
ATOM     22  C   UNL     1       3.479  -0.096   0.065  0.00  0.00    +0.073 A 
ATOM     23  C   UNL     1       2.180  -0.442   0.402  0.00  0.00    +0.127 A 
BRANCH  22  24
ATOM      1  F   UNL     1       4.778  -1.574   1.425  0.00  0.00    -0.166 F 
ATOM      2  F   UNL     1       4.410  -2.189  -0.622  0.00  0.00    -0.166 F 
ATOM      3  F   UNL     1       5.794  -0.563  -0.210  0.00  0.00    -0.166 F 
ATOM     24  C   UNL     1       4.587  -1.083   0.163  0.00  0.00    +0.419 C 
ENDBRANCH  22  24
ENDBRANCH   5  17
ENDBRANCH  10   5
BRANCH   8  16
ATOM     16  C   UNL     1      -3.348  -3.241  -0.707  0.00  0.00    +0.105 C 
BRANCH  16  18
ATOM     18  C   UNL     1      -2.740  -3.946   0.499  0.00  0.00    +0.015 C 
ATOM     20  C   UNL     1      -3.538  -3.720   1.776  0.00  0.00    +0.005 C 
ENDBRANCH  16  18
ENDBRANCH   8  16
TORSDOF 5
