REMARK  Name = 71693834
REMARK  8 active torsions:
REMARK  status: ('A' for Active; 'I' for Inactive)
REMARK    1  A    between atoms: O_1  and  C_7
REMARK    2  A    between atoms: O_2  and  C_9
REMARK    3  A    between atoms: N_3  and  C_5
REMARK    4  A    between atoms: N_3  and  C_11
REMARK    5  A    between atoms: C_6  and  C_10
REMARK    6  A    between atoms: C_11  and  C_12
REMARK    7  A    between atoms: C_12  and  C_15
REMARK    8  A    between atoms: C_12  and  C_16
REMARK                            x       y       z     vdW  Elec       q    Type
REMARK                         _______ _______ _______ _____ _____    ______ ____
ROOT
ATOM      5  C   UNL     1      -0.531  -0.581  -0.089  0.00  0.00    +0.092 C 
ATOM      6  C   UNL     1       0.771  -0.610  -0.920  0.00  0.00    +0.042 C 
ATOM      7  C   UNL     1      -1.125  -1.970  -0.324  0.00  0.00    +0.160 C 
ATOM      8  C   UNL     1       1.173  -2.107  -1.009  0.00  0.00    +0.043 C 
ATOM      9  C   UNL     1       0.100  -2.876  -0.236  0.00  0.00    +0.145 C 
ENDROOT
BRANCH   6  10
ATOM      4  N   UNL     1       3.358   2.155  -0.689  0.00  0.00    -0.263 NA
ATOM     10  C   UNL     1       1.854   0.291  -0.364  0.00  0.00    -0.025 A 
ATOM     13  C   UNL     1       2.341   0.112   0.926  0.00  0.00    +0.007 A 
ATOM     14  C   UNL     1       2.390   1.317  -1.124  0.00  0.00    +0.114 A 
ATOM     17  C   UNL     1       3.337   0.954   1.409  0.00  0.00    +0.020 A 
ATOM     18  C   UNL     1       3.807   1.951   0.570  0.00  0.00    +0.111 A 
ENDBRANCH   6  10
BRANCH   7   1
ATOM      1  O   UNL     1      -2.097  -2.294   0.652  0.00  0.00    -0.388 OA
ATOM     20  H   UNL     1      -2.356  -3.220   0.508  0.00  0.00    +0.210 HD
ENDBRANCH   7   1
BRANCH   9   2
ATOM      2  O   UNL     1       0.505  -3.025   1.121  0.00  0.00    -0.389 OA
ATOM     21  H   UNL     1       1.314  -3.565   1.126  0.00  0.00    +0.210 HD
ENDBRANCH   9   2
BRANCH   5   3
ATOM      3  N   UNL     1      -1.438   0.475  -0.525  0.00  0.00    -0.310 NA
ATOM     19  H   UNL     1      -0.907   1.319  -0.741  0.00  0.00    +0.122 HD
BRANCH   3  11
ATOM     11  C   UNL     1      -2.408   0.788   0.515  0.00  0.00    +0.084 C 
BRANCH  11  12
ATOM     12  C   UNL     1      -3.427   1.850   0.067  0.00  0.00    -0.003 C 
ATOM     15  C   UNL     1      -4.413   2.223   1.177  0.00  0.00    +0.008 C 
ATOM     16  C   UNL     1      -4.197   1.344  -1.156  0.00  0.00    +0.008 C 
ENDBRANCH  11  12
ENDBRANCH   3  11
ENDBRANCH   5   3
TORSDOF 6
