REMARK  Name = 11943556
REMARK  5 active torsions:
REMARK  status: ('A' for Active; 'I' for Inactive)
REMARK    1  A    between atoms: N_3  and  C_11
REMARK    2  A    between atoms: N_3  and  C_13
REMARK    3  A    between atoms: C_5  and  C_11
REMARK    4  A    between atoms: C_7  and  C_12
REMARK    5  A    between atoms: C_13  and  C_15
REMARK                            x       y       z     vdW  Elec       q    Type
REMARK                         _______ _______ _______ _____ _____    ______ ____
ROOT
ATOM     11  C   UNL     1       0.670   0.920  -0.979  0.00  0.00    +0.100 C 
ENDROOT
BRANCH  11   5
ATOM      2  N   UNL     1       3.091   1.415  -0.550  0.00  0.00    -0.297 NA
ATOM      4  C   UNL     1       3.351  -0.416   1.282  0.00  0.00    +0.008 C 
ATOM      5  C   UNL     1       1.769   1.121   0.067  0.00  0.00    +0.071 C 
ATOM      6  C   UNL     1       1.866  -0.077   1.036  0.00  0.00    +0.025 C 
ATOM      7  C   UNL     1       3.990  -0.870  -0.049  0.00  0.00    +0.081 C 
ATOM      8  C   UNL     1       4.057   0.889   1.695  0.00  0.00    +0.020 C 
ATOM      9  C   UNL     1       3.671   0.180  -1.135  0.00  0.00    +0.101 C 
ATOM     10  C   UNL     1       3.999   1.888   0.524  0.00  0.00    +0.085 C 
BRANCH   7  12
ATOM     12  C   UNL     1       3.540  -2.213  -0.448  0.00  0.00    -0.101 C 
ATOM     14  C   UNL     1       3.172  -3.309  -0.772  0.00  0.00    +0.004 C 
ENDBRANCH   7  12
ENDBRANCH  11   5
BRANCH  11   3
ATOM      3  N   UNL     1      -0.625   0.767  -0.296  0.00  0.00    -0.311 NA
ATOM     21  H   UNL     1      -0.813   1.607   0.252  0.00  0.00    +0.122 HD
BRANCH   3  13
ATOM     13  C   UNL     1      -1.686   0.564  -1.265  0.00  0.00    +0.116 C 
BRANCH  13  15
ATOM      1 CL   UNL     1      -5.283  -2.541   0.848  0.00  0.00    -0.084 Cl
ATOM     15  C   UNL     1      -3.030   0.416  -0.603  0.00  0.00    -0.032 A 
ATOM     16  C   UNL     1      -3.474  -0.846  -0.232  0.00  0.00    +0.025 A 
ATOM     17  C   UNL     1      -3.805   1.543  -0.371  0.00  0.00    +0.005 A 
ATOM     18  C   UNL     1      -4.718  -0.983   0.383  0.00  0.00    +0.041 A 
ATOM     19  C   UNL     1      -5.050   1.406   0.244  0.00  0.00    +0.002 A 
ATOM     20  C   UNL     1      -5.506   0.143   0.621  0.00  0.00    +0.020 A 
ENDBRANCH  13  15
ENDBRANCH   3  13
ENDBRANCH  11   3
TORSDOF 5
