REMARK  Name = 45783589
REMARK  7 active torsions:
REMARK  status: ('A' for Active; 'I' for Inactive)
REMARK    1  A    between atoms: O_1  and  C_11
REMARK    2  A    between atoms: O_1  and  C_23
REMARK    3  A    between atoms: N_3  and  C_12
REMARK    4  A    between atoms: C_7  and  C_18
REMARK    5  A    between atoms: C_12  and  C_19
REMARK    6  A    between atoms: C_20  and  C_24
REMARK    7  A    between atoms: C_27  and  C_31
REMARK                            x       y       z     vdW  Elec       q    Type
REMARK                         _______ _______ _______ _____ _____    ______ ____
ROOT
ATOM      2  O   UNL     1       3.058  -1.712  -1.615  0.00  0.00    -0.336 OA
ATOM      4  N   UNL     1       1.784  -1.021   0.093  0.00  0.00    -0.190 NA
ATOM      5  N   UNL     1       1.734  -1.780  -2.065  0.00  0.00    -0.056 NA
ATOM     18  C   UNL     1       2.998  -1.256  -0.337  0.00  0.00    +0.245 A 
ATOM     20  C   UNL     1       1.042  -1.357  -1.002  0.00  0.00    +0.204 A 
ENDROOT
BRANCH  20  24
ATOM      6  N   UNL     1      -2.420  -0.707   0.186  0.00  0.00    -0.221 NA
ATOM     23  C   UNL     1      -3.107  -1.053  -0.926  0.00  0.00    +0.215 A 
ATOM     24  C   UNL     1      -0.387  -1.260  -1.001  0.00  0.00    +0.041 A 
ATOM     28  C   UNL     1      -2.516  -1.503  -2.095  0.00  0.00    +0.068 A 
ATOM     29  C   UNL     1      -1.129  -1.606  -2.125  0.00  0.00    +0.018 A 
ATOM     30  C   UNL     1      -1.074  -0.821   0.119  0.00  0.00    +0.126 A 
BRANCH  23   1
ATOM      1  O   UNL     1      -4.471  -0.943  -0.871  0.00  0.00    -0.473 OA
BRANCH   1  11
ATOM     11  C   UNL     1      -5.027  -0.475   0.354  0.00  0.00    +0.175 C 
ATOM     13  C   UNL     1      -6.404  -1.103   0.565  0.00  0.00    +0.044 C 
ATOM     14  C   UNL     1      -5.101   1.051   0.333  0.00  0.00    +0.044 C 
ATOM     15  C   UNL     1      -7.083  -0.557   1.817  0.00  0.00    +0.004 C 
ATOM     16  C   UNL     1      -5.780   1.597   1.585  0.00  0.00    +0.004 C 
ATOM     17  C   UNL     1      -7.155   0.968   1.798  0.00  0.00    +0.000 C 
ENDBRANCH   1  11
ENDBRANCH  23   1
ENDBRANCH  20  24
BRANCH  18   7
ATOM      3  N   UNL     1       4.270  -0.053   1.432  0.00  0.00    -0.287 NA
ATOM      7  C   UNL     1       4.320  -1.092   0.384  0.00  0.00    +0.146 C 
ATOM      8  C   UNL     1       4.759  -2.370   1.121  0.00  0.00    +0.030 C 
ATOM      9  C   UNL     1       4.990  -1.938   2.562  0.00  0.00    +0.017 C 
ATOM     10  C   UNL     1       5.241  -0.448   2.453  0.00  0.00    +0.085 C 
BRANCH   3  12
ATOM     12  C   UNL     1       4.526   1.289   0.923  0.00  0.00    +0.120 C 
BRANCH  12  19
ATOM     19  C   UNL     1       3.308   1.880   0.264  0.00  0.00    -0.033 A 
ATOM     21  C   UNL     1       3.362   2.279  -1.072  0.00  0.00    +0.005 A 
ATOM     22  C   UNL     1       2.126   2.031   0.989  0.00  0.00    +0.005 A 
ATOM     25  C   UNL     1       2.235   2.829  -1.682  0.00  0.00    +0.003 A 
ATOM     26  C   UNL     1       0.999   2.581   0.379  0.00  0.00    +0.003 A 
ATOM     27  C   UNL     1       1.053   2.980  -0.957  0.00  0.00    -0.050 A 
ATOM     31  C   UNL     1      -0.152   3.569  -1.609  0.00  0.00    +0.044 C 
ENDBRANCH  12  19
ENDBRANCH   3  12
ENDBRANCH  18   7
TORSDOF 6
