REMARK  Name = 7051752
REMARK  4 active torsions:
REMARK  status: ('A' for Active; 'I' for Inactive)
REMARK    1  A    between atoms: N_3  and  C_13
REMARK    2  A    between atoms: C_13  and  C_18
REMARK    3  A    between atoms: C_16  and  C_19
REMARK    4  A    between atoms: C_21  and  C_25
REMARK                            x       y       z     vdW  Elec       q    Type
REMARK                         _______ _______ _______ _____ _____    ______ ____
ROOT
ATOM      2  O   UNL     1       0.747   2.365   1.540  0.00  0.00    -0.267 OA
ATOM      3  N   UNL     1      -3.779   0.425   0.633  0.00  0.00    -0.296 NA
ATOM      4  N   UNL     1      -1.077   2.045   0.124  0.00  0.00    -0.311 N 
ATOM      6  C   UNL     1      -3.426   2.907   0.681  0.00  0.00    +0.024 C 
ATOM      7  C   UNL     1      -3.045   1.677  -1.402  0.00  0.00    +0.050 C 
ATOM      8  C   UNL     1      -3.596   2.980  -0.831  0.00  0.00    +0.017 C 
ATOM      9  C   UNL     1      -4.198   1.694   1.242  0.00  0.00    +0.090 C 
ATOM     10  C   UNL     1      -3.849   0.484  -0.835  0.00  0.00    +0.094 C 
ATOM     11  C   UNL     1      -1.927   2.854   1.009  0.00  0.00    +0.130 C 
ATOM     12  C   UNL     1      -1.571   1.527  -1.075  0.00  0.00    +0.026 A 
ATOM     14  C   UNL     1      -0.749   0.885  -1.920  0.00  0.00    +0.022 A 
ATOM     15  C   UNL     1       0.275   1.905   0.498  0.00  0.00    +0.259 A 
ATOM     16  C   UNL     1       1.167   1.157  -0.457  0.00  0.00    +0.040 A 
ATOM     17  C   UNL     1       0.638   0.699  -1.600  0.00  0.00    +0.015 A 
ENDROOT
BRANCH  16  19
ATOM     19  C   UNL     1       2.558   0.958  -0.137  0.00  0.00    +0.014 C 
ATOM     21  C   UNL     1       3.254  -0.107  -0.552  0.00  0.00    +0.008 C 
BRANCH  21  25
ATOM      1 CL   UNL     1       8.998  -1.125   0.697  0.00  0.00    -0.084 Cl
ATOM     25  C   UNL     1       4.673  -0.358  -0.243  0.00  0.00    -0.025 A 
ATOM     26  C   UNL     1       5.479   0.697   0.153  0.00  0.00    +0.009 A 
ATOM     27  C   UNL     1       5.174  -1.645  -0.356  0.00  0.00    +0.009 A 
ATOM     28  C   UNL     1       6.822   0.459   0.445  0.00  0.00    +0.020 A 
ATOM     29  C   UNL     1       6.517  -1.883  -0.064  0.00  0.00    +0.020 A 
ATOM     30  C   UNL     1       7.341  -0.831   0.336  0.00  0.00    +0.041 A 
ENDBRANCH  21  25
ENDBRANCH  16  19
BRANCH   3  13
ATOM     13  C   UNL     1      -4.567  -0.690   1.150  0.00  0.00    +0.139 C 
BRANCH  13  18
ATOM      5  N   UNL     1      -2.750  -2.205   0.632  0.00  0.00    -0.259 NA
ATOM     18  C   UNL     1      -4.084  -2.011   0.625  0.00  0.00    +0.055 A 
ATOM     20  C   UNL     1      -5.010  -2.932   0.174  0.00  0.00    +0.024 A 
ATOM     22  C   UNL     1      -4.530  -4.145  -0.307  0.00  0.00    +0.003 A 
ATOM     23  C   UNL     1      -2.321  -3.396   0.158  0.00  0.00    +0.111 A 
ATOM     24  C   UNL     1      -3.162  -4.390  -0.318  0.00  0.00    +0.020 A 
ENDBRANCH  13  18
ENDBRANCH   3  13
TORSDOF 4
