REMARK  Name = 11886267
REMARK  8 active torsions:
REMARK  status: ('A' for Active; 'I' for Inactive)
REMARK    1  A    between atoms: O_3  and  C_21
REMARK    2  A    between atoms: O_3  and  C_24
REMARK    3  A    between atoms: O_5  and  C_34
REMARK    4  A    between atoms: O_5  and  C_36
REMARK    5  A    between atoms: N_6  and  C_17
REMARK    6  A    between atoms: N_7  and  C_18
REMARK    7  A    between atoms: N_11  and  C_23
REMARK    8  A    between atoms: N_12  and  C_33
REMARK                            x       y       z     vdW  Elec       q    Type
REMARK                         _______ _______ _______ _____ _____    ______ ____
ROOT
ATOM      1  O   UNL     1      -1.280  -2.918   0.935  0.00  0.00    -0.370 OA
ATOM      2  O   UNL     1      -0.803  -1.819  -1.973  0.00  0.00    -0.370 OA
ATOM     15  C   UNL     1      -0.612  -1.272  -0.656  0.00  0.00    +0.176 C 
ATOM     16  C   UNL     1      -1.753  -1.774   0.207  0.00  0.00    +0.172 C 
ATOM     17  C   UNL     1       0.635  -1.865  -0.028  0.00  0.00    +0.171 C 
ATOM     18  C   UNL     1      -2.818  -2.186  -0.784  0.00  0.00    +0.131 C 
ATOM     19  C   UNL     1       0.111  -3.125   0.652  0.00  0.00    +0.190 C 
ATOM     20  C   UNL     1      -1.994  -2.618  -1.983  0.00  0.00    +0.185 C 
ENDROOT
BRANCH  18   7
ATOM      4  O   UNL     1      -5.336  -1.555   0.428  0.00  0.00    -0.252 OA
ATOM      7  N   UNL     1      -3.681  -1.079  -1.115  0.00  0.00    -0.292 N 
ATOM     11  N   UNL     1      -5.516   0.299  -1.000  0.00  0.00    -0.269 N 
ATOM     22  C   UNL     1      -4.902  -0.840  -0.471  0.00  0.00    +0.304 C 
ATOM     38  H   UNL     1      -3.359  -0.403  -1.802  0.00  0.00    +0.151 HD
ATOM     39  H   UNL     1      -5.020   0.780  -1.747  0.00  0.00    +0.156 HD
BRANCH  11  23
ATOM     23  C   UNL     1      -6.753   0.872  -0.624  0.00  0.00    +0.035 A 
ATOM     27  C   UNL     1      -7.513   0.287   0.390  0.00  0.00    +0.027 A 
ATOM     28  C   UNL     1      -7.215   2.020  -1.268  0.00  0.00    +0.027 A 
ATOM     31  C   UNL     1      -8.734   0.851   0.760  0.00  0.00    +0.047 A 
ATOM     32  C   UNL     1      -8.436   2.584  -0.898  0.00  0.00    +0.047 A 
ATOM     34  C   UNL     1      -9.195   2.000   0.116  0.00  0.00    +0.120 A 
BRANCH  34   5
ATOM      5  O   UNL     1     -10.387   2.548   0.476  0.00  0.00    -0.495 OA
ATOM     36  C   UNL     1     -11.113   1.900   1.520  0.00  0.00    +0.277 C 
ENDBRANCH  34   5
ENDBRANCH  11  23
ENDBRANCH  18   7
BRANCH  17   6
ATOM      6  N   UNL     1       1.321  -0.921   0.859  0.00  0.00    -0.187 N 
ATOM      8  N   UNL     1       0.695  -0.381   1.913  0.00  0.00    -0.041 NA
ATOM      9  N   UNL     1       2.789   0.374   1.791  0.00  0.00    -0.071 NA
ATOM     10  N   UNL     1       1.598   0.410   2.480  0.00  0.00    -0.020 NA
ATOM     21  C   UNL     1       2.595  -0.456   0.792  0.00  0.00    +0.342 A 
BRANCH  21   3
ATOM      3  O   UNL     1       3.474  -0.796  -0.133  0.00  0.00    -0.423 OA
BRANCH   3  24
ATOM     24  C   UNL     1       4.766  -0.290  -0.159  0.00  0.00    +0.132 A 
ATOM     25  C   UNL     1       5.788  -0.954   0.519  0.00  0.00    +0.048 A 
ATOM     26  C   UNL     1       5.042   0.882  -0.863  0.00  0.00    +0.048 A 
ATOM     29  C   UNL     1       7.087  -0.446   0.493  0.00  0.00    +0.031 A 
ATOM     30  C   UNL     1       6.341   1.390  -0.888  0.00  0.00    +0.031 A 
ATOM     33  C   UNL     1       7.364   0.726  -0.211  0.00  0.00    +0.067 A 
BRANCH  33  12
ATOM     12  N   UNL     1       8.651   1.230  -0.237  0.00  0.00    -0.220 N 
ATOM     13  N   UNL     1       9.662   0.620   0.401  0.00  0.00    -0.154 NA
ATOM     14  N   UNL     1      10.366   2.511  -0.675  0.00  0.00    -0.222 NA
ATOM     35  C   UNL     1       9.078   2.353  -0.874  0.00  0.00    +0.225 A 
ATOM     37  C   UNL     1      10.677   1.435   0.105  0.00  0.00    +0.245 A 
ENDBRANCH  33  12
ENDBRANCH   3  24
ENDBRANCH  21   3
ENDBRANCH  17   6
TORSDOF 7
