REMARK  Name = 26742480
REMARK  10 active torsions:
REMARK  status: ('A' for Active; 'I' for Inactive)
REMARK    1  A    between atoms: N_3  and  C_14
REMARK    2  A    between atoms: N_6  and  C_29
REMARK    3  A    between atoms: N_6  and  C_34
REMARK    4  A    between atoms: N_6  and  C_35
REMARK    5  A    between atoms: C_8  and  C_15
REMARK    6  A    between atoms: C_9  and  C_14
REMARK    7  A    between atoms: C_17  and  C_20
REMARK    8  A    between atoms: C_18  and  C_21
REMARK    9  A    between atoms: C_19  and  C_22
REMARK   10  A    between atoms: C_32  and  C_33
REMARK                            x       y       z     vdW  Elec       q    Type
REMARK                         _______ _______ _______ _____ _____    ______ ____
ROOT
ATOM      2  N   UNL     1      -1.226  -2.880   1.174  0.00  0.00    -0.297 NA
ATOM      7  C   UNL     1      -0.910  -2.591  -1.395  0.00  0.00    +0.002 C 
ATOM      8  C   UNL     1       0.436  -2.366  -0.653  0.00  0.00    +0.055 C 
ATOM      9  C   UNL     1      -2.261  -1.959   0.635  0.00  0.00    +0.074 C 
ATOM     10  C   UNL     1      -1.968  -1.613  -0.840  0.00  0.00    +0.024 C 
ATOM     11  C   UNL     1      -1.382  -4.017  -1.040  0.00  0.00    +0.019 C 
ATOM     12  C   UNL     1       0.129  -2.355   0.872  0.00  0.00    +0.094 C 
ATOM     13  C   UNL     1      -1.379  -4.186   0.489  0.00  0.00    +0.085 C 
ENDROOT
BRANCH   8  15
ATOM      4  N   UNL     1       0.825  -0.410  -2.069  0.00  0.00    -0.237 NA
ATOM      5  N   UNL     1       2.813   0.938  -1.880  0.00  0.00    -0.232 NA
ATOM     15  C   UNL     1       1.303  -1.188  -1.076  0.00  0.00    +0.050 A 
ATOM     16  C   UNL     1       2.510  -0.971  -0.445  0.00  0.00    +0.052 A 
ATOM     17  C   UNL     1       3.231   0.117  -0.893  0.00  0.00    +0.075 A 
ATOM     18  C   UNL     1       1.620   0.620  -2.416  0.00  0.00    +0.127 A 
ATOM     21  C   UNL     1       1.126   1.503  -3.511  0.00  0.00    +0.088 C 
BRANCH  17  20
ATOM     20  C   UNL     1       4.511   0.453  -0.316  0.00  0.00    +0.001 A 
ATOM     23  C   UNL     1       4.607   0.749   1.043  0.00  0.00    +0.012 A 
ATOM     24  C   UNL     1       5.652   0.480  -1.119  0.00  0.00    +0.012 A 
ATOM     27  C   UNL     1       5.845   1.073   1.600  0.00  0.00    +0.024 A 
ATOM     28  C   UNL     1       6.889   0.803  -0.562  0.00  0.00    +0.024 A 
ATOM     29  C   UNL     1       6.985   1.100   0.798  0.00  0.00    +0.029 A 
BRANCH  29   6
ATOM      6  N   UNL     1       8.236   1.427   1.361  0.00  0.00    -0.336 N 
ATOM     34  C   UNL     1       8.347   1.737   2.772  0.00  0.00    +0.129 C 
ATOM     35  C   UNL     1       9.428   1.450   0.537  0.00  0.00    +0.129 C 
ENDBRANCH  29   6
ENDBRANCH  17  20
ENDBRANCH   8  15
BRANCH   9  14
ATOM     14  C   UNL     1      -2.428  -0.703   1.494  0.00  0.00    +0.123 C 
BRANCH  14   3
ATOM      1  O   UNL     1      -5.180  -0.871   2.296  0.00  0.00    -0.270 OA
ATOM      3  N   UNL     1      -3.508   0.103   1.014  0.00  0.00    -0.310 N 
ATOM     19  C   UNL     1      -4.820  -0.046   1.460  0.00  0.00    +0.244 C 
ATOM     36  H   UNL     1      -3.291   0.763   0.276  0.00  0.00    +0.149 HD
BRANCH  19  22
ATOM     22  C   UNL     1      -5.832   0.851   0.845  0.00  0.00    +0.037 A 
ATOM     25  C   UNL     1      -7.165   0.451   0.767  0.00  0.00    +0.013 A 
ATOM     26  C   UNL     1      -5.447   2.095   0.344  0.00  0.00    +0.013 A 
ATOM     30  C   UNL     1      -8.114   1.293   0.189  0.00  0.00    +0.004 A 
ATOM     31  C   UNL     1      -6.396   2.938  -0.234  0.00  0.00    +0.004 A 
ATOM     32  C   UNL     1      -7.730   2.537  -0.312  0.00  0.00    -0.050 A 
ATOM     33  C   UNL     1      -8.745   3.438  -0.931  0.00  0.00    +0.044 C 
ENDBRANCH  19  22
ENDBRANCH  14   3
ENDBRANCH   9  14
TORSDOF 6
