REMARK  Name = 51137123
REMARK  4 active torsions:
REMARK  status: ('A' for Active; 'I' for Inactive)
REMARK    1  A    between atoms: N_4  and  C_8
REMARK    2  A    between atoms: C_7  and  C_8
REMARK    3  A    between atoms: C_9  and  C_18
REMARK    4  A    between atoms: C_23  and  C_25
REMARK                            x       y       z     vdW  Elec       q    Type
REMARK                         _______ _______ _______ _____ _____    ______ ____
ROOT
ATOM      5  N   UNL     1       1.481   0.171   1.224  0.00  0.00    -0.342 N 
ATOM      6  N   UNL     1       1.037   0.971  -0.802  0.00  0.00    -0.232 NA
ATOM     18  C   UNL     1       0.546   0.720   0.391  0.00  0.00    +0.113 A 
ATOM     19  C   UNL     1       2.654   0.059   0.520  0.00  0.00    +0.067 A 
ATOM     20  C   UNL     1       2.350   0.566  -0.740  0.00  0.00    +0.089 A 
ATOM     21  C   UNL     1       3.915  -0.425   0.869  0.00  0.00    +0.040 A 
ATOM     22  C   UNL     1       3.352   0.597  -1.725  0.00  0.00    +0.030 A 
ATOM     23  C   UNL     1       4.900  -0.386  -0.123  0.00  0.00    +0.057 A 
ATOM     24  C   UNL     1       4.626   0.116  -1.398  0.00  0.00    +0.014 A 
ATOM     26  H   UNL     1       1.338  -0.106   2.186  0.00  0.00    +0.167 HD
ENDROOT
BRANCH  18   9
ATOM      4  N   UNL     1      -3.089   1.093   0.118  0.00  0.00    -0.301 NA
ATOM      9  C   UNL     1      -0.867   0.979   0.860  0.00  0.00    +0.070 C 
ATOM     10  C   UNL     1      -1.918   0.217   0.041  0.00  0.00    +0.095 C 
ATOM     11  C   UNL     1      -2.562   2.444  -0.077  0.00  0.00    +0.085 C 
ATOM     12  C   UNL     1      -1.312   2.450   0.792  0.00  0.00    +0.028 C 
BRANCH   4   8
ATOM      8  C   UNL     1      -4.107   0.747  -0.863  0.00  0.00    +0.088 C 
BRANCH   8   7
ATOM      7  C   UNL     1      -4.953  -0.428  -0.378  0.00  0.00    +0.003 C 
ATOM     13  C   UNL     1      -5.954  -0.858  -1.460  0.00  0.00    +0.005 C 
ATOM     14  C   UNL     1      -5.679  -0.071   0.926  0.00  0.00    +0.005 C 
ATOM     15  C   UNL     1      -6.849  -1.998  -0.979  0.00  0.00    +0.000 C 
ATOM     16  C   UNL     1      -6.575  -1.212   1.403  0.00  0.00    +0.000 C 
ATOM     17  C   UNL     1      -7.561  -1.643   0.323  0.00  0.00    +0.000 C 
ENDBRANCH   8   7
ENDBRANCH   4   8
ENDBRANCH  18   9
BRANCH  23  25
ATOM      1  F   UNL     1       7.119  -0.789  -0.875  0.00  0.00    -0.166 F 
ATOM      2  F   UNL     1       6.879  -0.223   1.210  0.00  0.00    -0.166 F 
ATOM      3  F   UNL     1       6.296  -2.206   0.554  0.00  0.00    -0.166 F 
ATOM     25  C   UNL     1       6.271  -0.892   0.188  0.00  0.00    +0.417 C 
ENDBRANCH  23  25
TORSDOF 4
