REMARK  Name = 51137334
REMARK  7 active torsions:
REMARK  status: ('A' for Active; 'I' for Inactive)
REMARK    1  A    between atoms: O_2  and  C_15
REMARK    2  A    between atoms: O_3  and  C_20
REMARK    3  A    between atoms: O_3  and  C_25
REMARK    4  A    between atoms: N_4  and  C_12
REMARK    5  A    between atoms: C_8  and  C_13
REMARK    6  A    between atoms: C_12  and  C_14
REMARK    7  A    between atoms: C_17  and  C_21
REMARK                            x       y       z     vdW  Elec       q    Type
REMARK                         _______ _______ _______ _____ _____    ______ ____
ROOT
ATOM      4  N   UNL     1      -1.288  -0.732  -0.127  0.00  0.00    -0.297 NA
ATOM      8  C   UNL     1       0.709  -1.772   0.527  0.00  0.00    +0.092 C 
ATOM      9  C   UNL     1       0.118  -0.998   1.718  0.00  0.00    +0.029 C 
ATOM     10  C   UNL     1      -0.034  -1.225  -0.700  0.00  0.00    +0.097 C 
ATOM     11  C   UNL     1      -0.897  -0.043   1.102  0.00  0.00    +0.085 C 
ENDROOT
BRANCH   8  13
ATOM      1  O   UNL     1       2.742  -0.440   0.230  0.00  0.00    -0.420 OA
ATOM      5  N   UNL     1       3.111  -2.639   0.411  0.00  0.00    -0.112 NA
ATOM      6  N   UNL     1       4.333  -2.013   0.250  0.00  0.00    -0.107 NA
ATOM     13  C   UNL     1       2.212  -1.683   0.394  0.00  0.00    +0.222 A 
ATOM     17  C   UNL     1       4.069  -0.731   0.148  0.00  0.00    +0.250 A 
BRANCH  17  21
ATOM      7  N   UNL     1       7.200   1.224  -0.297  0.00  0.00    -0.263 NA
ATOM     21  C   UNL     1       4.947   0.389  -0.032  0.00  0.00    +0.057 A 
ATOM     22  C   UNL     1       4.449   1.684  -0.115  0.00  0.00    +0.016 A 
ATOM     23  C   UNL     1       6.318   0.214  -0.128  0.00  0.00    +0.124 A 
ATOM     24  C   UNL     1       5.325   2.750  -0.289  0.00  0.00    +0.020 A 
ATOM     26  C   UNL     1       6.679   2.469  -0.374  0.00  0.00    +0.111 A 
ENDBRANCH  17  21
ENDBRANCH   8  13
BRANCH   4  12
ATOM     12  C   UNL     1      -2.012   0.137  -1.043  0.00  0.00    +0.123 C 
BRANCH  12  14
ATOM     14  C   UNL     1      -3.459   0.283  -0.652  0.00  0.00    +0.008 A 
ATOM     15  C   UNL     1      -4.373  -0.741  -0.904  0.00  0.00    +0.125 A 
ATOM     16  C   UNL     1      -3.881   1.458  -0.030  0.00  0.00    +0.012 A 
ATOM     18  C   UNL     1      -5.709  -0.589  -0.534  0.00  0.00    +0.091 A 
ATOM     19  C   UNL     1      -5.218   1.610   0.340  0.00  0.00    +0.046 A 
ATOM     20  C   UNL     1      -6.132   0.586   0.087  0.00  0.00    +0.124 A 
BRANCH  15   2
ATOM      2  O   UNL     1      -3.976  -1.894  -1.511  0.00  0.00    -0.506 OA
ATOM     27  H   UNL     1      -4.743  -2.485  -1.602  0.00  0.00    +0.292 HD
ENDBRANCH  15   2
BRANCH  20   3
ATOM      3  O   UNL     1      -7.436   0.734   0.448  0.00  0.00    -0.495 OA
ATOM     25  C   UNL     1      -7.799   1.961   1.081  0.00  0.00    +0.277 C 
ENDBRANCH  20   3
ENDBRANCH  12  14
ENDBRANCH   4  12
TORSDOF 6
