REMARK  Name = 11883406
REMARK  8 active torsions:
REMARK  status: ('A' for Active; 'I' for Inactive)
REMARK    1  A    between atoms: O_6  and  C_16
REMARK    2  A    between atoms: O_6  and  C_20
REMARK    3  A    between atoms: N_10  and  C_15
REMARK    4  A    between atoms: N_11  and  C_21
REMARK    5  A    between atoms: N_12  and  C_22
REMARK    6  A    between atoms: C_29  and  C_33
REMARK    7  A    between atoms: C_30  and  C_34
REMARK    8  A    between atoms: C_34  and  C_35
REMARK                            x       y       z     vdW  Elec       q    Type
REMARK                         _______ _______ _______ _____ _____    ______ ____
ROOT
ATOM      4  O   UNL     1       0.434  -1.419  -1.263  0.00  0.00    -0.368 OA
ATOM      5  O   UNL     1      -0.479  -3.359   0.930  0.00  0.00    -0.368 OA
ATOM     13  C   UNL     1      -0.960  -2.053   0.548  0.00  0.00    +0.173 C 
ATOM     14  C   UNL     1       0.253  -1.236   0.151  0.00  0.00    +0.192 C 
ATOM     15  C   UNL     1      -1.764  -2.150  -0.728  0.00  0.00    +0.131 C 
ATOM     16  C   UNL     1       1.360  -1.889   0.945  0.00  0.00    +0.235 C 
ATOM     17  C   UNL     1      -0.681  -2.154  -1.792  0.00  0.00    +0.185 C 
ATOM     18  C   UNL     1       0.956  -3.346   0.917  0.00  0.00    +0.207 C 
ENDROOT
BRANCH  15  10
ATOM      7  O   UNL     1      -4.519  -2.005   0.044  0.00  0.00    -0.252 OA
ATOM     10  N   UNL     1      -2.644  -1.016  -0.878  0.00  0.00    -0.292 N 
ATOM     11  N   UNL     1      -4.585   0.205  -0.743  0.00  0.00    -0.269 N 
ATOM     19  C   UNL     1      -3.985  -1.028  -0.473  0.00  0.00    +0.304 C 
ATOM     36  H   UNL     1      -2.257  -0.148  -1.236  0.00  0.00    +0.151 HD
ATOM     37  H   UNL     1      -3.999   0.913  -1.179  0.00  0.00    +0.156 HD
BRANCH  11  21
ATOM     21  C   UNL     1      -5.920   0.595  -0.486  0.00  0.00    +0.035 A 
ATOM     23  C   UNL     1      -6.350   1.878  -0.827  0.00  0.00    +0.024 A 
ATOM     24  C   UNL     1      -6.807  -0.302   0.110  0.00  0.00    +0.024 A 
ATOM     27  C   UNL     1      -7.666   2.263  -0.573  0.00  0.00    +0.013 A 
ATOM     28  C   UNL     1      -8.123   0.083   0.364  0.00  0.00    +0.013 A 
ATOM     30  C   UNL     1      -8.553   1.365   0.023  0.00  0.00    +0.017 A 
BRANCH  30  34
ATOM      9  O   UNL     1     -10.858   0.940   0.283  0.00  0.00    -0.292 OA
ATOM     34  C   UNL     1      -9.925   1.767   0.288  0.00  0.00    +0.160 C 
ATOM     35  C   UNL     1     -10.256   3.227   0.580  0.00  0.00    +0.091 C 
ENDBRANCH  30  34
ENDBRANCH  11  21
ENDBRANCH  15  10
BRANCH  16   6
ATOM      6  O   UNL     1       2.642  -1.682   0.398  0.00  0.00    -0.442 OA
BRANCH   6  20
ATOM      8  O   UNL     1       2.924   0.149   1.738  0.00  0.00    -0.226 OA
ATOM     12  N   UNL     1       4.585  -0.547   0.243  0.00  0.00    -0.251 N 
ATOM     20  C   UNL     1       3.359  -0.606   0.878  0.00  0.00    +0.405 C 
ATOM     38  H   UNL     1       4.768  -1.269  -0.449  0.00  0.00    +0.158 HD
BRANCH  12  22
ATOM     22  C   UNL     1       5.620   0.396   0.436  0.00  0.00    +0.037 A 
ATOM     25  C   UNL     1       6.801   0.297  -0.301  0.00  0.00    +0.035 A 
ATOM     26  C   UNL     1       5.462   1.425   1.365  0.00  0.00    +0.023 A 
ATOM     29  C   UNL     1       7.823   1.227  -0.109  0.00  0.00    +0.057 A 
ATOM     31  C   UNL     1       6.484   2.354   1.556  0.00  0.00    +0.002 A 
ATOM     32  C   UNL     1       7.664   2.256   0.819  0.00  0.00    +0.012 A 
BRANCH  29  33
ATOM      1  F   UNL     1       9.750  -0.058  -0.704  0.00  0.00    -0.166 F 
ATOM      2  F   UNL     1       9.996   2.095  -0.603  0.00  0.00    -0.166 F 
ATOM      3  F   UNL     1       8.875   1.207  -2.241  0.00  0.00    -0.166 F 
ATOM     33  C   UNL     1       9.085   1.120  -0.895  0.00  0.00    +0.417 C 
ENDBRANCH  29  33
ENDBRANCH  12  22
ENDBRANCH   6  20
ENDBRANCH  16   6
TORSDOF 7
