REMARK  Name = 56775516
REMARK  11 active torsions:
REMARK  status: ('A' for Active; 'I' for Inactive)
REMARK    1  A    between atoms: O_3  and  C_16
REMARK    2  A    between atoms: O_4  and  C_21
REMARK    3  A    between atoms: O_4  and  C_24
REMARK    4  A    between atoms: N_5  and  C_7
REMARK    5  A    between atoms: N_5  and  C_12
REMARK    6  A    between atoms: C_7  and  C_10
REMARK    7  A    between atoms: C_10  and  C_11
REMARK    8  A    between atoms: C_12  and  C_14
REMARK    9  A    between atoms: C_15  and  C_16
REMARK   10  A    between atoms: C_16  and  C_19
REMARK   11  A    between atoms: C_16  and  C_20
REMARK                            x       y       z     vdW  Elec       q    Type
REMARK                         _______ _______ _______ _____ _____    ______ ____
ROOT
ATOM      1  O   UNL     1       0.383   3.859   0.899  0.00  0.00    -0.376 OA
ATOM      7  C   UNL     1      -0.183   2.087  -0.149  0.00  0.00    +0.072 C 
ATOM      8  C   UNL     1      -0.630   2.846   1.096  0.00  0.00    +0.184 C 
ATOM      9  C   UNL     1       0.794   3.241  -0.342  0.00  0.00    +0.184 C 
ENDROOT
BRANCH   7   5
ATOM      5  N   UNL     1       0.566   0.899   0.267  0.00  0.00    -0.302 NA
ATOM     25  H   UNL     1       0.020   0.194   0.760  0.00  0.00    +0.123 HD
BRANCH   5  12
ATOM     12  C   UNL     1       1.204   0.299  -0.907  0.00  0.00    +0.117 C 
BRANCH  12  14
ATOM     14  C   UNL     1       2.401  -0.514  -0.548  0.00  0.00    -0.030 A 
ATOM     17  C   UNL     1       3.601   0.117  -0.222  0.00  0.00    +0.050 A 
ATOM     18  C   UNL     1       2.321  -1.907  -0.541  0.00  0.00    +0.005 A 
ATOM     21  C   UNL     1       4.721  -0.644   0.113  0.00  0.00    +0.120 A 
ATOM     22  C   UNL     1       3.441  -2.668  -0.207  0.00  0.00    +0.004 A 
ATOM     23  C   UNL     1       4.641  -2.037   0.120  0.00  0.00    +0.045 A 
BRANCH  21   4
ATOM      4  O   UNL     1       5.892  -0.028   0.430  0.00  0.00    -0.495 OA
ATOM     24  C   UNL     1       6.998  -0.866   0.761  0.00  0.00    +0.277 C 
ENDBRANCH  21   4
ENDBRANCH  12  14
ENDBRANCH   5  12
ENDBRANCH   7   5
BRANCH   7  10
ATOM     10  C   UNL     1      -1.186   1.799  -1.223  0.00  0.00    +0.085 C 
BRANCH  10  11
ATOM      2  O   UNL     1      -4.266   0.590   0.228  0.00  0.00    -0.356 OA
ATOM      6  N   UNL     1      -3.413   1.610  -0.174  0.00  0.00    -0.083 NA
ATOM     11  C   UNL     1      -2.343   0.988  -0.676  0.00  0.00    +0.086 A 
ATOM     13  C   UNL     1      -2.463  -0.411  -0.618  0.00  0.00    +0.074 A 
ATOM     15  C   UNL     1      -3.690  -0.609  -0.041  0.00  0.00    +0.168 A 
BRANCH  15  16
ATOM     16  C   UNL     1      -4.461  -1.804   0.322  0.00  0.00    +0.120 C 
ATOM     19  C   UNL     1      -5.798  -1.927  -0.465  0.00  0.00    +0.049 C 
ATOM     20  C   UNL     1      -4.780  -1.881   1.844  0.00  0.00    +0.049 C 
BRANCH  16   3
ATOM      3  O   UNL     1      -3.748  -3.038   0.032  0.00  0.00    -0.381 OA
ATOM     26  H   UNL     1      -4.312  -3.785   0.296  0.00  0.00    +0.211 HD
ENDBRANCH  16   3
ENDBRANCH  15  16
ENDBRANCH  10  11
ENDBRANCH   7  10
TORSDOF 8
