REMARK  Name = 71694358
REMARK  5 active torsions:
REMARK  status: ('A' for Active; 'I' for Inactive)
REMARK    1  A    between atoms: N_5  and  C_27
REMARK    2  A    between atoms: N_7  and  C_26
REMARK    3  A    between atoms: C_10  and  C_15
REMARK    4  A    between atoms: C_15  and  C_18
REMARK    5  A    between atoms: C_27  and  C_34
REMARK                            x       y       z     vdW  Elec       q    Type
REMARK                         _______ _______ _______ _____ _____    ______ ____
ROOT
ATOM      1  O   UNL     1       0.863  -4.661   0.788  0.00  0.00    -0.274 OA
ATOM      3  O   UNL     1       0.810   0.573  -0.081  0.00  0.00    -0.488 OA
ATOM      4  N   UNL     1      -1.004  -3.293   0.777  0.00  0.00    -0.300 N 
ATOM      6  N   UNL     1       1.471  -1.566   1.776  0.00  0.00    -0.304 NA
ATOM     10  C   UNL     1      -2.385  -1.895  -1.375  0.00  0.00    +0.008 C 
ATOM     11  C   UNL     1      -1.654  -1.165  -0.209  0.00  0.00    +0.032 C 
ATOM     12  C   UNL     1      -1.763  -3.299  -1.562  0.00  0.00    +0.023 C 
ATOM     13  C   UNL     1      -1.675  -2.022   1.071  0.00  0.00    +0.115 C 
ATOM     14  C   UNL     1      -1.679  -4.087  -0.252  0.00  0.00    +0.108 C 
ATOM     16  C   UNL     1      -2.159   0.228   0.058  0.00  0.00    -0.023 C 
ATOM     17  C   UNL     1       0.268  -3.664   1.213  0.00  0.00    +0.229 C 
ATOM     19  C   UNL     1      -1.486   1.391   0.013  0.00  0.00    +0.010 C 
ATOM     20  C   UNL     1       0.943  -2.829   2.285  0.00  0.00    +0.178 C 
ATOM     21  C   UNL     1      -0.036   1.703  -0.256  0.00  0.00    +0.256 C 
ATOM     22  C   UNL     1       2.360  -1.686   0.623  0.00  0.00    +0.120 C 
ATOM     23  C   UNL     1       2.966  -0.348   0.235  0.00  0.00    +0.010 A 
ATOM     26  C   UNL     1       4.964   0.981  -0.160  0.00  0.00    +0.030 A 
ATOM     28  C   UNL     1       2.169   0.763  -0.125  0.00  0.00    +0.125 A 
ATOM     31  C   UNL     1       4.364  -0.221   0.211  0.00  0.00    +0.031 A 
ATOM     32  C   UNL     1       4.175   2.070  -0.517  0.00  0.00    +0.027 A 
ATOM     33  C   UNL     1       2.783   1.963  -0.503  0.00  0.00    +0.048 A 
ATOM     40  H   UNL     1       1.961  -1.093   2.535  0.00  0.00    +0.123 HD
ENDROOT
BRANCH  26   7
ATOM      7  N   UNL     1       6.359   1.092  -0.177  0.00  0.00    -0.327 N 
ATOM      8  N   UNL     1       9.185   1.393  -0.452  0.00  0.00    -0.313 NA
ATOM     24  C   UNL     1       7.114   0.190  -1.059  0.00  0.00    +0.120 C 
ATOM     25  C   UNL     1       6.990   2.388   0.097  0.00  0.00    +0.120 C 
ATOM     29  C   UNL     1       8.564   0.076  -0.592  0.00  0.00    +0.100 C 
ATOM     30  C   UNL     1       8.446   2.196   0.521  0.00  0.00    +0.100 C 
ATOM     41  H   UNL     1      10.146   1.279  -0.133  0.00  0.00    +0.122 HD
ENDBRANCH  26   7
BRANCH  10  15
ATOM     15  C   UNL     1      -3.906  -1.997  -1.212  0.00  0.00    +0.100 C 
BRANCH  15  18
ATOM      2  O   UNL     1      -4.173   0.079  -2.427  0.00  0.00    -0.276 OA
ATOM      5  N   UNL     1      -5.781  -0.554  -0.873  0.00  0.00    -0.311 N 
ATOM     18  C   UNL     1      -4.605  -0.711  -1.592  0.00  0.00    +0.214 C 
ATOM     39  H   UNL     1      -6.053  -1.260  -0.196  0.00  0.00    +0.149 HD
BRANCH   5  27
ATOM     27  C   UNL     1      -6.654   0.587  -1.028  0.00  0.00    +0.141 C 
BRANCH  27  34
ATOM      9  N   UNL     1      -6.314   2.603   2.153  0.00  0.00    -0.263 NA
ATOM     34  C   UNL     1      -6.293   1.703  -0.091  0.00  0.00    -0.012 A 
ATOM     35  C   UNL     1      -5.633   2.838  -0.548  0.00  0.00    +0.008 A 
ATOM     36  C   UNL     1      -6.609   1.635   1.257  0.00  0.00    +0.115 A 
ATOM     37  C   UNL     1      -5.313   3.856   0.344  0.00  0.00    +0.020 A 
ATOM     38  C   UNL     1      -5.672   3.691   1.672  0.00  0.00    +0.111 A 
ENDBRANCH  27  34
ENDBRANCH   5  27
ENDBRANCH  15  18
ENDBRANCH  10  15
TORSDOF 5
