REMARK  Name = 44716869
REMARK  13 active torsions:
REMARK  status: ('A' for Active; 'I' for Inactive)
REMARK    1  A    between atoms: O_2  and  C_15
REMARK    2  A    between atoms: O_2  and  C_24
REMARK    3  A    between atoms: O_3  and  C_16
REMARK    4  A    between atoms: O_4  and  C_20
REMARK    5  A    between atoms: N_7  and  C_25
REMARK    6  A    between atoms: N_8  and  C_26
REMARK    7  A    between atoms: C_9  and  C_19
REMARK    8  A    between atoms: C_11  and  C_20
REMARK    9  A    between atoms: C_11  and  C_21
REMARK   10  A    between atoms: C_12  and  C_22
REMARK   11  A    between atoms: C_22  and  C_23
REMARK   12  A    between atoms: C_25  and  C_27
REMARK   13  A    between atoms: C_26  and  C_28
REMARK                            x       y       z     vdW  Elec       q    Type
REMARK                         _______ _______ _______ _____ _____    ______ ____
ROOT
ATOM      9  C   UNL     1       0.406  -0.507   0.461  0.00  0.00    -0.023 C 
ATOM     10  C   UNL     1       1.270  -1.443  -0.471  0.00  0.00    +0.007 C 
ATOM     11  C   UNL     1       2.831  -1.418  -0.247  0.00  0.00    +0.031 C 
ATOM     12  C   UNL     1      -1.053  -0.461  -0.156  0.00  0.00    +0.032 C 
ATOM     13  C   UNL     1       1.019   0.919   0.428  0.00  0.00    +0.011 C 
ATOM     14  C   UNL     1       0.654  -2.857  -0.555  0.00  0.00    +0.007 C 
ATOM     15  C   UNL     1       3.312   0.064  -0.219  0.00  0.00    +0.186 C 
ATOM     16  C   UNL     1      -1.685  -1.860  -0.346  0.00  0.00    +0.119 C 
ATOM     17  C   UNL     1       2.513   0.953   0.728  0.00  0.00    +0.046 C 
ATOM     18  C   UNL     1      -0.769  -2.810  -1.113  0.00  0.00    +0.032 C 
ATOM     19  C   UNL     1       0.359  -0.975   1.936  0.00  0.00    +0.012 C 
ATOM     21  C   UNL     1       3.529  -2.111  -1.454  0.00  0.00    +0.017 C 
ENDROOT
BRANCH  16   3
ATOM      3  O   UNL     1      -2.033  -2.436   0.909  0.00  0.00    -0.391 OA
ATOM     32  H   UNL     1      -2.451  -3.296   0.735  0.00  0.00    +0.210 HD
ENDBRANCH  16   3
BRANCH  15   2
ATOM      2  O   UNL     1       4.683   0.170   0.163  0.00  0.00    -0.446 OA
BRANCH   2  24
ATOM      6  O   UNL     1       4.892   2.058  -1.127  0.00  0.00    -0.226 OA
ATOM      8  N   UNL     1       6.678   1.205   0.084  0.00  0.00    -0.281 N 
ATOM     24  C   UNL     1       5.375   1.226  -0.366  0.00  0.00    +0.401 C 
ATOM     35  H   UNL     1       6.952   0.462   0.719  0.00  0.00    +0.152 HD
BRANCH   8  26
ATOM     26  C   UNL     1       7.671   2.185  -0.289  0.00  0.00    +0.104 C 
ATOM     28  C   UNL     1       7.524   3.460   0.516  0.00  0.00    +0.024 C 
ENDBRANCH   8  26
ENDBRANCH   2  24
ENDBRANCH  15   2
BRANCH  11  20
ATOM     20  C   UNL     1       3.300  -2.186   1.005  0.00  0.00    +0.166 C 
BRANCH  20   4
ATOM      4  O   UNL     1       4.668  -2.491   0.840  0.00  0.00    -0.394 OA
ATOM     33  H   UNL     1       4.953  -2.979   1.631  0.00  0.00    +0.209 HD
ENDBRANCH  20   4
ENDBRANCH  11  20
BRANCH  12  22
ATOM     22  C   UNL     1      -2.038   0.460   0.582  0.00  0.00    +0.102 C 
BRANCH  22  23
ATOM      5  O   UNL     1      -3.295   0.559  -1.483  0.00  0.00    -0.276 OA
ATOM      7  N   UNL     1      -4.058   1.717   0.382  0.00  0.00    -0.311 N 
ATOM     23  C   UNL     1      -3.178   0.895  -0.308  0.00  0.00    +0.214 C 
ATOM     34  H   UNL     1      -3.880   1.924   1.361  0.00  0.00    +0.149 HD
BRANCH   7  25
ATOM     25  C   UNL     1      -5.242   2.287  -0.219  0.00  0.00    +0.146 C 
BRANCH  25  27
ATOM      1  S   UNL     1      -7.286   0.810  -1.383  0.00  0.00    -0.100 S 
ATOM     27  C   UNL     1      -6.448   1.415  -0.018  0.00  0.00    +0.007 A 
ATOM     29  C   UNL     1      -7.020   1.002   1.165  0.00  0.00    +0.013 A 
ATOM     30  C   UNL     1      -8.162   0.177   0.948  0.00  0.00    +0.008 A 
ATOM     31  C   UNL     1      -8.419  -0.008  -0.393  0.00  0.00    +0.045 A 
ENDBRANCH  25  27
ENDBRANCH   7  25
ENDBRANCH  22  23
ENDBRANCH  12  22
TORSDOF 10
