REMARK  Name = 75368650
REMARK  6 active torsions:
REMARK  status: ('A' for Active; 'I' for Inactive)
REMARK    1  A    between atoms: N_2  and  C_6
REMARK    2  A    between atoms: N_4  and  C_14
REMARK    3  A    between atoms: C_14  and  C_18
REMARK    4  A    between atoms: C_18  and  C_19
REMARK    5  A    between atoms: C_18  and  C_20
REMARK    6  A    between atoms: C_18  and  C_21
REMARK                            x       y       z     vdW  Elec       q    Type
REMARK                         _______ _______ _______ _____ _____    ______ ____
ROOT
ATOM      1  O   UNL     1       1.550   2.571   0.420  0.00  0.00    -0.252 OA
ATOM      2  N   UNL     1       1.968   0.313  -0.119  0.00  0.00    -0.281 N 
ATOM      3  N   UNL     1      -0.149   1.062  -0.178  0.00  0.00    -0.278 N 
ATOM      4  N   UNL     1      -2.622  -0.274  -0.093  0.00  0.00    -0.299 NA
ATOM      5  C   UNL     1      -0.230  -0.296  -0.673  0.00  0.00    +0.109 C 
ATOM      7  C   UNL     1       1.164  -0.862  -0.412  0.00  0.00    +0.133 C 
ATOM      8  C   UNL     1      -1.368  -1.047   0.018  0.00  0.00    +0.108 C 
ATOM      9  C   UNL     1      -1.353   1.863  -0.103  0.00  0.00    +0.125 C 
ATOM     10  C   UNL     1       1.171   1.458   0.080  0.00  0.00    +0.305 C 
ATOM     13  C   UNL     1      -2.481   1.052   0.540  0.00  0.00    +0.103 C 
ENDROOT
BRANCH   2   6
ATOM      6  C   UNL     1       3.394   0.232   0.084  0.00  0.00    +0.078 C 
ATOM     11  C   UNL     1       4.105  -0.102  -1.230  0.00  0.00    +0.022 C 
ATOM     12  C   UNL     1       3.730  -0.788   1.174  0.00  0.00    +0.022 C 
ATOM     15  C   UNL     1       5.612  -0.246  -1.034  0.00  0.00    +0.002 C 
ATOM     16  C   UNL     1       5.237  -0.929   1.367  0.00  0.00    +0.002 C 
ATOM     17  C   UNL     1       5.944  -1.260   0.056  0.00  0.00    +0.000 C 
ENDBRANCH   2   6
BRANCH   4  14
ATOM     14  C   UNL     1      -3.730  -1.013   0.513  0.00  0.00    +0.090 C 
BRANCH  14  18
ATOM     18  C   UNL     1      -5.132  -0.553   0.035  0.00  0.00    -0.025 C 
ATOM     19  C   UNL     1      -5.017  -0.099  -1.433  0.00  0.00    +0.012 C 
ATOM     20  C   UNL     1      -6.143  -1.710   0.114  0.00  0.00    +0.012 C 
ATOM     21  C   UNL     1      -5.647   0.629   0.874  0.00  0.00    +0.012 C 
ENDBRANCH  14  18
ENDBRANCH   4  14
TORSDOF 3
