REMARK  Name = 11865919
REMARK  3 active torsions:
REMARK  status: ('A' for Active; 'I' for Inactive)
REMARK    1  A    between atoms: N_9  and  C_14
REMARK    2  A    between atoms: C_20  and  C_22
REMARK    3  A    between atoms: C_21  and  C_23
REMARK                            x       y       z     vdW  Elec       q    Type
REMARK                         _______ _______ _______ _____ _____    ______ ____
ROOT
ATOM      2  O   UNL     1       1.623  -0.927  -1.950  0.00  0.00    -0.273 OA
ATOM      3  O   UNL     1       1.097   3.532   1.601  0.00  0.00    -0.274 OA
ATOM      4  O   UNL     1       2.035  -3.092   0.110  0.00  0.00    -0.276 OA
ATOM      6  N   UNL     1       0.645   0.872  -0.858  0.00  0.00    -0.287 N 
ATOM      7  N   UNL     1       3.515  -1.314   0.035  0.00  0.00    -0.288 N 
ATOM      8  N   UNL     1       2.732   2.104   0.974  0.00  0.00    -0.309 N 
ATOM     10  C   UNL     1       2.516  -0.259   0.191  0.00  0.00    +0.182 C 
ATOM     11  C   UNL     1       3.322   1.043   0.186  0.00  0.00    +0.104 C 
ATOM     12  C   UNL     1       0.343   1.602   0.378  0.00  0.00    +0.164 C 
ATOM     13  C   UNL     1      -0.915   2.420   0.023  0.00  0.00    +0.055 C 
ATOM     14  C   UNL     1      -1.564   1.643  -1.119  0.00  0.00    +0.093 C 
ATOM     15  C   UNL     1      -0.356   1.129  -1.887  0.00  0.00    +0.131 C 
ATOM     16  C   UNL     1       4.694   0.606   0.692  0.00  0.00    +0.043 C 
ATOM     17  C   UNL     1       1.556  -0.172  -0.981  0.00  0.00    +0.239 C 
ATOM     18  C   UNL     1       4.865  -0.758   0.040  0.00  0.00    +0.110 C 
ATOM     19  C   UNL     1       1.421   2.521   0.967  0.00  0.00    +0.234 C 
ATOM     20  C   UNL     1       3.189  -2.660   0.118  0.00  0.00    +0.213 C 
ATOM     22  C   UNL     1       4.355  -3.611   0.216  0.00  0.00    +0.109 C 
ATOM     27  H   UNL     1       3.385   2.733   1.431  0.00  0.00    +0.149 HD
ENDROOT
BRANCH  14   9
ATOM      5  O   UNL     1      -4.383   1.725  -0.580  0.00  0.00    -0.270 OA
ATOM      9  N   UNL     1      -2.379   0.559  -0.625  0.00  0.00    -0.306 N 
ATOM     21  C   UNL     1      -3.740   0.695  -0.394  0.00  0.00    +0.251 C 
ATOM     28  H   UNL     1      -1.923  -0.319  -0.396  0.00  0.00    +0.149 HD
BRANCH  21  23
ATOM      1  S   UNL     1      -3.499  -1.884   0.402  0.00  0.00    -0.092 S 
ATOM     23  C   UNL     1      -4.432  -0.506   0.139  0.00  0.00    +0.074 A 
ATOM     24  C   UNL     1      -5.735  -0.619   0.439  0.00  0.00    +0.021 A 
ATOM     25  C   UNL     1      -6.014  -1.929   0.925  0.00  0.00    +0.008 A 
ATOM     26  C   UNL     1      -4.887  -2.720   0.957  0.00  0.00    +0.046 A 
ENDBRANCH  21  23
ENDBRANCH  14   9
TORSDOF 2
