REMARK  Name = 45783640
REMARK  7 active torsions:
REMARK  status: ('A' for Active; 'I' for Inactive)
REMARK    1  A    between atoms: O_3  and  C_27
REMARK    2  A    between atoms: O_3  and  C_28
REMARK    3  A    between atoms: N_5  and  C_10
REMARK    4  A    between atoms: N_9  and  C_25
REMARK    5  A    between atoms: C_11  and  C_19
REMARK    6  A    between atoms: C_20  and  C_21
REMARK    7  A    between atoms: C_26  and  C_27
REMARK                            x       y       z     vdW  Elec       q    Type
REMARK                         _______ _______ _______ _____ _____    ______ ____
ROOT
ATOM      2  O   UNL     1      -2.303   2.346  -1.217  0.00  0.00    -0.336 OA
ATOM      6  N   UNL     1      -1.328   0.928   0.216  0.00  0.00    -0.190 NA
ATOM      7  N   UNL     1      -0.936   2.358  -1.526  0.00  0.00    -0.056 NA
ATOM     19  C   UNL     1      -2.447   1.480  -0.181  0.00  0.00    +0.245 A 
ATOM     20  C   UNL     1      -0.429   1.498  -0.638  0.00  0.00    +0.204 A 
ENDROOT
BRANCH  20  21
ATOM      8  N   UNL     1       3.200   1.523  -1.448  0.00  0.00    -0.239 NA
ATOM     21  C   UNL     1       0.969   1.186  -0.577  0.00  0.00    +0.041 A 
ATOM     22  C   UNL     1       1.463   0.287   0.361  0.00  0.00    +0.016 A 
ATOM     23  C   UNL     1       1.871   1.772  -1.451  0.00  0.00    +0.124 A 
ATOM     24  C   UNL     1       2.824   0.004   0.396  0.00  0.00    +0.044 A 
ATOM     25  C   UNL     1       3.643   0.643  -0.522  0.00  0.00    +0.125 A 
BRANCH  25   9
ATOM      4  O   UNL     1       5.189  -1.200   1.285  0.00  0.00    -0.273 OA
ATOM      9  N   UNL     1       5.011   0.351  -0.478  0.00  0.00    -0.268 N 
ATOM     26  C   UNL     1       5.679  -0.520   0.389  0.00  0.00    +0.244 C 
ATOM     29  H   UNL     1       5.568   0.845  -1.171  0.00  0.00    +0.156 HD
BRANCH  26  27
ATOM     27  C   UNL     1       7.168  -0.556   0.123  0.00  0.00    +0.255 C 
BRANCH  27   3
ATOM      3  O   UNL     1       7.772  -1.448   1.036  0.00  0.00    -0.374 OA
ATOM     28  C   UNL     1       9.181  -1.532   0.842  0.00  0.00    +0.194 C 
ENDBRANCH  27   3
ENDBRANCH  26  27
ENDBRANCH  25   9
ENDBRANCH  20  21
BRANCH  19  11
ATOM      5  N   UNL     1      -4.051  -0.042   0.960  0.00  0.00    -0.288 NA
ATOM     11  C   UNL     1      -3.853   1.286   0.346  0.00  0.00    +0.146 C 
ATOM     12  C   UNL     1      -5.078   0.127   1.989  0.00  0.00    +0.085 C 
ATOM     13  C   UNL     1      -4.215   2.289   1.457  0.00  0.00    +0.030 C 
ATOM     14  C   UNL     1      -4.662   1.434   2.634  0.00  0.00    +0.017 C 
BRANCH   5  10
ATOM      1  O   UNL     1      -3.795  -3.593  -1.265  0.00  0.00    -0.380 OA
ATOM     10  C   UNL     1      -4.408  -1.077  -0.007  0.00  0.00    +0.062 C 
ATOM     15  C   UNL     1      -3.309  -1.221  -1.063  0.00  0.00    +0.047 C 
ATOM     16  C   UNL     1      -4.647  -2.422   0.687  0.00  0.00    +0.047 C 
ATOM     17  C   UNL     1      -3.622  -2.382  -2.000  0.00  0.00    +0.161 C 
ATOM     18  C   UNL     1      -4.886  -3.517  -0.347  0.00  0.00    +0.161 C 
ENDBRANCH   5  10
ENDBRANCH  19  11
TORSDOF 6
