REMARK  Name = 51137779
REMARK  6 active torsions:
REMARK  status: ('A' for Active; 'I' for Inactive)
REMARK    1  A    between atoms: N_7  and  C_21
REMARK    2  A    between atoms: N_7  and  C_26
REMARK    3  A    between atoms: N_7  and  C_27
REMARK    4  A    between atoms: C_8  and  C_12
REMARK    5  A    between atoms: C_13  and  C_14
REMARK    6  A    between atoms: C_15  and  C_16
REMARK                            x       y       z     vdW  Elec       q    Type
REMARK                         _______ _______ _______ _____ _____    ______ ____
ROOT
ATOM      1  O   UNL     1      -0.108   1.576  -0.252  0.00  0.00    -0.420 OA
ATOM      4  N   UNL     1      -0.193   3.687  -0.988  0.00  0.00    -0.112 NA
ATOM      5  N   UNL     1      -1.482   3.189  -0.969  0.00  0.00    -0.107 NA
ATOM     12  C   UNL     1       0.575   2.712  -0.562  0.00  0.00    +0.222 A 
ATOM     15  C   UNL     1      -1.385   1.955  -0.533  0.00  0.00    +0.248 A 
ENDROOT
BRANCH  12   8
ATOM      2  O   UNL     1       2.922  -0.896   2.490  0.00  0.00    -0.270 OA
ATOM      3  N   UNL     1       2.780   0.801   0.911  0.00  0.00    -0.297 N 
ATOM      8  C   UNL     1       2.082   2.679  -0.374  0.00  0.00    +0.095 C 
ATOM      9  C   UNL     1       2.487   3.139   1.036  0.00  0.00    +0.033 C 
ATOM     10  C   UNL     1       2.756   1.303  -0.464  0.00  0.00    +0.121 C 
ATOM     11  C   UNL     1       2.464   1.859   1.859  0.00  0.00    +0.109 C 
ATOM     13  C   UNL     1       2.983  -0.506   1.326  0.00  0.00    +0.248 C 
BRANCH  13  14
ATOM      6  N   UNL     1       4.727  -2.271  -1.490  0.00  0.00    -0.263 NA
ATOM     14  C   UNL     1       3.281  -1.508   0.291  0.00  0.00    +0.055 A 
ATOM     17  C   UNL     1       2.453  -2.609   0.101  0.00  0.00    +0.016 A 
ATOM     18  C   UNL     1       4.396  -1.387  -0.523  0.00  0.00    +0.123 A 
ATOM     22  C   UNL     1       2.761  -3.541  -0.884  0.00  0.00    +0.020 A 
ATOM     25  C   UNL     1       3.899  -3.328  -1.646  0.00  0.00    +0.111 A 
ENDBRANCH  13  14
ENDBRANCH  12   8
BRANCH  15  16
ATOM     16  C   UNL     1      -2.397   0.963  -0.311  0.00  0.00    +0.039 A 
ATOM     19  C   UNL     1      -3.734   1.261  -0.570  0.00  0.00    +0.015 A 
ATOM     20  C   UNL     1      -2.043  -0.300   0.165  0.00  0.00    +0.015 A 
ATOM     21  C   UNL     1      -4.364  -0.967   0.121  0.00  0.00    +0.029 A 
ATOM     23  C   UNL     1      -4.718   0.296  -0.354  0.00  0.00    +0.024 A 
ATOM     24  C   UNL     1      -3.027  -1.265   0.381  0.00  0.00    +0.024 A 
BRANCH  21   7
ATOM      7  N   UNL     1      -5.360  -1.941   0.340  0.00  0.00    -0.336 N 
ATOM     26  C   UNL     1      -5.002  -3.259   0.827  0.00  0.00    +0.129 C 
ATOM     27  C   UNL     1      -6.753  -1.641   0.075  0.00  0.00    +0.129 C 
ENDBRANCH  21   7
ENDBRANCH  15  16
TORSDOF 4
