REMARK  Name = 11885063
REMARK  13 active torsions:
REMARK  status: ('A' for Active; 'I' for Inactive)
REMARK    1  A    between atoms: O_2  and  C_17
REMARK    2  A    between atoms: O_3  and  C_22
REMARK    3  A    between atoms: O_5  and  C_30
REMARK    4  A    between atoms: O_5  and  C_35
REMARK    5  A    between atoms: N_9  and  C_28
REMARK    6  A    between atoms: N_11  and  C_29
REMARK    7  A    between atoms: C_12  and  C_20
REMARK    8  A    between atoms: C_14  and  C_22
REMARK    9  A    between atoms: C_14  and  C_23
REMARK   10  A    between atoms: C_15  and  C_25
REMARK   11  A    between atoms: C_25  and  C_26
REMARK   12  A    between atoms: C_28  and  C_29
REMARK   13  A    between atoms: C_35  and  C_36
REMARK                            x       y       z     vdW  Elec       q    Type
REMARK                         _______ _______ _______ _____ _____    ______ ____
ROOT
ATOM      1  S   UNL     1      -1.370   3.327  -0.155  0.00  0.00    -0.057 S 
ATOM      6  O   UNL     1       2.915   1.501  -0.019  0.00  0.00    -0.226 OA
ATOM      8  N   UNL     1      -0.035   1.115  -0.017  0.00  0.00    -0.229 NA
ATOM     10  N   UNL     1       1.246   3.154  -0.124  0.00  0.00    -0.230 N 
ATOM     12  C   UNL     1      -3.387  -0.727   0.467  0.00  0.00    -0.019 C 
ATOM     13  C   UNL     1      -4.187   0.335  -0.409  0.00  0.00    +0.011 C 
ATOM     14  C   UNL     1      -5.753   0.163  -0.488  0.00  0.00    +0.021 C 
ATOM     15  C   UNL     1      -1.845  -0.640   0.059  0.00  0.00    +0.054 C 
ATOM     16  C   UNL     1      -3.899  -2.155   0.142  0.00  0.00    +0.010 C 
ATOM     17  C   UNL     1      -6.092  -1.328  -0.773  0.00  0.00    +0.123 C 
ATOM     18  C   UNL     1      -3.731   1.790  -0.096  0.00  0.00    +0.049 C 
ATOM     19  C   UNL     1      -5.414  -2.293   0.193  0.00  0.00    +0.032 C 
ATOM     20  C   UNL     1      -3.532  -0.482   1.989  0.00  0.00    +0.012 C 
ATOM     21  C   UNL     1      -1.379   0.792   0.002  0.00  0.00    +0.058 A 
ATOM     23  C   UNL     1      -6.295   0.997  -1.683  0.00  0.00    +0.016 C 
ATOM     24  C   UNL     1      -2.242   1.865  -0.086  0.00  0.00    +0.015 A 
ATOM     27  C   UNL     1       0.089   2.423  -0.090  0.00  0.00    +0.167 A 
ATOM     30  C   UNL     1       2.556   2.670  -0.088  0.00  0.00    +0.406 C 
ATOM     41  H   UNL     1       1.127   4.162  -0.183  0.00  0.00    +0.160 HD
ENDROOT
BRANCH  17   2
ATOM      2  O   UNL     1      -7.502  -1.542  -0.722  0.00  0.00    -0.391 OA
ATOM     38  H   UNL     1      -7.667  -2.472  -0.952  0.00  0.00    +0.210 HD
ENDBRANCH  17   2
BRANCH  30   5
ATOM      5  O   UNL     1       3.430   3.724  -0.142  0.00  0.00    -0.446 OA
BRANCH   5  35
ATOM     35  C   UNL     1       4.823   3.389  -0.113  0.00  0.00    +0.261 C 
BRANCH  35  36
ATOM     36  C   UNL     1       5.621   4.648  -0.180  0.00  0.00    +0.006 C 
ATOM     37  C   UNL     1       6.484   5.036   0.765  0.00  0.00    +0.007 C 
ENDBRANCH  35  36
ENDBRANCH   5  35
ENDBRANCH  30   5
BRANCH  14  22
ATOM     22  C   UNL     1      -6.517   0.673   0.754  0.00  0.00    +0.165 C 
BRANCH  22   3
ATOM      3  O   UNL     1      -7.893   0.463   0.531  0.00  0.00    -0.394 OA
ATOM     39  H   UNL     1      -8.367   0.795   1.312  0.00  0.00    +0.209 HD
ENDBRANCH  22   3
ENDBRANCH  14  22
BRANCH  15  25
ATOM     25  C   UNL     1      -0.908  -1.502   0.918  0.00  0.00    +0.106 C 
BRANCH  25  26
ATOM      4  O   UNL     1       0.571  -1.579  -0.995  0.00  0.00    -0.276 OA
ATOM      9  N   UNL     1       1.177  -2.666   0.968  0.00  0.00    -0.314 N 
ATOM     26  C   UNL     1       0.342  -1.899   0.168  0.00  0.00    +0.214 C 
ATOM     40  H   UNL     1       0.900  -2.870   1.924  0.00  0.00    +0.149 HD
BRANCH   9  28
ATOM     28  C   UNL     1       2.444  -3.190   0.512  0.00  0.00    +0.119 C 
BRANCH  28  29
ATOM     29  C   UNL     1       3.576  -2.213   0.790  0.00  0.00    +0.103 C 
BRANCH  29  11
ATOM      7  O   UNL     1       7.362  -2.518  -0.996  0.00  0.00    -0.377 OA
ATOM     11  N   UNL     1       4.846  -2.757   0.313  0.00  0.00    -0.297 NA
ATOM     31  C   UNL     1       5.980  -2.070   0.947  0.00  0.00    +0.112 C 
ATOM     32  C   UNL     1       4.944  -2.647  -1.149  0.00  0.00    +0.112 C 
ATOM     33  C   UNL     1       7.293  -2.646   0.425  0.00  0.00    +0.175 C 
ATOM     34  C   UNL     1       6.282  -3.210  -1.622  0.00  0.00    +0.175 C 
ENDBRANCH  29  11
ENDBRANCH  28  29
ENDBRANCH   9  28
ENDBRANCH  25  26
ENDBRANCH  15  25
TORSDOF 11
