REMARK  Name = 40777894
REMARK  11 active torsions:
REMARK  status: ('A' for Active; 'I' for Inactive)
REMARK    1  A    between atoms: S_1  and  N_10
REMARK    2  A    between atoms: S_1  and  C_23
REMARK    3  A    between atoms: O_3  and  C_12
REMARK    4  A    between atoms: O_4  and  C_13
REMARK    5  A    between atoms: O_5  and  C_22
REMARK    6  A    between atoms: O_5  and  C_24
REMARK    7  A    between atoms: N_10  and  C_21
REMARK    8  A    between atoms: C_11  and  C_16
REMARK    9  A    between atoms: C_14  and  C_21
REMARK   10  A    between atoms: C_15  and  C_22
REMARK   11  A    between atoms: C_16  and  C_20
REMARK                            x       y       z     vdW  Elec       q    Type
REMARK                         _______ _______ _______ _____ _____    ______ ____
ROOT
ATOM      2  O   UNL     1      -0.246   1.518  -0.713  0.00  0.00    -0.366 OA
ATOM     11  C   UNL     1      -1.042   2.047   0.362  0.00  0.00    +0.158 C 
ATOM     12  C   UNL     1      -0.073   2.796   1.261  0.00  0.00    +0.175 C 
ATOM     13  C   UNL     1       0.899   3.368   0.250  0.00  0.00    +0.175 C 
ATOM     14  C   UNL     1       1.012   2.231  -0.760  0.00  0.00    +0.165 C 
ENDROOT
BRANCH  12   3
ATOM      3  O   UNL     1      -0.722   3.784   2.033  0.00  0.00    -0.387 OA
ATOM     30  H   UNL     1      -0.033   4.295   2.490  0.00  0.00    +0.210 HD
ENDBRANCH  12   3
BRANCH  13   4
ATOM      4  O   UNL     1       0.321   4.493  -0.412  0.00  0.00    -0.387 OA
ATOM     31  H   UNL     1       0.963   4.801  -1.074  0.00  0.00    +0.210 HD
ENDBRANCH  13   4
BRANCH  11  16
ATOM     16  C   UNL     1      -1.766   0.914   1.068  0.00  0.00    +0.130 C 
BRANCH  16  20
ATOM      6  O   UNL     1      -3.233   1.053  -0.801  0.00  0.00    -0.276 OA
ATOM      9  N   UNL     1      -3.690  -0.572   0.782  0.00  0.00    -0.296 N 
ATOM     15  C   UNL     1      -4.933  -1.053   0.173  0.00  0.00    +0.102 C 
ATOM     17  C   UNL     1      -5.588  -1.874   1.286  0.00  0.00    +0.026 C 
ATOM     18  C   UNL     1      -3.404  -1.277   2.029  0.00  0.00    +0.108 C 
ATOM     19  C   UNL     1      -4.400  -2.426   2.064  0.00  0.00    +0.021 C 
ATOM     20  C   UNL     1      -2.961   0.482   0.256  0.00  0.00    +0.218 C 
BRANCH  15  22
ATOM     22  C   UNL     1      -4.655  -1.890  -1.074  0.00  0.00    +0.181 C 
BRANCH  22   5
ATOM      5  O   UNL     1      -4.509  -1.016  -2.178  0.00  0.00    -0.381 OA
ATOM     24  C   UNL     1      -4.247  -1.726  -3.383  0.00  0.00    +0.194 C 
ENDBRANCH  22   5
ENDBRANCH  15  22
ENDBRANCH  16  20
ENDBRANCH  11  16
BRANCH  14  21
ATOM     21  C   UNL     1       2.120   1.243  -0.425  0.00  0.00    +0.140 C 
BRANCH  21  10
ATOM     10  N   UNL     1       2.188   0.191  -1.395  0.00  0.00    -0.187 NA
ATOM     32  H   UNL     1       1.329  -0.353  -1.542  0.00  0.00    +0.148 HD
BRANCH  10   1
ATOM      1  S   UNL     1       3.683  -0.573  -1.785  0.00  0.00    +0.058 S 
ATOM      7  O   UNL     1       4.644   0.451  -2.149  0.00  0.00    -0.153 OA
ATOM      8  O   UNL     1       3.453  -1.704  -2.663  0.00  0.00    -0.153 OA
BRANCH   1  23
ATOM     23  C   UNL     1       4.154  -1.228  -0.212  0.00  0.00    +0.105 A 
ATOM     25  C   UNL     1       3.752  -2.511   0.158  0.00  0.00    +0.028 A 
ATOM     26  C   UNL     1       4.927  -0.460   0.659  0.00  0.00    +0.028 A 
ATOM     27  C   UNL     1       4.122  -3.027   1.400  0.00  0.00    +0.002 A 
ATOM     28  C   UNL     1       5.298  -0.976   1.901  0.00  0.00    +0.002 A 
ATOM     29  C   UNL     1       4.896  -2.259   2.271  0.00  0.00    +0.000 A 
ENDBRANCH   1  23
ENDBRANCH  10   1
ENDBRANCH  21  10
ENDBRANCH  14  21
TORSDOF 10
