REMARK  Name = 75536890
REMARK  5 active torsions:
REMARK  status: ('A' for Active; 'I' for Inactive)
REMARK    1  A    between atoms: S_1  and  C_20
REMARK    2  A    between atoms: S_1  and  C_23
REMARK    3  A    between atoms: O_4  and  C_14
REMARK    4  A    between atoms: O_4  and  C_17
REMARK    5  A    between atoms: C_8  and  C_11
REMARK                            x       y       z     vdW  Elec       q    Type
REMARK                         _______ _______ _______ _____ _____    ______ ____
ROOT
ATOM      2  O   UNL     1       2.249   1.886  -1.405  0.00  0.00    -0.275 OA
ATOM      3  O   UNL     1       2.762  -2.370   1.439  0.00  0.00    -0.375 OA
ATOM      7  N   UNL     1       3.136  -0.077  -0.498  0.00  0.00    -0.295 N 
ATOM     11  C   UNL     1       3.072   1.313  -0.696  0.00  0.00    +0.219 C 
ATOM     12  C   UNL     1       2.144  -0.928  -1.156  0.00  0.00    +0.154 C 
ATOM     13  C   UNL     1       4.149  -0.696   0.365  0.00  0.00    +0.136 C 
ATOM     14  C   UNL     1       1.118  -1.481  -0.167  0.00  0.00    +0.216 C 
ATOM     15  C   UNL     1       3.956  -2.171   0.689  0.00  0.00    +0.179 C 
ATOM     16  C   UNL     1       1.632  -2.676   0.632  0.00  0.00    +0.206 C 
ENDROOT
BRANCH  11   8
ATOM      8  C   UNL     1       4.073   2.154   0.033  0.00  0.00    +0.075 C 
ATOM      9  C   UNL     1       3.776   2.548   1.440  0.00  0.00    +0.013 C 
ATOM     10  C   UNL     1       3.719   3.568   0.343  0.00  0.00    +0.013 C 
ENDBRANCH  11   8
BRANCH  14   4
ATOM      4  O   UNL     1      -0.029  -1.891  -0.909  0.00  0.00    -0.485 OA
BRANCH   4  17
ATOM     17  C   UNL     1      -1.203  -1.244  -0.631  0.00  0.00    +0.121 A 
ATOM     18  C   UNL     1      -1.298   0.136  -0.810  0.00  0.00    +0.047 A 
ATOM     19  C   UNL     1      -2.304  -1.965  -0.169  0.00  0.00    +0.047 A 
ATOM     20  C   UNL     1      -3.595   0.074  -0.064  0.00  0.00    +0.088 A 
ATOM     21  C   UNL     1      -2.494   0.795  -0.526  0.00  0.00    +0.030 A 
ATOM     22  C   UNL     1      -3.500  -1.306   0.114  0.00  0.00    +0.030 A 
BRANCH  20   1
ATOM      1  S   UNL     1      -5.093   0.900   0.287  0.00  0.00    -0.006 S 
ATOM      5  O   UNL     1      -5.141   2.137  -0.480  0.00  0.00    -0.170 OA
ATOM      6  O   UNL     1      -6.175  -0.067   0.169  0.00  0.00    -0.170 OA
ATOM     23  C   UNL     1      -4.954   1.359   2.000  0.00  0.00    +0.200 C 
ENDBRANCH  20   1
ENDBRANCH   4  17
ENDBRANCH  14   4
TORSDOF 4
