REMARK  Name = 7142731
REMARK  5 active torsions:
REMARK  status: ('A' for Active; 'I' for Inactive)
REMARK    1  A    between atoms: O_3  and  C_22
REMARK    2  A    between atoms: O_3  and  C_24
REMARK    3  A    between atoms: N_7  and  C_20
REMARK    4  A    between atoms: C_19  and  C_22
REMARK    5  A    between atoms: C_23  and  C_25
REMARK                            x       y       z     vdW  Elec       q    Type
REMARK                         _______ _______ _______ _____ _____    ______ ____
ROOT
ATOM      1  O   UNL     1       2.049   2.098   1.644  0.00  0.00    -0.266 OA
ATOM      2  O   UNL     1      -3.105   0.730   2.144  0.00  0.00    -0.272 OA
ATOM      5  N   UNL     1      -2.786   2.077   0.277  0.00  0.00    -0.298 N 
ATOM      6  N   UNL     1       0.361   2.618   0.113  0.00  0.00    -0.310 N 
ATOM     10  C   UNL     1      -1.560   4.219   0.661  0.00  0.00    +0.027 C 
ATOM     11  C   UNL     1      -1.464   3.137  -1.545  0.00  0.00    +0.054 C 
ATOM     12  C   UNL     1      -1.579   4.486  -0.839  0.00  0.00    +0.018 C 
ATOM     13  C   UNL     1      -2.736   3.311   1.062  0.00  0.00    +0.113 C 
ATOM     14  C   UNL     1      -0.205   3.608   1.039  0.00  0.00    +0.130 C 
ATOM     15  C   UNL     1      -2.674   2.256  -1.178  0.00  0.00    +0.117 C 
ATOM     16  C   UNL     1      -0.177   2.429  -1.163  0.00  0.00    +0.027 A 
ATOM     17  C   UNL     1       0.426   1.603  -2.035  0.00  0.00    +0.024 A 
ATOM     18  C   UNL     1       1.528   1.951   0.537  0.00  0.00    +0.273 A 
ATOM     19  C   UNL     1      -3.014   0.860   0.920  0.00  0.00    +0.253 C 
ATOM     20  C   UNL     1       2.155   1.021  -0.455  0.00  0.00    +0.099 A 
ATOM     21  C   UNL     1       1.614   0.885  -1.671  0.00  0.00    +0.030 A 
ENDROOT
BRANCH  20   7
ATOM      4  O   UNL     1       3.001  -1.521  -1.438  0.00  0.00    -0.268 OA
ATOM      7  N   UNL     1       3.278   0.345  -0.079  0.00  0.00    -0.276 N 
ATOM     23  C   UNL     1       3.636  -0.892  -0.596  0.00  0.00    +0.268 C 
ATOM     34  H   UNL     1       3.768   0.683   0.747  0.00  0.00    +0.155 HD
BRANCH  23  25
ATOM      8  N   UNL     1       5.546  -0.710   0.815  0.00  0.00    -0.247 NA
ATOM      9  N   UNL     1       6.497  -3.197  -0.066  0.00  0.00    -0.259 NA
ATOM     25  C   UNL     1       4.908  -1.462  -0.080  0.00  0.00    +0.144 A 
ATOM     28  C   UNL     1       5.345  -2.670  -0.526  0.00  0.00    +0.143 A 
ATOM     32  C   UNL     1       6.699  -1.237   1.275  0.00  0.00    +0.131 A 
ATOM     33  C   UNL     1       7.166  -2.459   0.842  0.00  0.00    +0.130 A 
ENDBRANCH  23  25
ENDBRANCH  20   7
BRANCH  19  22
ATOM     22  C   UNL     1      -3.147  -0.356   0.039  0.00  0.00    +0.324 C 
BRANCH  22   3
ATOM      3  O   UNL     1      -3.334  -1.456   0.896  0.00  0.00    -0.483 OA
BRANCH   3  24
ATOM     24  C   UNL     1      -4.035  -2.533   0.399  0.00  0.00    +0.121 A 
ATOM     26  C   UNL     1      -3.985  -2.811  -0.959  0.00  0.00    +0.045 A 
ATOM     27  C   UNL     1      -4.779  -3.319   1.266  0.00  0.00    +0.045 A 
ATOM     29  C   UNL     1      -4.695  -3.901  -1.461  0.00  0.00    +0.004 A 
ATOM     30  C   UNL     1      -5.489  -4.410   0.763  0.00  0.00    +0.004 A 
ATOM     31  C   UNL     1      -5.447  -4.700  -0.601  0.00  0.00    +0.000 A 
ENDBRANCH   3  24
ENDBRANCH  22   3
ENDBRANCH  19  22
TORSDOF 5
