REMARK  Name = 56775488
REMARK  8 active torsions:
REMARK  status: ('A' for Active; 'I' for Inactive)
REMARK    1  A    between atoms: O_4  and  C_16
REMARK    2  A    between atoms: O_4  and  C_26
REMARK    3  A    between atoms: N_5  and  C_7
REMARK    4  A    between atoms: N_5  and  C_11
REMARK    5  A    between atoms: C_7  and  C_10
REMARK    6  A    between atoms: C_10  and  C_12
REMARK    7  A    between atoms: C_11  and  C_13
REMARK    8  A    between atoms: C_15  and  C_18
REMARK                            x       y       z     vdW  Elec       q    Type
REMARK                         _______ _______ _______ _____ _____    ______ ____
ROOT
ATOM      2  O   UNL     1      -2.717  -3.896   1.097  0.00  0.00    -0.376 OA
ATOM      7  C   UNL     1      -1.729  -2.379  -0.033  0.00  0.00    +0.072 C 
ATOM      8  C   UNL     1      -3.027  -3.175  -0.117  0.00  0.00    +0.184 C 
ATOM      9  C   UNL     1      -1.429  -3.246   1.185  0.00  0.00    +0.184 C 
ENDROOT
BRANCH   7   5
ATOM      5  N   UNL     1      -2.036  -1.028   0.417  0.00  0.00    -0.302 NA
ATOM     28  H   UNL     1      -1.259  -0.528   0.848  0.00  0.00    +0.123 HD
BRANCH   5  11
ATOM     11  C   UNL     1      -2.569  -0.246  -0.696  0.00  0.00    +0.120 C 
BRANCH  11  13
ATOM     13  C   UNL     1      -3.435   0.890  -0.218  0.00  0.00    +0.008 A 
ATOM     16  C   UNL     1      -2.957   2.200  -0.220  0.00  0.00    +0.124 A 
ATOM     17  C   UNL     1      -4.729   0.620   0.229  0.00  0.00    +0.008 A 
ATOM     19  C   UNL     1      -3.772   3.240   0.225  0.00  0.00    +0.046 A 
ATOM     20  C   UNL     1      -5.544   1.660   0.674  0.00  0.00    +0.001 A 
ATOM     21  C   UNL     1      -5.066   2.970   0.672  0.00  0.00    +0.004 A 
BRANCH  16   4
ATOM      4  O   UNL     1      -1.697   2.481  -0.654  0.00  0.00    -0.495 OA
ATOM     26  C   UNL     1      -1.290   3.848  -0.622  0.00  0.00    +0.277 C 
ENDBRANCH  16   4
ENDBRANCH  11  13
ENDBRANCH   5  11
ENDBRANCH   7   5
BRANCH   7  10
ATOM     10  C   UNL     1      -0.761  -2.407  -1.223  0.00  0.00    +0.085 C 
BRANCH  10  12
ATOM      3  O   UNL     1       2.623  -2.224  -0.097  0.00  0.00    -0.354 OA
ATOM      6  N   UNL     1       1.465  -2.931  -0.397  0.00  0.00    -0.083 NA
ATOM     12  C   UNL     1       0.595  -2.007  -0.815  0.00  0.00    +0.086 A 
ATOM     14  C   UNL     1       1.142  -0.713  -0.801  0.00  0.00    +0.076 A 
ATOM     15  C   UNL     1       2.419  -0.904  -0.342  0.00  0.00    +0.167 A 
BRANCH  15  18
ATOM      1  F   UNL     1       6.755   2.443   0.675  0.00  0.00    -0.205 F 
ATOM     18  C   UNL     1       3.541  -0.037  -0.077  0.00  0.00    +0.020 A 
ATOM     22  C   UNL     1       3.430   1.335  -0.301  0.00  0.00    +0.014 A 
ATOM     23  C   UNL     1       4.737  -0.572   0.400  0.00  0.00    +0.014 A 
ATOM     24  C   UNL     1       4.516   2.173  -0.046  0.00  0.00    +0.039 A 
ATOM     25  C   UNL     1       5.823   0.266   0.654  0.00  0.00    +0.039 A 
ATOM     27  C   UNL     1       5.713   1.638   0.431  0.00  0.00    +0.123 A 
ENDBRANCH  15  18
ENDBRANCH  10  12
ENDBRANCH   7  10
TORSDOF 7
