REMARK  Name = 25338588
REMARK  10 active torsions:
REMARK  status: ('A' for Active; 'I' for Inactive)
REMARK    1  A    between atoms: S_1  and  N_7
REMARK    2  A    between atoms: S_1  and  C_16
REMARK    3  A    between atoms: O_5  and  C_25
REMARK    4  A    between atoms: O_5  and  C_26
REMARK    5  A    between atoms: N_6  and  C_15
REMARK    6  A    between atoms: N_7  and  C_10
REMARK    7  A    between atoms: C_11  and  C_14
REMARK    8  A    between atoms: C_16  and  C_17
REMARK    9  A    between atoms: C_17  and  C_19
REMARK   10  A    between atoms: C_18  and  C_20
REMARK                            x       y       z     vdW  Elec       q    Type
REMARK                         _______ _______ _______ _____ _____    ______ ____
ROOT
ATOM      6  N   UNL     1      -1.638  -2.294   1.180  0.00  0.00    -0.293 NA
ATOM     10  C   UNL     1      -3.203  -1.092  -0.064  0.00  0.00    +0.092 C 
ATOM     11  C   UNL     1      -1.140  -2.388  -0.206  0.00  0.00    +0.147 C 
ATOM     12  C   UNL     1      -2.055  -1.442  -1.008  0.00  0.00    +0.050 C 
ATOM     13  C   UNL     1      -3.087  -2.095   1.072  0.00  0.00    +0.105 C 
ATOM     15  C   UNL     1      -1.308  -3.461   1.990  0.00  0.00    +0.105 C 
ENDROOT
BRANCH  11  14
ATOM      2  O   UNL     1       1.127  -2.990  -0.893  0.00  0.00    -0.336 OA
ATOM      8  N   UNL     1       0.952  -0.936  -0.017  0.00  0.00    -0.190 NA
ATOM      9  N   UNL     1       2.416  -2.444  -0.920  0.00  0.00    -0.056 NA
ATOM     14  C   UNL     1       0.326  -2.037  -0.347  0.00  0.00    +0.245 A 
ATOM     18  C   UNL     1       2.231  -1.232  -0.387  0.00  0.00    +0.202 A 
BRANCH  18  20
ATOM     20  C   UNL     1       3.303  -0.295  -0.212  0.00  0.00    +0.023 A 
ATOM     21  C   UNL     1       3.050   0.957   0.349  0.00  0.00    +0.015 A 
ATOM     22  C   UNL     1       4.597  -0.635  -0.604  0.00  0.00    +0.015 A 
ATOM     23  C   UNL     1       4.092   1.869   0.518  0.00  0.00    +0.046 A 
ATOM     24  C   UNL     1       5.639   0.277  -0.436  0.00  0.00    +0.046 A 
ATOM     25  C   UNL     1       5.386   1.529   0.125  0.00  0.00    +0.120 A 
BRANCH  25   5
ATOM      5  O   UNL     1       6.404   2.418   0.290  0.00  0.00    -0.495 OA
ATOM     26  C   UNL     1       6.075   3.680   0.870  0.00  0.00    +0.277 C 
ENDBRANCH  25   5
ENDBRANCH  18  20
ENDBRANCH  11  14
BRANCH  10   7
ATOM      7  N   UNL     1      -3.024   0.287   0.457  0.00  0.00    -0.190 NA
ATOM     27  H   UNL     1      -2.775   0.392   1.448  0.00  0.00    +0.148 HD
BRANCH   7   1
ATOM      1  S   UNL     1      -3.760   1.579  -0.371  0.00  0.00    +0.030 S 
ATOM      3  O   UNL     1      -3.845   1.278  -1.787  0.00  0.00    -0.158 OA
ATOM      4  O   UNL     1      -3.155   2.814   0.089  0.00  0.00    -0.158 OA
BRANCH   1  16
ATOM     16  C   UNL     1      -5.404   1.510   0.303  0.00  0.00    +0.185 C 
BRANCH  16  17
ATOM     17  C   UNL     1      -6.291   2.593  -0.290  0.00  0.00    +0.021 C 
ATOM     19  C   UNL     1      -7.691   2.548   0.299  0.00  0.00    +0.005 C 
ENDBRANCH  16  17
ENDBRANCH   1  16
ENDBRANCH   7   1
ENDBRANCH  10   7
TORSDOF 7
