REMARK  Name = 45783396
REMARK  9 active torsions:
REMARK  status: ('A' for Active; 'I' for Inactive)
REMARK    1  A    between atoms: O_2  and  C_23
REMARK    2  A    between atoms: O_2  and  C_24
REMARK    3  A    between atoms: N_3  and  C_12
REMARK    4  A    between atoms: N_6  and  C_20
REMARK    5  A    between atoms: C_8  and  C_13
REMARK    6  A    between atoms: C_12  and  C_14
REMARK    7  A    between atoms: C_12  and  C_15
REMARK    8  A    between atoms: C_16  and  C_17
REMARK    9  A    between atoms: C_20  and  C_23
REMARK                            x       y       z     vdW  Elec       q    Type
REMARK                         _______ _______ _______ _____ _____    ______ ____
ROOT
ATOM      1  O   UNL     1       0.464   2.754   0.287  0.00  0.00    -0.336 OA
ATOM      4  N   UNL     1      -0.104   0.724  -0.470  0.00  0.00    -0.190 NA
ATOM      5  N   UNL     1      -0.921   2.644   0.468  0.00  0.00    -0.056 NA
ATOM     13  C   UNL     1       0.865   1.581  -0.271  0.00  0.00    +0.245 A 
ATOM     16  C   UNL     1      -1.180   1.420  -0.002  0.00  0.00    +0.205 A 
ENDROOT
BRANCH  16  17
ATOM      6  N   UNL     1      -1.638  -1.374   0.222  0.00  0.00    -0.326 N 
ATOM      7  N   UNL     1      -3.977  -1.049   0.076  0.00  0.00    -0.240 NA
ATOM     17  C   UNL     1      -2.502   0.864  -0.019  0.00  0.00    +0.062 A 
ATOM     18  C   UNL     1      -2.744  -0.496   0.089  0.00  0.00    +0.130 A 
ATOM     19  C   UNL     1      -3.597   1.711  -0.148  0.00  0.00    +0.016 A 
ATOM     21  C   UNL     1      -4.882   1.180  -0.165  0.00  0.00    +0.020 A 
ATOM     22  C   UNL     1      -5.017  -0.194  -0.051  0.00  0.00    +0.113 A 
ATOM     25  H   UNL     1      -0.788  -0.967   0.597  0.00  0.00    +0.148 HD
BRANCH   6  20
ATOM     20  C   UNL     1      -1.788  -2.788   0.339  0.00  0.00    +0.131 C 
BRANCH  20  23
ATOM     23  C   UNL     1      -0.427  -3.443   0.500  0.00  0.00    +0.178 C 
BRANCH  23   2
ATOM      2  O   UNL     1       0.364  -3.180  -0.652  0.00  0.00    -0.381 OA
ATOM     24  C   UNL     1       1.648  -3.780  -0.550  0.00  0.00    +0.194 C 
ENDBRANCH  23   2
ENDBRANCH  20  23
ENDBRANCH   6  20
ENDBRANCH  16  17
BRANCH  13   8
ATOM      3  N   UNL     1       2.954   0.282   0.101  0.00  0.00    -0.289 NA
ATOM      8  C   UNL     1       2.343   1.447  -0.569  0.00  0.00    +0.146 C 
ATOM      9  C   UNL     1       2.630   1.232  -2.067  0.00  0.00    +0.030 C 
ATOM     10  C   UNL     1       4.064  -0.149  -0.750  0.00  0.00    +0.085 C 
ATOM     11  C   UNL     1       3.458  -0.044  -2.134  0.00  0.00    +0.017 C 
BRANCH   3  12
ATOM     12  C   UNL     1       3.385   0.564   1.464  0.00  0.00    +0.051 C 
ATOM     14  C   UNL     1       4.425  -0.459   1.912  0.00  0.00    +0.024 C 
ATOM     15  C   UNL     1       2.174   0.556   2.391  0.00  0.00    +0.024 C 
ENDBRANCH   3  12
ENDBRANCH  13   8
TORSDOF 6
