REMARK  Name = 45783457
REMARK  15 active torsions:
REMARK  status: ('A' for Active; 'I' for Inactive)
REMARK    1  A    between atoms: O_2  and  C_21
REMARK    2  A    between atoms: O_2  and  C_27
REMARK    3  A    between atoms: O_3  and  C_22
REMARK    4  A    between atoms: O_3  and  C_28
REMARK    5  A    between atoms: O_4  and  C_23
REMARK    6  A    between atoms: O_4  and  C_29
REMARK    7  A    between atoms: O_5  and  C_26
REMARK    8  A    between atoms: O_5  and  C_32
REMARK    9  A    between atoms: O_6  and  C_33
REMARK   10  A    between atoms: O_6  and  C_34
REMARK   11  A    between atoms: N_7  and  C_15
REMARK   12  A    between atoms: C_11  and  C_16
REMARK   13  A    between atoms: C_15  and  C_17
REMARK   14  A    between atoms: C_20  and  C_24
REMARK   15  A    between atoms: C_32  and  C_33
REMARK                            x       y       z     vdW  Elec       q    Type
REMARK                         _______ _______ _______ _____ _____    ______ ____
ROOT
ATOM      7  N   UNL     1      -3.301  -1.514  -1.337  0.00  0.00    -0.287 NA
ATOM     11  C   UNL     1      -3.563  -1.722   0.101  0.00  0.00    +0.146 C 
ATOM     12  C   UNL     1      -3.927  -3.213   0.221  0.00  0.00    +0.030 C 
ATOM     13  C   UNL     1      -3.903  -3.744  -1.206  0.00  0.00    +0.017 C 
ATOM     14  C   UNL     1      -4.108  -2.504  -2.052  0.00  0.00    +0.085 C 
ENDROOT
BRANCH  11  16
ATOM      1  O   UNL     1      -2.670  -0.940   2.237  0.00  0.00    -0.336 OA
ATOM      8  N   UNL     1      -1.108  -1.324   0.678  0.00  0.00    -0.189 NA
ATOM      9  N   UNL     1      -1.440  -0.638   2.836  0.00  0.00    -0.054 NA
ATOM     16  C   UNL     1      -2.384  -1.336   0.969  0.00  0.00    +0.245 A 
ATOM     20  C   UNL     1      -0.568  -0.890   1.854  0.00  0.00    +0.221 A 
BRANCH  20  24
ATOM     10  N   UNL     1       1.248  -0.282   3.231  0.00  0.00    -0.252 NA
ATOM     24  C   UNL     1       0.847  -0.718   2.016  0.00  0.00    +0.115 A 
ATOM     25  C   UNL     1       1.709  -0.994   0.967  0.00  0.00    +0.077 A 
ATOM     26  C   UNL     1       3.071  -0.810   1.178  0.00  0.00    +0.124 A 
ATOM     30  C   UNL     1       2.579  -0.115   3.399  0.00  0.00    +0.115 A 
ATOM     31  C   UNL     1       3.522  -0.363   2.414  0.00  0.00    +0.065 A 
BRANCH  26   5
ATOM      5  O   UNL     1       3.958  -1.068   0.179  0.00  0.00    -0.490 OA
BRANCH   5  32
ATOM     32  C   UNL     1       5.161  -0.301   0.166  0.00  0.00    +0.257 C 
BRANCH  32  33
ATOM     33  C   UNL     1       5.646  -0.167  -1.265  0.00  0.00    +0.200 C 
BRANCH  33   6
ATOM      6  O   UNL     1       5.912  -1.463  -1.788  0.00  0.00    -0.380 OA
ATOM     34  C   UNL     1       6.350  -1.399  -3.138  0.00  0.00    +0.194 C 
ENDBRANCH  33   6
ENDBRANCH  32  33
ENDBRANCH   5  32
ENDBRANCH  26   5
ENDBRANCH  20  24
ENDBRANCH  11  16
BRANCH   7  15
ATOM     15  C   UNL     1      -3.582  -0.154  -1.782  0.00  0.00    +0.120 C 
BRANCH  15  17
ATOM     17  C   UNL     1      -2.465   0.792  -1.430  0.00  0.00    -0.026 A 
ATOM     18  C   UNL     1      -2.720   1.905  -0.629  0.00  0.00    +0.054 A 
ATOM     19  C   UNL     1      -1.175   0.556  -1.906  0.00  0.00    +0.054 A 
ATOM     21  C   UNL     1      -0.140   1.433  -1.580  0.00  0.00    +0.165 A 
ATOM     22  C   UNL     1      -1.685   2.782  -0.303  0.00  0.00    +0.165 A 
ATOM     23  C   UNL     1      -0.395   2.546  -0.779  0.00  0.00    +0.204 A 
BRANCH  21   2
ATOM      2  O   UNL     1       1.115   1.190  -2.051  0.00  0.00    -0.491 OA
ATOM     27  C   UNL     1       1.289   0.030  -2.864  0.00  0.00    +0.277 C 
ENDBRANCH  21   2
BRANCH  22   3
ATOM      3  O   UNL     1      -1.948   3.866   0.478  0.00  0.00    -0.491 OA
ATOM     28  C   UNL     1      -3.292   4.034   0.923  0.00  0.00    +0.277 C 
ENDBRANCH  22   3
BRANCH  23   4
ATOM      4  O   UNL     1       0.616   3.403  -0.462  0.00  0.00    -0.488 OA
ATOM     29  C   UNL     1       1.353   3.123   0.726  0.00  0.00    +0.277 C 
ENDBRANCH  23   4
ENDBRANCH  15  17
ENDBRANCH   7  15
TORSDOF 11
