REMARK  Name = 56774370
REMARK  9 active torsions:
REMARK  status: ('A' for Active; 'I' for Inactive)
REMARK    1  A    between atoms: N_3  and  C_7
REMARK    2  A    between atoms: N_3  and  C_14
REMARK    3  A    between atoms: N_5  and  C_20
REMARK    4  A    between atoms: C_6  and  C_12
REMARK    5  A    between atoms: C_6  and  C_13
REMARK    6  A    between atoms: C_8  and  C_10
REMARK    7  A    between atoms: C_10  and  C_17
REMARK    8  A    between atoms: C_11  and  C_14
REMARK    9  A    between atoms: C_19  and  C_20
REMARK                            x       y       z     vdW  Elec       q    Type
REMARK                         _______ _______ _______ _____ _____    ______ ____
ROOT
ATOM     10  C   UNL     1      -0.597  -1.605  -0.612  0.00  0.00    +0.063 C 
ENDROOT
BRANCH  10   8
ATOM      6  C   UNL     1      -2.653  -0.012  -0.971  0.00  0.00    -0.016 C 
ATOM      7  C   UNL     1      -3.047   0.700   0.340  0.00  0.00    +0.060 C 
ATOM      8  C   UNL     1      -1.269  -0.254  -0.334  0.00  0.00    +0.004 C 
ATOM      9  C   UNL     1      -1.969  -0.155   1.038  0.00  0.00    +0.023 C 
ATOM     12  C   UNL     1      -3.392  -1.283  -1.330  0.00  0.00    +0.013 C 
ATOM     13  C   UNL     1      -2.672   0.931  -2.162  0.00  0.00    +0.013 C 
BRANCH   7   3
ATOM      3  N   UNL     1      -4.367   0.267   0.801  0.00  0.00    -0.312 NA
ATOM     25  H   UNL     1      -4.400   0.066   1.801  0.00  0.00    +0.122 HD
BRANCH   3  14
ATOM     14  C   UNL     1      -5.349   1.306   0.509  0.00  0.00    +0.084 C 
BRANCH  14  11
ATOM     11  C   UNL     1      -6.731   0.863   0.867  0.00  0.00    +0.003 C 
ATOM     15  C   UNL     1      -7.895   1.380   0.074  0.00  0.00    +0.005 C 
ATOM     16  C   UNL     1      -7.471  -0.053  -0.062  0.00  0.00    +0.005 C 
ENDBRANCH  14  11
ENDBRANCH   3  14
ENDBRANCH   7   3
ENDBRANCH  10   8
BRANCH  10  17
ATOM      1  O   UNL     1       2.410  -1.931   1.287  0.00  0.00    -0.358 OA
ATOM      4  N   UNL     1       1.032  -2.033   1.141  0.00  0.00    -0.083 NA
ATOM     17  C   UNL     1       0.785  -1.626  -0.107  0.00  0.00    +0.084 A 
ATOM     18  C   UNL     1       1.957  -1.258  -0.790  0.00  0.00    +0.072 A 
ATOM     19  C   UNL     1       2.950  -1.468   0.131  0.00  0.00    +0.151 A 
BRANCH  19  20
ATOM     20  C   UNL     1       4.445  -1.295   0.109  0.00  0.00    +0.161 C 
BRANCH  20   5
ATOM      2  O   UNL     1       6.438   2.397   0.214  0.00  0.00    -0.377 OA
ATOM      5  N   UNL     1       4.829   0.084  -0.187  0.00  0.00    -0.291 NA
ATOM     21  C   UNL     1       6.217   0.147  -0.667  0.00  0.00    +0.113 C 
ATOM     22  C   UNL     1       4.667   0.936   0.999  0.00  0.00    +0.113 C 
ATOM     23  C   UNL     1       6.599   1.596  -0.957  0.00  0.00    +0.175 C 
ATOM     24  C   UNL     1       5.085   2.366   0.668  0.00  0.00    +0.175 C 
ENDBRANCH  20   5
ENDBRANCH  19  20
ENDBRANCH  10  17
TORSDOF 7
