REMARK  Name = 75537010
REMARK  2 active torsions:
REMARK  status: ('A' for Active; 'I' for Inactive)
REMARK    1  A    between atoms: N_3  and  C_7
REMARK    2  A    between atoms: C_18  and  C_19
REMARK                            x       y       z     vdW  Elec       q    Type
REMARK                         _______ _______ _______ _____ _____    ______ ____
ROOT
ATOM      1  O   UNL     1       2.762   2.713  -0.295  0.00  0.00    -0.252 OA
ATOM      2  O   UNL     1      -4.181   2.008   0.032  0.00  0.00    -0.270 OA
ATOM      3  N   UNL     1       2.473   0.377  -0.147  0.00  0.00    -0.281 N 
ATOM      4  N   UNL     1       0.651   1.683  -0.296  0.00  0.00    -0.278 N 
ATOM      5  N   UNL     1      -2.001   1.261   0.421  0.00  0.00    -0.294 N 
ATOM      6  C   UNL     1       0.134   0.325  -0.342  0.00  0.00    +0.112 C 
ATOM      8  C   UNL     1       1.352  -0.538  -0.026  0.00  0.00    +0.133 C 
ATOM     11  C   UNL     1      -1.029   0.171   0.632  0.00  0.00    +0.132 C 
ATOM     12  C   UNL     1       2.051   1.717  -0.255  0.00  0.00    +0.305 C 
ATOM     13  C   UNL     1      -0.263   2.808  -0.399  0.00  0.00    +0.128 C 
ATOM     17  C   UNL     1      -1.442   2.614   0.553  0.00  0.00    +0.127 C 
ATOM     18  C   UNL     1      -3.364   1.098   0.165  0.00  0.00    +0.247 C 
ENDROOT
BRANCH   3   7
ATOM      7  C   UNL     1       3.840  -0.070  -0.029  0.00  0.00    +0.078 C 
ATOM      9  C   UNL     1       4.058  -0.804   1.296  0.00  0.00    +0.022 C 
ATOM     10  C   UNL     1       4.223  -0.949  -1.222  0.00  0.00    +0.022 C 
ATOM     14  C   UNL     1       5.484  -1.333   1.419  0.00  0.00    +0.002 C 
ATOM     15  C   UNL     1       5.649  -1.479  -1.097  0.00  0.00    +0.002 C 
ATOM     16  C   UNL     1       5.864  -2.208   0.227  0.00  0.00    +0.000 C 
ENDBRANCH   3   7
BRANCH  18  19
ATOM     19  C   UNL     1      -3.883  -0.268   0.026  0.00  0.00    +0.037 A 
ATOM     20  C   UNL     1      -4.348  -0.955   1.147  0.00  0.00    +0.013 A 
ATOM     21  C   UNL     1      -3.912  -0.879  -1.227  0.00  0.00    +0.013 A 
ATOM     22  C   UNL     1      -4.843  -2.253   1.015  0.00  0.00    +0.001 A 
ATOM     23  C   UNL     1      -4.406  -2.177  -1.360  0.00  0.00    +0.001 A 
ATOM     24  C   UNL     1      -4.872  -2.863  -0.238  0.00  0.00    +0.000 A 
ENDBRANCH  18  19
TORSDOF 2
