REMARK  Name = 7673958
REMARK  8 active torsions:
REMARK  status: ('A' for Active; 'I' for Inactive)
REMARK    1  A    between atoms: O_5  and  C_33
REMARK    2  A    between atoms: O_5  and  C_35
REMARK    3  A    between atoms: O_6  and  C_34
REMARK    4  A    between atoms: O_6  and  C_36
REMARK    5  A    between atoms: N_9  and  C_15
REMARK    6  A    between atoms: C_11  and  C_16
REMARK    7  A    between atoms: C_19  and  C_23
REMARK    8  A    between atoms: C_22  and  C_24
REMARK                            x       y       z     vdW  Elec       q    Type
REMARK                         _______ _______ _______ _____ _____    ______ ____
ROOT
ATOM      2  O   UNL     1       2.842  -4.012  -0.357  0.00  0.00    -0.270 OA
ATOM      4  O   UNL     1      -3.840  -2.418  -1.936  0.00  0.00    -0.270 OA
ATOM      7  N   UNL     1       0.959  -2.623  -0.271  0.00  0.00    -0.283 N 
ATOM      8  N   UNL     1      -1.899  -2.170  -0.662  0.00  0.00    -0.294 N 
ATOM     11  C   UNL     1       0.325  -1.373   0.174  0.00  0.00    +0.179 C 
ATOM     12  C   UNL     1      -1.173  -1.528   0.445  0.00  0.00    +0.140 C 
ATOM     13  C   UNL     1       0.073  -3.668  -0.786  0.00  0.00    +0.128 C 
ATOM     14  C   UNL     1      -1.145  -3.102  -1.498  0.00  0.00    +0.127 C 
ATOM     19  C   UNL     1       2.316  -2.929  -0.106  0.00  0.00    +0.247 C 
ATOM     22  C   UNL     1      -3.236  -1.916  -0.989  0.00  0.00    +0.247 C 
ENDROOT
BRANCH  19  23
ATOM     23  C   UNL     1       3.204  -1.880   0.412  0.00  0.00    +0.037 A 
ATOM     25  C   UNL     1       3.846  -1.012  -0.471  0.00  0.00    +0.016 A 
ATOM     26  C   UNL     1       3.404  -1.753   1.786  0.00  0.00    +0.016 A 
ATOM     29  C   UNL     1       4.690  -0.016   0.022  0.00  0.00    +0.046 A 
ATOM     30  C   UNL     1       4.248  -0.757   2.278  0.00  0.00    +0.046 A 
ATOM     33  C   UNL     1       4.891   0.111   1.396  0.00  0.00    +0.120 A 
BRANCH  33   5
ATOM      5  O   UNL     1       5.716   1.081   1.876  0.00  0.00    -0.495 OA
ATOM     35  C   UNL     1       6.341   1.935   0.919  0.00  0.00    +0.277 C 
ENDBRANCH  33   5
ENDBRANCH  19  23
BRANCH  22  24
ATOM     24  C   UNL     1      -3.995  -0.983  -0.141  0.00  0.00    +0.037 A 
ATOM     27  C   UNL     1      -4.008   0.380  -0.442  0.00  0.00    +0.016 A 
ATOM     28  C   UNL     1      -4.703  -1.460   0.962  0.00  0.00    +0.016 A 
ATOM     31  C   UNL     1      -4.729   1.264   0.361  0.00  0.00    +0.046 A 
ATOM     32  C   UNL     1      -5.423  -0.576   1.765  0.00  0.00    +0.046 A 
ATOM     34  C   UNL     1      -5.436   0.786   1.464  0.00  0.00    +0.120 A 
BRANCH  34   6
ATOM      6  O   UNL     1      -6.141   1.649   2.247  0.00  0.00    -0.495 OA
ATOM     36  C   UNL     1      -6.113   3.027   1.881  0.00  0.00    +0.277 C 
ENDBRANCH  34   6
ENDBRANCH  22  24
BRANCH  11  16
ATOM      1  O   UNL     1       0.628  -0.627  -2.076  0.00  0.00    -0.274 OA
ATOM      9  N   UNL     1       0.671   0.939  -0.355  0.00  0.00    -0.302 N 
ATOM     16  C   UNL     1       0.549  -0.333  -0.887  0.00  0.00    +0.236 C 
ATOM     37  H   UNL     1       0.559   1.068   0.646  0.00  0.00    +0.150 HD
BRANCH   9  15
ATOM      3  O   UNL     1       2.695   2.620   0.387  0.00  0.00    -0.274 OA
ATOM     10  N   UNL     1       1.673   4.394  -0.626  0.00  0.00    -0.314 N 
ATOM     15  C   UNL     1       0.913   2.109  -1.159  0.00  0.00    +0.159 C 
ATOM     17  C   UNL     1      -0.398   2.736  -1.613  0.00  0.00    +0.033 C 
ATOM     18  C   UNL     1      -0.117   4.059  -2.307  0.00  0.00    +0.021 C 
ATOM     20  C   UNL     1       0.556   5.000  -1.326  0.00  0.00    +0.104 C 
ATOM     21  C   UNL     1       1.816   3.046  -0.365  0.00  0.00    +0.233 C 
ATOM     38  H   UNL     1       2.309   5.024  -0.146  0.00  0.00    +0.149 HD
ENDBRANCH   9  15
ENDBRANCH  11  16
TORSDOF 6
