REMARK  Name = 7127958
REMARK  10 active torsions:
REMARK  status: ('A' for Active; 'I' for Inactive)
REMARK    1  A    between atoms: O_5  and  C_38
REMARK    2  A    between atoms: O_5  and  C_39
REMARK    3  A    between atoms: N_7  and  C_17
REMARK    4  A    between atoms: N_8  and  C_21
REMARK    5  A    between atoms: N_9  and  C_28
REMARK    6  A    between atoms: C_12  and  C_16
REMARK    7  A    between atoms: C_15  and  C_20
REMARK    8  A    between atoms: C_21  and  C_23
REMARK    9  A    between atoms: C_21  and  C_24
REMARK   10  A    between atoms: C_23  and  C_25
REMARK                            x       y       z     vdW  Elec       q    Type
REMARK                         _______ _______ _______ _____ _____    ______ ____
ROOT
ATOM      1  O   UNL     1      -5.856   0.274   0.521  0.00  0.00    -0.275 OA
ATOM      6  N   UNL     1      -4.052   1.413  -0.388  0.00  0.00    -0.288 N 
ATOM     15  C   UNL     1      -3.494   0.290  -1.126  0.00  0.00    +0.164 C 
ATOM     16  C   UNL     1      -5.242   1.317   0.320  0.00  0.00    +0.219 C 
ATOM     17  C   UNL     1      -2.045   2.210  -1.379  0.00  0.00    +0.094 C 
ATOM     18  C   UNL     1      -3.305   2.644  -0.639  0.00  0.00    +0.131 C 
ATOM     19  C   UNL     1      -2.460   0.905  -2.066  0.00  0.00    +0.055 C 
ENDROOT
BRANCH  17   7
ATOM      3  O   UNL     1       0.735   2.508  -2.006  0.00  0.00    -0.253 OA
ATOM      7  N   UNL     1      -0.934   2.027  -0.479  0.00  0.00    -0.295 N 
ATOM      9  N   UNL     1       1.256   1.950   0.214  0.00  0.00    -0.269 N 
ATOM     22  C   UNL     1       0.402   2.193  -0.866  0.00  0.00    +0.304 C 
ATOM     40  H   UNL     1      -1.125   1.698   0.462  0.00  0.00    +0.151 HD
ATOM     42  H   UNL     1       0.816   1.696   1.095  0.00  0.00    +0.156 HD
BRANCH   9  28
ATOM     28  C   UNL     1       2.669   2.013   0.235  0.00  0.00    +0.035 A 
ATOM     32  C   UNL     1       3.362   1.735   1.414  0.00  0.00    +0.027 A 
ATOM     33  C   UNL     1       3.369   2.350  -0.923  0.00  0.00    +0.027 A 
ATOM     36  C   UNL     1       4.755   1.796   1.434  0.00  0.00    +0.047 A 
ATOM     37  C   UNL     1       4.763   2.410  -0.903  0.00  0.00    +0.047 A 
ATOM     38  C   UNL     1       5.455   2.133   0.276  0.00  0.00    +0.120 A 
BRANCH  38   5
ATOM      5  O   UNL     1       6.815   2.190   0.295  0.00  0.00    -0.495 OA
ATOM     39  C   UNL     1       7.460   1.893   1.532  0.00  0.00    +0.277 C 
ENDBRANCH  38   5
ENDBRANCH   9  28
ENDBRANCH  17   7
BRANCH  15  20
ATOM      2  O   UNL     1      -2.866  -0.445   1.057  0.00  0.00    -0.274 OA
ATOM      8  N   UNL     1      -2.282  -1.747  -0.783  0.00  0.00    -0.302 N 
ATOM     20  C   UNL     1      -2.862  -0.659  -0.153  0.00  0.00    +0.234 C 
ATOM     41  H   UNL     1      -2.416  -1.863  -1.784  0.00  0.00    +0.150 HD
BRANCH   8  21
ATOM     21  C   UNL     1      -1.588  -2.796  -0.071  0.00  0.00    +0.163 C 
BRANCH  21  24
ATOM      4  O   UNL     1      -3.620  -4.104  -0.325  0.00  0.00    -0.274 OA
ATOM     10  N   UNL     1      -2.329  -4.432   1.547  0.00  0.00    -0.328 N 
ATOM     24  C   UNL     1      -2.634  -3.819   0.349  0.00  0.00    +0.231 C 
ATOM     43  H   UNL     1      -1.497  -4.203   2.081  0.00  0.00    +0.145 HD
ATOM     44  H   UNL     1      -2.937  -5.145   1.935  0.00  0.00    +0.145 HD
ENDBRANCH  21  24
BRANCH  21  23
ATOM     23  C   UNL     1      -0.503  -3.459  -0.927  0.00  0.00    +0.069 C 
BRANCH  23  25
ATOM     11  N   UNL     1       2.294  -1.193  -1.674  0.00  0.00    -0.360 N 
ATOM     25  C   UNL     1       0.763  -2.654  -1.002  0.00  0.00    -0.020 A 
ATOM     26  C   UNL     1       1.876  -2.740  -0.121  0.00  0.00    +0.003 A 
ATOM     27  C   UNL     1       1.050  -1.694  -1.946  0.00  0.00    +0.087 A 
ATOM     29  C   UNL     1       2.823  -1.813  -0.564  0.00  0.00    +0.047 A 
ATOM     30  C   UNL     1       2.171  -3.519   1.016  0.00  0.00    +0.010 A 
ATOM     31  C   UNL     1       4.054  -1.627   0.075  0.00  0.00    +0.026 A 
ATOM     34  C   UNL     1       3.398  -3.344   1.665  0.00  0.00    +0.001 A 
ATOM     35  C   UNL     1       4.324  -2.411   1.200  0.00  0.00    +0.002 A 
ATOM     45  H   UNL     1       2.758  -0.472  -2.208  0.00  0.00    +0.165 HD
ENDBRANCH  23  25
ENDBRANCH  21  23
ENDBRANCH   8  21
ENDBRANCH  15  20
BRANCH  16  12
ATOM     12  C   UNL     1      -5.782   2.592   0.884  0.00  0.00    +0.075 C 
ATOM     13  C   UNL     1      -6.667   2.537   2.095  0.00  0.00    +0.013 C 
ATOM     14  C   UNL     1      -5.272   3.078   2.210  0.00  0.00    +0.013 C 
ENDBRANCH  16  12
TORSDOF 9
