REMARK  Name = 51138178
REMARK  9 active torsions:
REMARK  status: ('A' for Active; 'I' for Inactive)
REMARK    1  A    between atoms: O_1  and  C_21
REMARK    2  A    between atoms: N_4  and  C_19
REMARK    3  A    between atoms: N_5  and  C_26
REMARK    4  A    between atoms: C_7  and  C_10
REMARK    5  A    between atoms: C_10  and  C_15
REMARK    6  A    between atoms: CA_12  and  C_21
REMARK    7  A    between atoms: C_15  and  C_22
REMARK    8  A    between atoms: C_15  and  C_23
REMARK    9  A    between atoms: C_19  and  C_24
REMARK                            x       y       z     vdW  Elec       q    Type
REMARK                         _______ _______ _______ _____ _____    ______ ____
ROOT
ATOM      3  N   UNL     1      -2.890   0.382  -0.405  0.00  0.00    -0.297 NA
ATOM      4  N   UNL     1       2.035   0.746   0.650  0.00  0.00    -0.339 N 
ATOM      7  C   UNL     1      -2.552  -0.837   0.342  0.00  0.00    +0.085 C 
ATOM      8  C   UNL     1      -1.062  -1.057   0.625  0.00  0.00    -0.021 A 
ATOM      9  C   UNL     1      -0.053  -0.055   0.533  0.00  0.00    +0.008 A 
ATOM     11  C   UNL     1      -0.060   1.344   0.200  0.00  0.00    -0.020 A 
ATOM     12  CA  UNL     1      -2.574   1.625   0.283  0.00  0.00    +0.168 C 
ATOM     13  C   UNL     1      -1.230   2.192  -0.171  0.00  0.00    +0.067 C 
ATOM     14  C   UNL     1       1.274  -0.384   0.832  0.00  0.00    +0.050 A 
ATOM     16  C   UNL     1       1.243   1.791   0.276  0.00  0.00    +0.091 A 
ATOM     17  C   UNL     1      -0.640  -2.329   1.090  0.00  0.00    +0.006 A 
ATOM     18  C   UNL     1       1.677  -1.656   1.244  0.00  0.00    +0.026 A 
ATOM     20  C   UNL     1       0.690  -2.623   1.381  0.00  0.00    +0.002 A 
ATOM     28  H   UNL     1      -2.479   0.362  -1.338  0.00  0.00    +0.123 HD
ENDROOT
BRANCH  12  21
ATOM      2  OXT UNL     1      -4.263   2.562  -1.169  0.00  0.00    -0.249 OA
ATOM     21  C   UNL     1      -3.664   2.577  -0.104  0.00  0.00    +0.322 C 
BRANCH  21   1
ATOM      1  O   UNL     1      -3.899   3.466   0.891  0.00  0.00    -0.480 OA
ATOM     29  H   UNL     1      -4.610   4.100   0.655  0.00  0.00    +0.295 HD
ENDBRANCH  21   1
ENDBRANCH  12  21
BRANCH   7  10
ATOM     10  C   UNL     1      -3.172  -1.982  -0.479  0.00  0.00    +0.026 C 
BRANCH  10  15
ATOM     15  C   UNL     1      -4.689  -2.093  -0.300  0.00  0.00    -0.015 C 
ATOM     22  C   UNL     1      -5.427  -0.823  -0.727  0.00  0.00    +0.007 C 
ATOM     23  C   UNL     1      -5.207  -3.287  -1.105  0.00  0.00    +0.007 C 
ENDBRANCH  10  15
ENDBRANCH   7  10
BRANCH   4  19
ATOM     19  C   UNL     1       3.467   0.838   0.842  0.00  0.00    +0.196 C 
BRANCH  19  24
ATOM      5  N   UNL     1       5.607   0.049  -0.225  0.00  0.00    -0.336 N 
ATOM      6  N   UNL     1       3.786  -0.049  -1.492  0.00  0.00    -0.239 NA
ATOM     24  C   UNL     1       4.262   0.277  -0.310  0.00  0.00    +0.129 A 
ATOM     25  C   UNL     1       6.015  -0.455  -1.428  0.00  0.00    +0.106 A 
ATOM     26  C   UNL     1       6.457   0.289   0.918  0.00  0.00    +0.150 C 
ATOM     27  C   UNL     1       4.873  -0.506  -2.193  0.00  0.00    +0.130 A 
ENDBRANCH  19  24
ENDBRANCH   4  19
TORSDOF 6
