REMARK  Name = 45784259
REMARK  4 active torsions:
REMARK  status: ('A' for Active; 'I' for Inactive)
REMARK    1  A    between atoms: N_5  and  C_13
REMARK    2  A    between atoms: C_8  and  C_12
REMARK    3  A    between atoms: C_13  and  C_14
REMARK    4  A    between atoms: C_21  and  C_25
REMARK                            x       y       z     vdW  Elec       q    Type
REMARK                         _______ _______ _______ _____ _____    ______ ____
ROOT
ATOM      6  N   UNL     1       1.658   0.171   1.230  0.00  0.00    -0.342 N 
ATOM      7  N   UNL     1       1.315   1.203  -0.708  0.00  0.00    -0.232 NA
ATOM     12  C   UNL     1       0.782   0.869   0.446  0.00  0.00    +0.113 A 
ATOM     15  C   UNL     1       2.834   0.046   0.536  0.00  0.00    +0.067 A 
ATOM     16  C   UNL     1       2.594   0.699  -0.670  0.00  0.00    +0.089 A 
ATOM     17  C   UNL     1       4.050  -0.562   0.849  0.00  0.00    +0.040 A 
ATOM     18  C   UNL     1       3.617   0.758  -1.632  0.00  0.00    +0.030 A 
ATOM     21  C   UNL     1       5.056  -0.494  -0.119  0.00  0.00    +0.057 A 
ATOM     22  C   UNL     1       4.846   0.153  -1.339  0.00  0.00    +0.014 A 
ATOM     27  H   UNL     1       1.475  -0.191   2.157  0.00  0.00    +0.167 HD
ENDROOT
BRANCH  12   8
ATOM      5  N   UNL     1      -2.810   1.532   0.162  0.00  0.00    -0.297 NA
ATOM      8  C   UNL     1      -0.619   1.181   0.919  0.00  0.00    +0.070 C 
ATOM      9  C   UNL     1      -0.956   2.680   0.997  0.00  0.00    +0.028 C 
ATOM     10  C   UNL     1      -1.703   0.585   0.012  0.00  0.00    +0.096 C 
ATOM     11  C   UNL     1      -2.185   2.854   0.114  0.00  0.00    +0.085 C 
BRANCH   5  13
ATOM     13  C   UNL     1      -3.829   1.363  -0.864  0.00  0.00    +0.119 C 
BRANCH  13  14
ATOM      1 CL   UNL     1      -7.630  -3.104   0.472  0.00  0.00    -0.084 Cl
ATOM     14  C   UNL     1      -4.781   0.246  -0.530  0.00  0.00    -0.033 A 
ATOM     19  C   UNL     1      -4.507  -1.054  -0.956  0.00  0.00    +0.006 A 
ATOM     20  C   UNL     1      -5.936   0.510   0.206  0.00  0.00    +0.006 A 
ATOM     23  C   UNL     1      -5.389  -2.090  -0.647  0.00  0.00    +0.020 A 
ATOM     24  C   UNL     1      -6.818  -0.526   0.515  0.00  0.00    +0.020 A 
ATOM     26  C   UNL     1      -6.544  -1.826   0.088  0.00  0.00    +0.041 A 
ENDBRANCH  13  14
ENDBRANCH   5  13
ENDBRANCH  12   8
BRANCH  21  25
ATOM      2  F   UNL     1       7.257  -0.980  -0.878  0.00  0.00    -0.166 F 
ATOM      3  F   UNL     1       7.013  -0.613   1.252  0.00  0.00    -0.166 F 
ATOM      4  F   UNL     1       6.305  -2.471   0.386  0.00  0.00    -0.166 F 
ATOM     25  C   UNL     1       6.381  -1.127   0.157  0.00  0.00    +0.417 C 
ENDBRANCH  21  25
TORSDOF 4
