REMARK  Name = 45784004
REMARK  11 active torsions:
REMARK  status: ('A' for Active; 'I' for Inactive)
REMARK    1  A    between atoms: N_2  and  C_13
REMARK    2  A    between atoms: C_8  and  C_12
REMARK    3  A    between atoms: C_9  and  C_13
REMARK    4  A    between atoms: C_11  and  C_16
REMARK    5  A    between atoms: C_12  and  C_17
REMARK    6  A    between atoms: C_12  and  C_18
REMARK    7  A    between atoms: C_15  and  C_21
REMARK    8  A    between atoms: C_16  and  C_24
REMARK    9  A    between atoms: C_26  and  C_27
REMARK   10  A    between atoms: C_27  and  C_28
REMARK   11  A    between atoms: C_28  and  C_32
REMARK                            x       y       z     vdW  Elec       q    Type
REMARK                         _______ _______ _______ _____ _____    ______ ____
ROOT
ATOM      8  C   UNL     1       0.521  -1.055  -0.747  0.00  0.00    +0.000 C 
ATOM      9  C   UNL     1      -0.095  -2.173   0.126  0.00  0.00    +0.029 C 
ATOM     10  C   UNL     1       1.713  -0.407  -0.028  0.00  0.00    +0.012 C 
ATOM     11  C   UNL     1       2.813  -1.417   0.365  0.00  0.00    +0.024 C 
ATOM     14  C   UNL     1       0.950  -3.054   0.762  0.00  0.00    -0.023 C 
ATOM     15  C   UNL     1       2.254  -2.740   0.868  0.00  0.00    -0.073 C 
ATOM     21  C   UNL     1       3.228  -3.731   1.445  0.00  0.00    +0.039 C 
ENDROOT
BRANCH   8  12
ATOM     12  C   UNL     1       0.928  -1.585  -2.129  0.00  0.00    -0.013 C 
ATOM     17  C   UNL     1      -0.260  -2.255  -2.812  0.00  0.00    +0.007 C 
ATOM     18  C   UNL     1       1.480  -0.454  -2.991  0.00  0.00    +0.007 C 
ENDBRANCH   8  12
BRANCH   9  13
ATOM     13  C   UNL     1      -1.005  -1.601   1.218  0.00  0.00    +0.092 C 
BRANCH  13   2
ATOM      2  N   UNL     1      -2.048  -0.759   0.632  0.00  0.00    -0.299 NA
ATOM      3  N   UNL     1      -4.681   0.311   0.348  0.00  0.00    -0.297 N 
ATOM      6  N   UNL     1      -6.595   0.444  -0.984  0.00  0.00    -0.223 NA
ATOM      7  N   UNL     1      -6.342   1.829   0.972  0.00  0.00    -0.223 NA
ATOM     19  C   UNL     1      -2.586   0.166   1.636  0.00  0.00    +0.103 C 
ATOM     20  C   UNL     1      -3.131  -1.587   0.085  0.00  0.00    +0.103 C 
ATOM     22  C   UNL     1      -3.640   1.092   1.022  0.00  0.00    +0.123 C 
ATOM     23  C   UNL     1      -4.201  -0.719  -0.582  0.00  0.00    +0.123 C 
ATOM     25  C   UNL     1      -5.931   0.888   0.101  0.00  0.00    +0.218 A 
ATOM     29  C   UNL     1      -7.796   1.022  -1.192  0.00  0.00    +0.116 A 
ATOM     30  C   UNL     1      -7.551   2.365   0.703  0.00  0.00    +0.116 A 
ATOM     31  C   UNL     1      -8.330   1.997  -0.375  0.00  0.00    +0.039 A 
ENDBRANCH  13   2
ENDBRANCH   9  13
BRANCH  11  16
ATOM     16  C   UNL     1       3.756  -0.747   1.372  0.00  0.00    +0.105 C 
BRANCH  16  24
ATOM      1  O   UNL     1       5.275   0.475  -0.095  0.00  0.00    -0.425 OA
ATOM      4  N   UNL     1       3.950   1.784   1.145  0.00  0.00    -0.112 NA
ATOM      5  N   UNL     1       4.750   2.600   0.368  0.00  0.00    -0.112 NA
ATOM     24  C   UNL     1       4.290   0.553   0.842  0.00  0.00    +0.218 A 
ATOM     26  C   UNL     1       5.507   1.794  -0.339  0.00  0.00    +0.217 A 
BRANCH  26  27
ATOM     27  C   UNL     1       6.540   2.113  -1.333  0.00  0.00    +0.097 C 
BRANCH  27  28
ATOM     28  C   UNL     1       7.975   1.958  -0.784  0.00  0.00    +0.006 C 
ATOM     32  C   UNL     1       8.263   2.892   0.381  0.00  0.00    +0.004 C 
ENDBRANCH  27  28
ENDBRANCH  26  27
ENDBRANCH  16  24
ENDBRANCH  11  16
TORSDOF 7
