REMARK  Name = 38026924
REMARK  10 active torsions:
REMARK  status: ('A' for Active; 'I' for Inactive)
REMARK    1  A    between atoms: N_5  and  C_15
REMARK    2  A    between atoms: C_7  and  C_11
REMARK    3  A    between atoms: C_8  and  C_15
REMARK    4  A    between atoms: C_10  and  C_14
REMARK    5  A    between atoms: C_11  and  C_16
REMARK    6  A    between atoms: C_11  and  C_17
REMARK    7  A    between atoms: C_12  and  C_18
REMARK    8  A    between atoms: C_14  and  C_19
REMARK    9  A    between atoms: C_24  and  C_26
REMARK   10  A    between atoms: C_25  and  C_27
REMARK                            x       y       z     vdW  Elec       q    Type
REMARK                         _______ _______ _______ _____ _____    ______ ____
ROOT
ATOM      7  C   UNL     1      -2.837  -0.572  -0.642  0.00  0.00    +0.000 C 
ATOM      8  C   UNL     1      -3.844  -0.369   0.517  0.00  0.00    +0.032 C 
ATOM      9  C   UNL     1      -1.942  -1.790  -0.368  0.00  0.00    +0.012 C 
ATOM     10  C   UNL     1      -1.151  -1.648   0.946  0.00  0.00    +0.023 C 
ATOM     12  C   UNL     1      -2.034  -1.187   2.087  0.00  0.00    -0.073 C 
ATOM     13  C   UNL     1      -3.240  -0.630   1.877  0.00  0.00    -0.022 C 
ATOM     18  C   UNL     1      -1.518  -1.423   3.480  0.00  0.00    +0.039 C 
ENDROOT
BRANCH   7  11
ATOM     11  C   UNL     1      -3.547  -0.742  -1.989  0.00  0.00    -0.013 C 
ATOM     16  C   UNL     1      -2.620  -0.344  -3.133  0.00  0.00    +0.007 C 
ATOM     17  C   UNL     1      -4.029  -2.179  -2.158  0.00  0.00    +0.007 C 
ENDBRANCH   7  11
BRANCH  10  14
ATOM     14  C   UNL     1       0.051  -0.713   0.769  0.00  0.00    +0.103 C 
BRANCH  14  19
ATOM      1  O   UNL     1       0.963  -2.581  -0.369  0.00  0.00    -0.276 OA
ATOM      3  O   UNL     1       6.245   2.204   0.169  0.00  0.00    -0.276 OA
ATOM      4  N   UNL     1       2.298  -0.685  -0.252  0.00  0.00    -0.298 N 
ATOM      6  N   UNL     1       4.935   0.287   0.110  0.00  0.00    -0.299 N 
ATOM     19  C   UNL     1       1.139  -1.416  -0.002  0.00  0.00    +0.216 C 
ATOM     20  C   UNL     1       3.404  -1.297  -0.993  0.00  0.00    +0.126 C 
ATOM     21  C   UNL     1       2.509   0.725   0.105  0.00  0.00    +0.126 C 
ATOM     22  C   UNL     1       4.724  -1.122  -0.246  0.00  0.00    +0.126 C 
ATOM     23  C   UNL     1       3.829   0.899   0.851  0.00  0.00    +0.126 C 
ATOM     25  C   UNL     1       6.093   1.020  -0.141  0.00  0.00    +0.213 C 
ATOM     27  C   UNL     1       7.213   0.292  -0.842  0.00  0.00    +0.109 C 
ENDBRANCH  14  19
ENDBRANCH  10  14
BRANCH   8  15
ATOM     15  C   UNL     1      -4.445   1.041   0.488  0.00  0.00    +0.112 C 
BRANCH  15   5
ATOM      2  O   UNL     1      -3.614   3.212  -1.251  0.00  0.00    -0.276 OA
ATOM      5  N   UNL     1      -3.443   2.026   0.747  0.00  0.00    -0.315 N 
ATOM     24  C   UNL     1      -3.104   3.039  -0.147  0.00  0.00    +0.210 C 
ATOM     26  C   UNL     1      -2.035   3.954   0.386  0.00  0.00    +0.109 C 
ATOM     28  H   UNL     1      -2.996   2.022   1.660  0.00  0.00    +0.149 HD
ENDBRANCH  15   5
ENDBRANCH   8  15
TORSDOF 5
