REMARK  Name = 44716116
REMARK  7 active torsions:
REMARK  status: ('A' for Active; 'I' for Inactive)
REMARK    1  A    between atoms: O_2  and  C_25
REMARK    2  A    between atoms: O_2  and  C_26
REMARK    3  A    between atoms: N_4  and  C_17
REMARK    4  A    between atoms: N_5  and  C_15
REMARK    5  A    between atoms: C_9  and  C_16
REMARK    6  A    between atoms: C_10  and  C_15
REMARK    7  A    between atoms: C_24  and  C_25
REMARK                            x       y       z     vdW  Elec       q    Type
REMARK                         _______ _______ _______ _____ _____    ______ ____
ROOT
ATOM      3  N   UNL     1      -0.360   2.608   1.099  0.00  0.00    -0.297 NA
ATOM      8  C   UNL     1      -0.434   2.228  -1.474  0.00  0.00    +0.005 C 
ATOM      9  C   UNL     1      -1.707   1.690  -0.794  0.00  0.00    +0.092 C 
ATOM     10  C   UNL     1       0.881   1.923   0.652  0.00  0.00    +0.078 C 
ATOM     11  C   UNL     1       0.798   1.549  -0.844  0.00  0.00    +0.025 C 
ATOM     12  C   UNL     1      -0.352   3.728  -1.137  0.00  0.00    +0.020 C 
ATOM     13  C   UNL     1      -1.552   1.804   0.733  0.00  0.00    +0.097 C 
ATOM     14  C   UNL     1      -0.444   3.909   0.389  0.00  0.00    +0.085 C 
ENDROOT
BRANCH   9  16
ATOM      1  O   UNL     1      -1.274  -0.336  -1.983  0.00  0.00    -0.275 OA
ATOM      4  N   UNL     1      -3.174  -0.199  -0.645  0.00  0.00    -0.312 N 
ATOM     16  C   UNL     1      -2.004   0.279  -1.210  0.00  0.00    +0.218 C 
ATOM     27  H   UNL     1      -3.677   0.391   0.011  0.00  0.00    +0.149 HD
BRANCH   4  17
ATOM     17  C   UNL     1      -3.694  -1.523  -0.904  0.00  0.00    +0.073 C 
ATOM     18  C   UNL     1      -5.226  -1.532  -0.861  0.00  0.00    +0.022 C 
ATOM     19  C   UNL     1      -3.105  -2.547   0.073  0.00  0.00    +0.022 C 
ATOM     20  C   UNL     1      -5.772  -1.373   0.558  0.00  0.00    +0.002 C 
ATOM     21  C   UNL     1      -3.655  -2.387   1.490  0.00  0.00    +0.002 C 
ATOM     22  C   UNL     1      -5.181  -2.409   1.508  0.00  0.00    +0.000 C 
ENDBRANCH   4  17
ENDBRANCH   9  16
BRANCH  10  15
ATOM     15  C   UNL     1       1.226   0.713   1.523  0.00  0.00    +0.164 C 
BRANCH  15   5
ATOM      5  N   UNL     1       2.573   0.147   1.171  0.00  0.00    -0.250 N 
ATOM      6  N   UNL     1       3.678   0.908   1.241  0.00  0.00    -0.065 NA
ATOM      7  N   UNL     1       4.704   0.149   0.872  0.00  0.00    -0.132 NA
ATOM     23  C   UNL     1       2.861  -1.117   0.757  0.00  0.00    +0.136 A 
ATOM     24  C   UNL     1       4.220  -1.095   0.572  0.00  0.00    +0.108 A 
BRANCH  24  25
ATOM     25  C   UNL     1       5.112  -2.172   0.127  0.00  0.00    +0.218 C 
BRANCH  25   2
ATOM      2  O   UNL     1       5.510  -1.957  -1.230  0.00  0.00    -0.377 OA
ATOM     26  C   UNL     1       6.373  -2.988  -1.681  0.00  0.00    +0.194 C 
ENDBRANCH  25   2
ENDBRANCH  24  25
ENDBRANCH  15   5
ENDBRANCH  10  15
TORSDOF 6
