REMARK  Name = 11865896
REMARK  4 active torsions:
REMARK  status: ('A' for Active; 'I' for Inactive)
REMARK    1  A    between atoms: N_9  and  C_13
REMARK    2  A    between atoms: C_19  and  C_23
REMARK    3  A    between atoms: C_24  and  C_25
REMARK    4  A    between atoms: C_25  and  C_26
REMARK                            x       y       z     vdW  Elec       q    Type
REMARK                         _______ _______ _______ _____ _____    ______ ____
ROOT
ATOM      2  O   UNL     1       0.432  -0.093   1.523  0.00  0.00    -0.273 OA
ATOM      3  O   UNL     1      -3.249  -3.677  -1.003  0.00  0.00    -0.274 OA
ATOM      5  O   UNL     1       2.300   0.196  -1.307  0.00  0.00    -0.275 OA
ATOM      6  N   UNL     1      -1.573  -0.905   0.679  0.00  0.00    -0.287 N 
ATOM      7  N   UNL     1       1.966  -1.742  -0.087  0.00  0.00    -0.288 N 
ATOM      8  N   UNL     1      -1.073  -3.703  -0.393  0.00  0.00    -0.309 N 
ATOM     10  C   UNL     1       0.510  -1.780  -0.203  0.00  0.00    +0.182 C 
ATOM     11  C   UNL     1      -2.340  -1.532  -0.402  0.00  0.00    +0.164 C 
ATOM     12  C   UNL     1       0.121  -3.192   0.245  0.00  0.00    +0.104 C 
ATOM     13  C   UNL     1      -3.646   0.210   0.662  0.00  0.00    +0.092 C 
ATOM     14  C   UNL     1      -3.790  -1.084  -0.132  0.00  0.00    +0.055 C 
ATOM     15  C   UNL     1      -2.423  -0.072   1.522  0.00  0.00    +0.131 C 
ATOM     16  C   UNL     1       1.370  -4.012  -0.065  0.00  0.00    +0.043 C 
ATOM     17  C   UNL     1      -0.186  -0.823   0.748  0.00  0.00    +0.239 C 
ATOM     18  C   UNL     1       2.492  -3.050   0.294  0.00  0.00    +0.110 C 
ATOM     20  C   UNL     1      -2.277  -3.057  -0.553  0.00  0.00    +0.234 C 
ATOM     24  C   UNL     1       2.716  -0.660  -0.524  0.00  0.00    +0.221 C 
ATOM     30  H   UNL     1      -1.091  -4.704  -0.564  0.00  0.00    +0.149 HD
ENDROOT
BRANCH  13   9
ATOM      4  O   UNL     1      -4.316   2.993   1.179  0.00  0.00    -0.276 OA
ATOM      9  N   UNL     1      -3.432   1.343  -0.206  0.00  0.00    -0.311 N 
ATOM     23  C   UNL     1      -3.788   2.636   0.133  0.00  0.00    +0.216 C 
ATOM     31  H   UNL     1      -2.971   1.181  -1.097  0.00  0.00    +0.149 HD
BRANCH  23  19
ATOM     19  C   UNL     1      -3.473   3.651  -0.916  0.00  0.00    +0.075 C 
ATOM     21  C   UNL     1      -2.634   4.823  -0.538  0.00  0.00    +0.013 C 
ATOM     22  C   UNL     1      -2.072   3.743  -1.415  0.00  0.00    +0.013 C 
ENDBRANCH  23  19
ENDBRANCH  13   9
BRANCH  24  25
ATOM     25  C   UNL     1       4.117  -0.567   0.027  0.00  0.00    +0.138 C 
BRANCH  25  26
ATOM      1  S   UNL     1       5.805   1.460  -0.781  0.00  0.00    -0.101 S 
ATOM     26  C   UNL     1       4.481   0.880   0.122  0.00  0.00    -0.001 A 
ATOM     27  C   UNL     1       3.874   1.853   0.868  0.00  0.00    +0.011 A 
ATOM     28  C   UNL     1       4.511   3.116   0.697  0.00  0.00    +0.008 A 
ATOM     29  C   UNL     1       5.576   3.045  -0.174  0.00  0.00    +0.045 A 
ENDBRANCH  25  26
ENDBRANCH  24  25
TORSDOF 4
