REMARK  Name = 38029071
REMARK  12 active torsions:
REMARK  status: ('A' for Active; 'I' for Inactive)
REMARK    1  A    between atoms: O_3  and  C_32
REMARK    2  A    between atoms: N_5  and  C_17
REMARK    3  A    between atoms: C_9  and  C_13
REMARK    4  A    between atoms: C_10  and  C_17
REMARK    5  A    between atoms: C_12  and  C_16
REMARK    6  A    between atoms: C_13  and  C_18
REMARK    7  A    between atoms: C_13  and  C_19
REMARK    8  A    between atoms: C_14  and  C_20
REMARK    9  A    between atoms: C_16  and  C_21
REMARK   10  A    between atoms: C_26  and  C_27
REMARK   11  A    between atoms: C_27  and  C_29
REMARK   12  A    between atoms: C_29  and  C_32
REMARK                            x       y       z     vdW  Elec       q    Type
REMARK                         _______ _______ _______ _____ _____    ______ ____
ROOT
ATOM      9  C   UNL     1      -3.509   1.013   0.848  0.00  0.00    +0.000 C 
ATOM     10  C   UNL     1      -4.646   0.663  -0.144  0.00  0.00    +0.032 C 
ATOM     11  C   UNL     1      -2.884   2.370   0.489  0.00  0.00    +0.012 C 
ATOM     12  C   UNL     1      -2.309   2.387  -0.939  0.00  0.00    +0.023 C 
ATOM     14  C   UNL     1      -3.280   1.803  -1.945  0.00  0.00    -0.073 C 
ATOM     15  C   UNL     1      -4.326   1.046  -1.570  0.00  0.00    -0.022 C 
ATOM     20  C   UNL     1      -3.047   2.146  -3.390  0.00  0.00    +0.039 C 
ENDROOT
BRANCH   9  13
ATOM     13  C   UNL     1      -4.005   1.038   2.297  0.00  0.00    -0.013 C 
ATOM     18  C   UNL     1      -2.850   0.783   3.260  0.00  0.00    +0.007 C 
ATOM     19  C   UNL     1      -4.683   2.369   2.605  0.00  0.00    +0.007 C 
ENDBRANCH   9  13
BRANCH  12  16
ATOM     16  C   UNL     1      -0.957   1.667  -0.999  0.00  0.00    +0.103 C 
BRANCH  16  21
ATOM      1  O   UNL     1      -0.181   3.644   0.062  0.00  0.00    -0.276 OA
ATOM      6  N   UNL     1       1.401   1.995  -0.355  0.00  0.00    -0.298 N 
ATOM      7  N   UNL     1       4.063   0.895  -0.056  0.00  0.00    -0.312 N 
ATOM      8  N   UNL     1       6.029  -0.035  -0.977  0.00  0.00    -0.240 NA
ATOM     21  C   UNL     1       0.114   2.531  -0.380  0.00  0.00    +0.216 C 
ATOM     22  C   UNL     1       2.494   2.772   0.223  0.00  0.00    +0.126 C 
ATOM     23  C   UNL     1       1.748   0.668  -0.871  0.00  0.00    +0.126 C 
ATOM     24  C   UNL     1       3.538   1.881   0.893  0.00  0.00    +0.125 C 
ATOM     25  C   UNL     1       3.233   0.534  -1.208  0.00  0.00    +0.125 C 
ATOM     28  C   UNL     1       5.331   0.347   0.117  0.00  0.00    +0.121 A 
ATOM     30  C   UNL     1       5.798   0.228   1.416  0.00  0.00    +0.043 A 
ATOM     31  C   UNL     1       7.063  -0.318   1.605  0.00  0.00    +0.005 A 
ATOM     33  C   UNL     1       7.254  -0.561  -0.754  0.00  0.00    +0.113 A 
ATOM     34  C   UNL     1       7.811  -0.723   0.504  0.00  0.00    +0.020 A 
ENDBRANCH  16  21
ENDBRANCH  12  16
BRANCH  10  17
ATOM     17  C   UNL     1      -4.995  -0.829  -0.081  0.00  0.00    +0.112 C 
BRANCH  17   5
ATOM      2  O   UNL     1      -3.553  -2.848   1.406  0.00  0.00    -0.276 OA
ATOM      5  N   UNL     1      -3.901  -1.625  -0.541  0.00  0.00    -0.315 N 
ATOM     26  C   UNL     1      -3.257  -2.583   0.244  0.00  0.00    +0.214 C 
ATOM     35  H   UNL     1      -3.611  -1.525  -1.510  0.00  0.00    +0.149 HD
BRANCH  26  27
ATOM     27  C   UNL     1      -2.131  -3.272  -0.504  0.00  0.00    +0.107 C 
BRANCH  27  29
ATOM     29  C   UNL     1      -1.422  -4.321   0.347  0.00  0.00    +0.129 C 
BRANCH  29  32
ATOM      4  O   UNL     1       0.016  -4.765  -1.566  0.00  0.00    -0.251 OA
ATOM     32  C   UNL     1      -0.298  -4.994  -0.407  0.00  0.00    +0.305 C 
BRANCH  32   3
ATOM      3  O   UNL     1       0.342  -5.908   0.369  0.00  0.00    -0.481 OA
ATOM     36  H   UNL     1       1.073  -6.349  -0.114  0.00  0.00    +0.295 HD
ENDBRANCH  32   3
ENDBRANCH  29  32
ENDBRANCH  27  29
ENDBRANCH  26  27
ENDBRANCH  17   5
ENDBRANCH  10  17
TORSDOF 9
