REMARK  Name = 75537144
REMARK  8 active torsions:
REMARK  status: ('A' for Active; 'I' for Inactive)
REMARK    1  A    between atoms: S_1  and  C_23
REMARK    2  A    between atoms: S_1  and  C_25
REMARK    3  A    between atoms: O_3  and  C_18
REMARK    4  A    between atoms: O_3  and  C_24
REMARK    5  A    between atoms: N_7  and  C_15
REMARK    6  A    between atoms: N_8  and  C_16
REMARK    7  A    between atoms: C_15  and  C_17
REMARK    8  A    between atoms: C_16  and  C_18
REMARK                            x       y       z     vdW  Elec       q    Type
REMARK                         _______ _______ _______ _____ _____    ______ ____
ROOT
ATOM      2  O   UNL     1       4.992   1.276  -1.018  0.00  0.00    -0.252 OA
ATOM      6  N   UNL     1       2.668   1.056  -0.753  0.00  0.00    -0.278 N 
ATOM      7  N   UNL     1       0.090   1.501   0.280  0.00  0.00    -0.295 NA
ATOM      8  N   UNL     1       3.893  -0.812  -0.984  0.00  0.00    -0.281 N 
ATOM      9  C   UNL     1       1.693  -0.013  -0.814  0.00  0.00    +0.109 C 
ATOM     10  C   UNL     1       0.665   0.141   0.307  0.00  0.00    +0.109 C 
ATOM     11  C   UNL     1       2.541  -1.281  -0.738  0.00  0.00    +0.133 C 
ATOM     12  C   UNL     1       2.212   2.425  -0.627  0.00  0.00    +0.125 C 
ATOM     13  C   UNL     1       1.142   2.521   0.463  0.00  0.00    +0.104 C 
ATOM     14  C   UNL     1       3.978   0.594  -0.934  0.00  0.00    +0.305 C 
ENDROOT
BRANCH   7  15
ATOM     15  C   UNL     1      -0.939   1.639   1.311  0.00  0.00    +0.119 C 
BRANCH  15  17
ATOM     17  C   UNL     1      -2.230   0.979   0.906  0.00  0.00    -0.033 A 
ATOM     19  C   UNL     1      -3.069   1.597  -0.021  0.00  0.00    +0.007 A 
ATOM     20  C   UNL     1      -2.587  -0.251   1.459  0.00  0.00    +0.007 A 
ATOM     21  C   UNL     1      -4.265   0.985  -0.396  0.00  0.00    +0.027 A 
ATOM     22  C   UNL     1      -3.783  -0.863   1.084  0.00  0.00    +0.027 A 
ATOM     23  C   UNL     1      -4.622  -0.245   0.157  0.00  0.00    +0.088 A 
BRANCH  23   1
ATOM      1  S   UNL     1      -6.118  -1.012  -0.316  0.00  0.00    -0.006 S 
ATOM      4  O   UNL     1      -6.538  -1.919   0.744  0.00  0.00    -0.170 OA
ATOM      5  O   UNL     1      -7.026   0.026  -0.781  0.00  0.00    -0.170 OA
ATOM     25  C   UNL     1      -5.676  -2.019  -1.714  0.00  0.00    +0.200 C 
ENDBRANCH  23   1
ENDBRANCH  15  17
ENDBRANCH   7  15
BRANCH   8  16
ATOM     16  C   UNL     1       5.010  -1.722  -1.106  0.00  0.00    +0.137 C 
BRANCH  16  18
ATOM     18  C   UNL     1       5.520  -2.167   0.253  0.00  0.00    +0.178 C 
BRANCH  18   3
ATOM      3  O   UNL     1       5.978  -1.034   0.979  0.00  0.00    -0.381 OA
ATOM     24  C   UNL     1       6.471  -1.400   2.260  0.00  0.00    +0.194 C 
ENDBRANCH  18   3
ENDBRANCH  16  18
ENDBRANCH   8  16
TORSDOF 6
