REMARK  Name = 75368570
REMARK  4 active torsions:
REMARK  status: ('A' for Active; 'I' for Inactive)
REMARK    1  A    between atoms: N_4  and  C_14
REMARK    2  A    between atoms: N_7  and  C_24
REMARK    3  A    between atoms: C_14  and  C_16
REMARK    4  A    between atoms: C_26  and  C_27
REMARK                            x       y       z     vdW  Elec       q    Type
REMARK                         _______ _______ _______ _____ _____    ______ ____
ROOT
ATOM      1  O   UNL     1      -4.316  -2.064  -0.798  0.00  0.00    -0.252 OA
ATOM      3  N   UNL     1      -2.067  -1.521  -0.513  0.00  0.00    -0.278 N 
ATOM      4  N   UNL     1       0.627  -1.805   0.246  0.00  0.00    -0.295 NA
ATOM      5  N   UNL     1      -3.580   0.132  -0.194  0.00  0.00    -0.238 N 
ATOM      6  N   UNL     1      -5.960   0.244  -0.343  0.00  0.00    -0.240 NA
ATOM      8  C   UNL     1      -1.267  -0.339  -0.314  0.00  0.00    +0.109 C 
ATOM      9  C   UNL     1      -0.135  -0.615   0.675  0.00  0.00    +0.109 C 
ATOM     10  C   UNL     1      -2.281   0.702   0.145  0.00  0.00    +0.140 C 
ATOM     11  C   UNL     1      -1.408  -2.781  -0.791  0.00  0.00    +0.125 C 
ATOM     12  C   UNL     1      -0.246  -2.993   0.182  0.00  0.00    +0.104 C 
ATOM     13  C   UNL     1      -3.443  -1.245  -0.540  0.00  0.00    +0.311 C 
ATOM     15  C   UNL     1      -4.791   0.876  -0.092  0.00  0.00    +0.129 A 
ATOM     17  C   UNL     1      -4.693   2.212   0.262  0.00  0.00    +0.044 A 
ATOM     20  C   UNL     1      -5.869   2.946   0.364  0.00  0.00    +0.005 A 
ATOM     23  C   UNL     1      -7.082   0.990  -0.233  0.00  0.00    +0.113 A 
ATOM     25  C   UNL     1      -7.090   2.331   0.114  0.00  0.00    +0.020 A 
ENDROOT
BRANCH   4  14
ATOM     14  C   UNL     1       1.750  -2.045   1.153  0.00  0.00    +0.119 C 
BRANCH  14  16
ATOM     16  C   UNL     1       2.892  -1.099   0.894  0.00  0.00    -0.033 A 
ATOM     18  C   UNL     1       3.114  -0.021   1.751  0.00  0.00    +0.007 A 
ATOM     19  C   UNL     1       3.729  -1.300  -0.204  0.00  0.00    +0.007 A 
ATOM     21  C   UNL     1       4.173   0.855   1.511  0.00  0.00    +0.023 A 
ATOM     22  C   UNL     1       4.788  -0.424  -0.444  0.00  0.00    +0.023 A 
ATOM     24  C   UNL     1       5.010   0.653   0.413  0.00  0.00    +0.033 A 
BRANCH  24   7
ATOM      2  O   UNL     1       7.075   0.670  -1.778  0.00  0.00    -0.276 OA
ATOM      7  N   UNL     1       6.069   1.529   0.174  0.00  0.00    -0.286 N 
ATOM     26  C   UNL     1       7.006   1.489  -0.867  0.00  0.00    +0.214 C 
ATOM     27  C   UNL     1       7.996   2.623  -0.771  0.00  0.00    +0.109 C 
ATOM     28  H   UNL     1       6.164   2.289   0.844  0.00  0.00    +0.155 HD
ENDBRANCH  24   7
ENDBRANCH  14  16
ENDBRANCH   4  14
TORSDOF 3
