REMARK  Name = 75536949
REMARK  5 active torsions:
REMARK  status: ('A' for Active; 'I' for Inactive)
REMARK    1  A    between atoms: O_5  and  C_9
REMARK    2  A    between atoms: O_6  and  C_19
REMARK    3  A    between atoms: O_6  and  C_20
REMARK    4  A    between atoms: N_7  and  C_11
REMARK    5  A    between atoms: C_11  and  C_14
REMARK                            x       y       z     vdW  Elec       q    Type
REMARK                         _______ _______ _______ _____ _____    ______ ____
ROOT
ATOM     14  C   UNL     1      -0.038  -1.413   0.083  0.00  0.00    -0.033 A 
ATOM     15  C   UNL     1      -0.886  -1.774   1.130  0.00  0.00    +0.008 A 
ATOM     16  C   UNL     1      -0.547  -0.736  -1.025  0.00  0.00    +0.008 A 
ATOM     17  C   UNL     1      -2.243  -1.459   1.068  0.00  0.00    +0.046 A 
ATOM     18  C   UNL     1      -1.904  -0.420  -1.087  0.00  0.00    +0.046 A 
ATOM     19  C   UNL     1      -2.753  -0.782  -0.040  0.00  0.00    +0.130 A 
ENDROOT
BRANCH  19   6
ATOM      6  O   UNL     1      -4.077  -0.474  -0.100  0.00  0.00    -0.406 OA
BRANCH   6  20
ATOM      1  F   UNL     1      -4.591   1.268  -1.490  0.00  0.00    -0.133 F 
ATOM      2  F   UNL     1      -5.635   1.075   0.420  0.00  0.00    -0.133 F 
ATOM      3  F   UNL     1      -3.538   1.690   0.406  0.00  0.00    -0.133 F 
ATOM     20  C   UNL     1      -4.446   0.897  -0.200  0.00  0.00    +0.575 C 
ENDBRANCH   6  20
ENDBRANCH  19   6
BRANCH  14  11
ATOM     11  C   UNL     1       1.427  -1.752   0.149  0.00  0.00    +0.119 C 
BRANCH  11   7
ATOM      4  O   UNL     1       3.829   2.037   0.813  0.00  0.00    -0.376 OA
ATOM      7  N   UNL     1       2.268  -0.557   0.065  0.00  0.00    -0.293 NA
ATOM      8  C   UNL     1       3.569  -0.896  -0.523  0.00  0.00    +0.118 C 
ATOM      9  C   UNL     1       4.720   0.106  -0.344  0.00  0.00    +0.154 C 
ATOM     10  C   UNL     1       2.349   0.133   1.353  0.00  0.00    +0.113 C 
ATOM     12  C   UNL     1       4.302   1.567  -0.445  0.00  0.00    +0.192 C 
ATOM     13  C   UNL     1       2.503   1.638   1.130  0.00  0.00    +0.175 C 
BRANCH   9   5
ATOM      5  O   UNL     1       5.690  -0.146  -1.362  0.00  0.00    -0.388 OA
ATOM     21  H   UNL     1       5.979  -1.070  -1.268  0.00  0.00    +0.210 HD
ENDBRANCH   9   5
ENDBRANCH  11   7
ENDBRANCH  14  11
TORSDOF 5
