REMARK  Name = 75536104
REMARK  10 active torsions:
REMARK  status: ('A' for Active; 'I' for Inactive)
REMARK    1  A    between atoms: O_1  and  C_8
REMARK    2  A    between atoms: O_2  and  C_10
REMARK    3  A    between atoms: O_3  and  C_18
REMARK    4  A    between atoms: O_3  and  C_24
REMARK    5  A    between atoms: O_4  and  C_21
REMARK    6  A    between atoms: O_4  and  C_25
REMARK    7  A    between atoms: N_5  and  C_6
REMARK    8  A    between atoms: N_5  and  C_12
REMARK    9  A    between atoms: C_7  and  C_11
REMARK   10  A    between atoms: C_12  and  C_15
REMARK                            x       y       z     vdW  Elec       q    Type
REMARK                         _______ _______ _______ _____ _____    ______ ____
ROOT
ATOM      6  C   UNL     1       0.522   1.446  -0.633  0.00  0.00    +0.092 C 
ATOM      7  C   UNL     1       1.188   0.978   0.698  0.00  0.00    +0.041 C 
ATOM      8  C   UNL     1       0.790   2.958  -0.707  0.00  0.00    +0.160 C 
ATOM      9  C   UNL     1       1.792   2.245   1.334  0.00  0.00    +0.043 C 
ATOM     10  C   UNL     1       0.953   3.374   0.752  0.00  0.00    +0.145 C 
ENDROOT
BRANCH   7  11
ATOM     11  C   UNL     1       2.193  -0.140   0.525  0.00  0.00    -0.042 A 
ATOM     13  C   UNL     1       3.303   0.042  -0.300  0.00  0.00    +0.007 A 
ATOM     14  C   UNL     1       2.010  -1.352   1.191  0.00  0.00    +0.007 A 
ATOM     16  C   UNL     1       4.230  -0.988  -0.460  0.00  0.00    +0.046 A 
ATOM     17  C   UNL     1       2.937  -2.382   1.031  0.00  0.00    +0.046 A 
ATOM     18  C   UNL     1       4.047  -2.200   0.206  0.00  0.00    +0.120 A 
BRANCH  18   3
ATOM      3  O   UNL     1       4.951  -3.205   0.050  0.00  0.00    -0.495 OA
ATOM     24  C   UNL     1       6.062  -2.952  -0.808  0.00  0.00    +0.277 C 
ENDBRANCH  18   3
ENDBRANCH   7  11
BRANCH   8   1
ATOM      1  O   UNL     1       2.002   3.165  -1.430  0.00  0.00    -0.388 OA
ATOM     27  H   UNL     1       1.850   2.872  -2.344  0.00  0.00    +0.210 HD
ENDBRANCH   8   1
BRANCH  10   2
ATOM      2  O   UNL     1       1.599   4.623   0.893  0.00  0.00    -0.389 OA
ATOM     28  H   UNL     1       1.746   4.771   1.843  0.00  0.00    +0.210 HD
ENDBRANCH  10   2
BRANCH   6   5
ATOM      5  N   UNL     1      -0.920   1.198  -0.574  0.00  0.00    -0.306 NA
ATOM     26  H   UNL     1      -1.389   1.774  -1.274  0.00  0.00    +0.123 HD
BRANCH   5  12
ATOM     12  C   UNL     1      -1.218  -0.200  -0.848  0.00  0.00    +0.116 C 
BRANCH  12  15
ATOM     15  C   UNL     1      -2.696  -0.482  -0.783  0.00  0.00    -0.030 A 
ATOM     19  C   UNL     1      -3.334  -0.583   0.453  0.00  0.00    +0.050 A 
ATOM     20  C   UNL     1      -3.427  -0.641  -1.961  0.00  0.00    +0.005 A 
ATOM     21  C   UNL     1      -4.703  -0.844   0.512  0.00  0.00    +0.120 A 
ATOM     22  C   UNL     1      -4.796  -0.902  -1.901  0.00  0.00    +0.004 A 
ATOM     23  C   UNL     1      -5.434  -1.004  -0.665  0.00  0.00    +0.045 A 
BRANCH  21   4
ATOM      4  O   UNL     1      -5.325  -0.943   1.719  0.00  0.00    -0.495 OA
ATOM     25  C   UNL     1      -6.726  -1.212   1.707  0.00  0.00    +0.277 C 
ENDBRANCH  21   4
ENDBRANCH  12  15
ENDBRANCH   5  12
ENDBRANCH   6   5
TORSDOF 8
