REMARK  Name = 51137144
REMARK  7 active torsions:
REMARK  status: ('A' for Active; 'I' for Inactive)
REMARK    1  A    between atoms: S_1  and  C_22
REMARK    2  A    between atoms: S_1  and  C_28
REMARK    3  A    between atoms: N_8  and  C_14
REMARK    4  A    between atoms: C_10  and  C_15
REMARK    5  A    between atoms: C_14  and  C_16
REMARK    6  A    between atoms: C_27  and  C_29
REMARK    7  A    between atoms: C_28  and  C_30
REMARK                            x       y       z     vdW  Elec       q    Type
REMARK                         _______ _______ _______ _____ _____    ______ ____
ROOT
ATOM      8  N   UNL     1      -1.941  -0.413  -0.256  0.00  0.00    -0.297 NA
ATOM     10  C   UNL     1       0.166  -1.175   0.435  0.00  0.00    +0.090 C 
ATOM     11  C   UNL     1      -0.500  -0.395   1.582  0.00  0.00    +0.029 C 
ATOM     12  C   UNL     1      -0.642  -0.798  -0.813  0.00  0.00    +0.097 C 
ATOM     13  C   UNL     1      -1.622   0.396   0.921  0.00  0.00    +0.085 C 
ENDROOT
BRANCH  10  15
ATOM      5  O   UNL     1       2.453  -2.018   0.400  0.00  0.00    -0.439 OA
ATOM      9  N   UNL     1       2.264   0.211   0.031  0.00  0.00    -0.213 NA
ATOM     15  C   UNL     1       1.648  -0.925   0.275  0.00  0.00    +0.201 A 
ATOM     17  C   UNL     1       3.589  -0.151  -0.011  0.00  0.00    +0.111 A 
ATOM     18  C   UNL     1       3.708  -1.514   0.215  0.00  0.00    +0.155 A 
ATOM     21  C   UNL     1       4.750   0.604  -0.232  0.00  0.00    +0.058 A 
ATOM     22  C   UNL     1       5.983  -0.064  -0.214  0.00  0.00    +0.090 A 
ATOM     23  C   UNL     1       4.911  -2.210   0.240  0.00  0.00    +0.050 A 
ATOM     24  C   UNL     1       6.059  -1.443   0.017  0.00  0.00    +0.030 A 
BRANCH  22   1
ATOM      1  S   UNL     1       7.453   0.845  -0.488  0.00  0.00    -0.003 S 
ATOM      6  O   UNL     1       8.479  -0.062  -0.983  0.00  0.00    -0.169 OA
ATOM      7  O   UNL     1       7.105   2.033  -1.252  0.00  0.00    -0.169 OA
BRANCH   1  28
ATOM     28  C   UNL     1       7.957   1.364   1.136  0.00  0.00    +0.168 C 
ATOM     30  C   UNL     1       9.232   2.175   1.087  0.00  0.00    +0.028 C 
ENDBRANCH   1  28
ENDBRANCH  22   1
ENDBRANCH  10  15
BRANCH   8  14
ATOM     14  C   UNL     1      -2.766   0.306  -1.216  0.00  0.00    +0.119 C 
BRANCH  14  16
ATOM     16  C   UNL     1      -4.216   0.314  -0.814  0.00  0.00    -0.033 A 
ATOM     19  C   UNL     1      -4.995  -0.830  -0.993  0.00  0.00    +0.005 A 
ATOM     20  C   UNL     1      -4.782   1.463  -0.261  0.00  0.00    +0.005 A 
ATOM     25  C   UNL     1      -6.339  -0.824  -0.620  0.00  0.00    +0.012 A 
ATOM     26  C   UNL     1      -6.126   1.469   0.112  0.00  0.00    +0.012 A 
ATOM     27  C   UNL     1      -6.905   0.326  -0.068  0.00  0.00    +0.055 A 
BRANCH  27  29
ATOM      2  F   UNL     1      -8.957  -0.864   0.095  0.00  0.00    -0.166 F 
ATOM      3  F   UNL     1      -8.537   0.584   1.661  0.00  0.00    -0.166 F 
ATOM      4  F   UNL     1      -9.089   1.266  -0.322  0.00  0.00    -0.166 F 
ATOM     29  C   UNL     1      -8.341   0.331   0.334  0.00  0.00    +0.417 C 
ENDBRANCH  27  29
ENDBRANCH  14  16
ENDBRANCH   8  14
TORSDOF 6
