REMARK  Name = 26743848
REMARK  6 active torsions:
REMARK  status: ('A' for Active; 'I' for Inactive)
REMARK    1  A    between atoms: O_1  and  C_9
REMARK    2  A    between atoms: N_3  and  C_11
REMARK    3  A    between atoms: C_7  and  C_12
REMARK    4  A    between atoms: C_11  and  C_13
REMARK    5  A    between atoms: C_17  and  C_20
REMARK    6  A    between atoms: C_25  and  C_28
REMARK                            x       y       z     vdW  Elec       q    Type
REMARK                         _______ _______ _______ _____ _____    ______ ____
ROOT
ATOM      3  N   UNL     1      -2.929  -0.263   0.271  0.00  0.00    -0.285 NA
ATOM      7  C   UNL     1      -2.753   1.030  -0.421  0.00  0.00    +0.149 C 
ATOM      8  C   UNL     1      -3.489   2.054   0.463  0.00  0.00    +0.061 C 
ATOM      9  C   UNL     1      -4.083   1.236   1.603  0.00  0.00    +0.130 C 
ATOM     10  C   UNL     1      -4.178  -0.163   1.023  0.00  0.00    +0.116 C 
ENDROOT
BRANCH   7  12
ATOM      2  O   UNL     1      -1.018   2.179  -1.702  0.00  0.00    -0.336 OA
ATOM      4  N   UNL     1      -0.245   1.029   0.058  0.00  0.00    -0.190 NA
ATOM      6  N   UNL     1       0.371   2.363  -1.696  0.00  0.00    -0.056 NA
ATOM     12  C   UNL     1      -1.297   1.382  -0.637  0.00  0.00    +0.245 A 
ATOM     17  C   UNL     1       0.754   1.654  -0.629  0.00  0.00    +0.202 A 
BRANCH  17  20
ATOM     20  C   UNL     1       2.126   1.552  -0.223  0.00  0.00    +0.023 A 
ATOM     23  C   UNL     1       2.467   0.798   0.899  0.00  0.00    +0.015 A 
ATOM     24  C   UNL     1       3.119   2.206  -0.952  0.00  0.00    +0.012 A 
ATOM     25  C   UNL     1       3.802   0.697   1.293  0.00  0.00    -0.050 A 
ATOM     26  C   UNL     1       4.454   2.106  -0.559  0.00  0.00    +0.001 A 
ATOM     27  C   UNL     1       4.795   1.351   0.564  0.00  0.00    +0.003 A 
ATOM     28  C   UNL     1       4.168  -0.109   2.493  0.00  0.00    +0.044 C 
ENDBRANCH  17  20
ENDBRANCH   7  12
BRANCH   9   1
ATOM      1  O   UNL     1      -5.353   1.738   1.973  0.00  0.00    -0.390 OA
ATOM     29  H   UNL     1      -5.229   2.658   2.262  0.00  0.00    +0.210 HD
ENDBRANCH   9   1
BRANCH   3  11
ATOM     11  C   UNL     1      -2.923  -1.405  -0.634  0.00  0.00    +0.122 C 
BRANCH  11  13
ATOM      5  N   UNL     1       0.267  -2.241  -2.266  0.00  0.00    -0.360 N 
ATOM     13  C   UNL     1      -1.526  -1.795  -1.034  0.00  0.00    -0.008 A 
ATOM     14  C   UNL     1      -0.470  -2.181  -0.161  0.00  0.00    +0.004 A 
ATOM     15  C   UNL     1      -1.042  -1.843  -2.322  0.00  0.00    +0.088 A 
ATOM     16  C   UNL     1       0.642  -2.455  -0.959  0.00  0.00    +0.047 A 
ATOM     18  C   UNL     1      -0.355  -2.322   1.236  0.00  0.00    +0.010 A 
ATOM     19  C   UNL     1       1.870  -2.866  -0.427  0.00  0.00    +0.026 A 
ATOM     21  C   UNL     1       0.867  -2.733   1.782  0.00  0.00    +0.001 A 
ATOM     22  C   UNL     1       1.961  -3.000   0.962  0.00  0.00    +0.002 A 
ATOM     30  H   UNL     1       0.871  -2.361  -3.067  0.00  0.00    +0.165 HD
ENDBRANCH  11  13
ENDBRANCH   3  11
TORSDOF 5
