REMARK  Name = 26745297
REMARK  9 active torsions:
REMARK  status: ('A' for Active; 'I' for Inactive)
REMARK    1  A    between atoms: O_2  and  C_30
REMARK    2  A    between atoms: O_2  and  C_31
REMARK    3  A    between atoms: O_3  and  C_27
REMARK    4  A    between atoms: N_5  and  C_14
REMARK    5  A    between atoms: N_8  and  C_18
REMARK    6  A    between atoms: C_9  and  C_15
REMARK    7  A    between atoms: C_14  and  C_16
REMARK    8  A    between atoms: C_18  and  C_21
REMARK    9  A    between atoms: C_24  and  C_27
REMARK                            x       y       z     vdW  Elec       q    Type
REMARK                         _______ _______ _______ _____ _____    ______ ____
ROOT
ATOM      5  N   UNL     1      -0.479  -1.029  -0.561  0.00  0.00    -0.281 NA
ATOM      6  N   UNL     1       1.681  -4.002  -1.366  0.00  0.00    -0.347 N 
ATOM      7  N   UNL     1       0.815  -4.894   0.492  0.00  0.00    -0.240 NA
ATOM      9  C   UNL     1      -0.562  -1.360   0.887  0.00  0.00    +0.150 C 
ATOM     10  C   UNL     1      -0.515  -2.870   1.254  0.00  0.00    +0.085 C 
ATOM     11  C   UNL     1       0.687  -1.645  -1.251  0.00  0.00    +0.140 C 
ATOM     12  C   UNL     1       0.915  -3.033  -0.793  0.00  0.00    +0.053 A 
ATOM     13  C   UNL     1       0.400  -3.601   0.346  0.00  0.00    +0.065 A 
ATOM     17  C   UNL     1       1.588  -5.106  -0.555  0.00  0.00    +0.197 A 
ATOM     32  H   UNL     1       2.217  -3.927  -2.221  0.00  0.00    +0.167 HD
ENDROOT
BRANCH   9  15
ATOM      1  O   UNL     1       1.388  -1.185   2.259  0.00  0.00    -0.274 OA
ATOM      8  N   UNL     1       0.478   0.753   1.344  0.00  0.00    -0.310 N 
ATOM     15  C   UNL     1       0.548  -0.611   1.571  0.00  0.00    +0.231 C 
ATOM     33  H   UNL     1      -0.257   1.116   0.743  0.00  0.00    +0.149 HD
BRANCH   8  18
ATOM     18  C   UNL     1       1.415   1.697   1.907  0.00  0.00    +0.139 C 
BRANCH  18  21
ATOM     21  C   UNL     1       2.597   1.920   1.009  0.00  0.00    -0.030 A 
ATOM     25  C   UNL     1       3.884   1.638   1.466  0.00  0.00    +0.009 A 
ATOM     26  C   UNL     1       2.408   2.410  -0.283  0.00  0.00    +0.009 A 
ATOM     28  C   UNL     1       4.982   1.845   0.631  0.00  0.00    +0.046 A 
ATOM     29  C   UNL     1       3.506   2.617  -1.118  0.00  0.00    +0.046 A 
ATOM     30  C   UNL     1       4.793   2.335  -0.661  0.00  0.00    +0.120 A 
BRANCH  30   2
ATOM      2  O   UNL     1       5.864   2.536  -1.476  0.00  0.00    -0.495 OA
ATOM     31  C   UNL     1       7.152   2.226  -0.944  0.00  0.00    +0.277 C 
ENDBRANCH  30   2
ENDBRANCH  18  21
ENDBRANCH   8  18
ENDBRANCH   9  15
BRANCH   5  14
ATOM     14  C   UNL     1      -1.732  -1.363  -1.245  0.00  0.00    +0.120 C 
BRANCH  14  16
ATOM     16  C   UNL     1      -2.836  -0.408  -0.894  0.00  0.00    -0.033 A 
ATOM     19  C   UNL     1      -4.004  -0.883  -0.299  0.00  0.00    +0.006 A 
ATOM     20  C   UNL     1      -2.693   0.953  -1.164  0.00  0.00    +0.006 A 
ATOM     22  C   UNL     1      -5.030   0.004   0.028  0.00  0.00    +0.015 A 
ATOM     23  C   UNL     1      -3.719   1.840  -0.838  0.00  0.00    +0.015 A 
ATOM     24  C   UNL     1      -4.888   1.365  -0.242  0.00  0.00    +0.059 A 
BRANCH  24  27
ATOM      4  O   UNL     1      -7.029   1.982   0.628  0.00  0.00    -0.245 OA
ATOM     27  C   UNL     1      -5.957   2.291   0.099  0.00  0.00    +0.337 C 
BRANCH  27   3
ATOM      3  O   UNL     1      -5.656   3.577  -0.230  0.00  0.00    -0.477 OA
ATOM     34  H   UNL     1      -6.383   4.193   0.004  0.00  0.00    +0.295 HD
ENDBRANCH  27   3
ENDBRANCH  24  27
ENDBRANCH  14  16
ENDBRANCH   5  14
TORSDOF 8
