REMARK  Name = 71693657
REMARK  10 active torsions:
REMARK  status: ('A' for Active; 'I' for Inactive)
REMARK    1  A    between atoms: S_1  and  N_8
REMARK    2  A    between atoms: S_1  and  C_19
REMARK    3  A    between atoms: O_3  and  C_12
REMARK    4  A    between atoms: N_7  and  C_15
REMARK    5  A    between atoms: N_8  and  C_20
REMARK    6  A    between atoms: C_9  and  C_12
REMARK    7  A    between atoms: C_10  and  C_11
REMARK    8  A    between atoms: C_18  and  C_19
REMARK    9  A    between atoms: C_18  and  C_23
REMARK   10  A    between atoms: C_18  and  C_24
REMARK                            x       y       z     vdW  Elec       q    Type
REMARK                         _______ _______ _______ _____ _____    ______ ____
ROOT
ATOM     11  C   UNL     1       1.045   0.882  -0.073  0.00  0.00    -0.017 A 
ATOM     16  C   UNL     1       0.424   0.678   1.159  0.00  0.00    +0.008 A 
ATOM     17  C   UNL     1       0.312   1.382  -1.149  0.00  0.00    +0.008 A 
ATOM     20  C   UNL     1      -1.663   1.474   0.239  0.00  0.00    +0.048 A 
ATOM     21  C   UNL     1      -0.930   0.974   1.315  0.00  0.00    +0.025 A 
ATOM     22  C   UNL     1      -1.042   1.678  -0.993  0.00  0.00    +0.025 A 
ENDROOT
BRANCH  11  10
ATOM      2  O   UNL     1       3.236   1.432   0.631  0.00  0.00    -0.361 OA
ATOM      4  O   UNL     1       6.450  -0.106   0.585  0.00  0.00    -0.273 OA
ATOM      7  N   UNL     1       4.365  -1.062   0.171  0.00  0.00    -0.295 N 
ATOM      9  C   UNL     1       2.893  -0.889   0.115  0.00  0.00    +0.134 C 
ATOM     10  C   UNL     1       2.516   0.561  -0.243  0.00  0.00    +0.171 C 
ATOM     13  C   UNL     1       4.616   1.387   0.355  0.00  0.00    +0.256 C 
ATOM     14  C   UNL     1       5.235   0.004   0.405  0.00  0.00    +0.242 C 
ATOM     15  C   UNL     1       4.896  -2.422   0.222  0.00  0.00    +0.132 C 
BRANCH   9  12
ATOM     12  C   UNL     1       2.221  -1.876  -0.851  0.00  0.00    +0.181 C 
BRANCH  12   3
ATOM      3  O   UNL     1       2.654  -1.574  -2.161  0.00  0.00    -0.393 OA
ATOM     26  H   UNL     1       2.213  -2.199  -2.761  0.00  0.00    +0.209 HD
ENDBRANCH  12   3
ENDBRANCH   9  12
ENDBRANCH  11  10
BRANCH  20   8
ATOM      8  N   UNL     1      -3.049   1.777   0.400  0.00  0.00    -0.221 N 
ATOM     25  H   UNL     1      -3.303   2.078   1.350  0.00  0.00    +0.173 HD
BRANCH   8   1
ATOM      1  S   UNL     1      -4.200   0.761  -0.381  0.00  0.00    +0.043 S 
ATOM      5  O   UNL     1      -5.502   1.396  -0.300  0.00  0.00    -0.155 OA
ATOM      6  O   UNL     1      -3.692   0.282  -1.651  0.00  0.00    -0.155 OA
BRANCH   1  19
ATOM     19  C   UNL     1      -4.224  -0.612   0.751  0.00  0.00    +0.191 C 
BRANCH  19  18
ATOM     18  C   UNL     1      -5.483  -1.472   0.618  0.00  0.00    +0.006 C 
ATOM     23  C   UNL     1      -5.575  -2.041  -0.799  0.00  0.00    +0.009 C 
ATOM     24  C   UNL     1      -5.505  -2.615   1.634  0.00  0.00    +0.009 C 
ENDBRANCH  19  18
ENDBRANCH   1  19
ENDBRANCH   8   1
ENDBRANCH  20   8
TORSDOF 7
