REMARK  Name = 45361707
REMARK  8 active torsions:
REMARK  status: ('A' for Active; 'I' for Inactive)
REMARK    1  A    between atoms: S_1  and  N_8
REMARK    2  A    between atoms: S_1  and  C_25
REMARK    3  A    between atoms: N_10  and  C_24
REMARK    4  A    between atoms: C_13  and  C_23
REMARK    5  A    between atoms: C_14  and  C_18
REMARK    6  A    between atoms: C_24  and  C_26
REMARK    7  A    between atoms: C_24  and  C_30
REMARK    8  A    between atoms: C_26  and  C_27
REMARK                            x       y       z     vdW  Elec       q    Type
REMARK                         _______ _______ _______ _____ _____    ______ ____
ROOT
ATOM      2  O   UNL     1       4.630  -0.094  -1.683  0.00  0.00    -0.275 OA
ATOM      7  N   UNL     1       2.452   0.026  -0.874  0.00  0.00    -0.287 N 
ATOM      8  N   UNL     1      -0.120   1.271  -0.926  0.00  0.00    -0.173 NA
ATOM     13  C   UNL     1       1.427  -0.383   0.100  0.00  0.00    +0.177 C 
ATOM     15  C   UNL     1       0.383   0.703   0.360  0.00  0.00    +0.141 C 
ATOM     16  C   UNL     1       1.965   0.704  -2.080  0.00  0.00    +0.125 C 
ATOM     17  C   UNL     1       0.992   1.825  -1.747  0.00  0.00    +0.128 C 
ATOM     18  C   UNL     1       3.805  -0.321  -0.795  0.00  0.00    +0.219 C 
ENDROOT
BRANCH  18  14
ATOM      9  N   UNL     1       7.056  -0.348   1.041  0.00  0.00    -0.316 NA
ATOM     14  C   UNL     1       4.255  -1.003   0.466  0.00  0.00    +0.078 C 
ATOM     19  C   UNL     1       4.659   0.023   1.526  0.00  0.00    +0.028 C 
ATOM     20  C   UNL     1       5.402  -1.974   0.180  0.00  0.00    +0.028 C 
ATOM     21  C   UNL     1       6.016   0.663   1.227  0.00  0.00    +0.081 C 
ATOM     22  C   UNL     1       6.728  -1.251  -0.062  0.00  0.00    +0.081 C 
ATOM     41  H   UNL     1       7.944   0.113   0.847  0.00  0.00    +0.122 HD
ENDBRANCH  18  14
BRANCH  13  23
ATOM      3  O   UNL     1       1.137  -2.123  -1.512  0.00  0.00    -0.274 OA
ATOM     10  N   UNL     1      -0.174  -2.139   0.412  0.00  0.00    -0.302 N 
ATOM     23  C   UNL     1       0.802  -1.639  -0.433  0.00  0.00    +0.235 C 
ATOM     42  H   UNL     1      -0.283  -1.732   1.336  0.00  0.00    +0.150 HD
BRANCH  10  24
ATOM     24  C   UNL     1      -0.942  -3.327   0.117  0.00  0.00    +0.163 C 
BRANCH  24  30
ATOM      6  O   UNL     1       0.556  -4.488   1.639  0.00  0.00    -0.274 OA
ATOM     12  N   UNL     1      -0.316  -5.648  -0.141  0.00  0.00    -0.328 N 
ATOM     30  C   UNL     1      -0.140  -4.516   0.627  0.00  0.00    +0.231 C 
ATOM     44  H   UNL     1      -0.913  -5.663  -0.962  0.00  0.00    +0.145 HD
ATOM     45  H   UNL     1       0.152  -6.516   0.096  0.00  0.00    +0.145 HD
ENDBRANCH  24  30
BRANCH  24  26
ATOM     26  C   UNL     1      -2.328  -3.299   0.772  0.00  0.00    +0.069 C 
BRANCH  26  27
ATOM     11  N   UNL     1      -4.585  -1.653  -1.629  0.00  0.00    -0.360 N 
ATOM     27  C   UNL     1      -3.317  -2.452   0.009  0.00  0.00    -0.020 A 
ATOM     31  C   UNL     1      -4.056  -1.347   0.517  0.00  0.00    +0.003 A 
ATOM     32  C   UNL     1      -3.663  -2.615  -1.313  0.00  0.00    +0.087 A 
ATOM     35  C   UNL     1      -4.844  -0.864  -0.530  0.00  0.00    +0.047 A 
ATOM     37  C   UNL     1      -4.131  -0.711   1.772  0.00  0.00    +0.010 A 
ATOM     38  C   UNL     1      -5.706   0.228  -0.385  0.00  0.00    +0.026 A 
ATOM     39  C   UNL     1      -4.989   0.384   1.932  0.00  0.00    +0.001 A 
ATOM     40  C   UNL     1      -5.764   0.844   0.869  0.00  0.00    +0.002 A 
ATOM     43  H   UNL     1      -5.014  -1.537  -2.536  0.00  0.00    +0.165 HD
ENDBRANCH  26  27
ENDBRANCH  24  26
ENDBRANCH  10  24
ENDBRANCH  13  23
BRANCH   8   1
ATOM      1  S   UNL     1      -1.507   2.269  -0.795  0.00  0.00    +0.061 S 
ATOM      4  O   UNL     1      -2.424   1.680   0.158  0.00  0.00    -0.153 OA
ATOM      5  O   UNL     1      -1.947   2.639  -2.123  0.00  0.00    -0.153 OA
BRANCH   1  25
ATOM     25  C   UNL     1      -0.789   3.696  -0.043  0.00  0.00    +0.105 A 
ATOM     28  C   UNL     1      -0.278   4.721  -0.839  0.00  0.00    +0.028 A 
ATOM     29  C   UNL     1      -0.731   3.798   1.347  0.00  0.00    +0.028 A 
ATOM     33  C   UNL     1       0.292   5.847  -0.246  0.00  0.00    +0.002 A 
ATOM     34  C   UNL     1      -0.161   4.924   1.940  0.00  0.00    +0.002 A 
ATOM     36  C   UNL     1       0.351   5.949   1.144  0.00  0.00    +0.000 A 
ENDBRANCH   1  25
ENDBRANCH   8   1
TORSDOF 8
