REMARK  Name = 26742127
REMARK  9 active torsions:
REMARK  status: ('A' for Active; 'I' for Inactive)
REMARK    1  A    between atoms: O_2  and  C_12
REMARK    2  A    between atoms: O_5  and  C_27
REMARK    3  A    between atoms: O_5  and  C_30
REMARK    4  A    between atoms: N_8  and  C_11
REMARK    5  A    between atoms: N_9  and  C_20
REMARK    6  A    between atoms: C_18  and  C_19
REMARK    7  A    between atoms: C_30  and  C_32
REMARK    8  A    between atoms: C_33  and  C_35
REMARK    9  A    between atoms: C_34  and  C_36
REMARK                            x       y       z     vdW  Elec       q    Type
REMARK                         _______ _______ _______ _____ _____    ______ ____
ROOT
ATOM      3  O   UNL     1      -4.578  -2.692  -0.144  0.00  0.00    -0.252 OA
ATOM      7  N   UNL     1      -5.078  -0.503   0.406  0.00  0.00    -0.284 N 
ATOM      9  N   UNL     1      -2.994  -1.442   1.006  0.00  0.00    -0.269 N 
ATOM     11  C   UNL     1      -4.019   1.730  -0.079  0.00  0.00    +0.119 C 
ATOM     12  C   UNL     1      -4.487   1.633  -1.542  0.00  0.00    +0.136 C 
ATOM     13  C   UNL     1      -5.991   1.424  -1.748  0.00  0.00    +0.035 C 
ATOM     14  C   UNL     1      -4.738   0.826   0.931  0.00  0.00    +0.134 C 
ATOM     15  C   UNL     1      -6.419  -0.041  -1.638  0.00  0.00    +0.022 C 
ATOM     16  C   UNL     1      -6.398  -0.601  -0.221  0.00  0.00    +0.109 C 
ATOM     17  C   UNL     1      -4.228  -1.635   0.387  0.00  0.00    +0.307 C 
ATOM     39  H   UNL     1      -2.931  -0.735   1.731  0.00  0.00    +0.156 HD
ENDROOT
BRANCH   9  20
ATOM      1  F   UNL     1       1.844  -3.870  -0.206  0.00  0.00    -0.205 F 
ATOM     20  C   UNL     1      -1.757  -2.062   0.696  0.00  0.00    +0.035 A 
ATOM     25  C   UNL     1      -0.614  -1.743   1.429  0.00  0.00    +0.026 A 
ATOM     26  C   UNL     1      -1.683  -2.991  -0.342  0.00  0.00    +0.026 A 
ATOM     28  C   UNL     1       0.603  -2.353   1.124  0.00  0.00    +0.040 A 
ATOM     29  C   UNL     1      -0.467  -3.602  -0.647  0.00  0.00    +0.040 A 
ATOM     31  C   UNL     1       0.676  -3.283   0.086  0.00  0.00    +0.124 A 
ENDBRANCH   9  20
BRANCH  11   8
ATOM      4  O   UNL     1      -2.163   2.970   1.726  0.00  0.00    -0.270 OA
ATOM      8  N   UNL     1      -2.586   1.514  -0.027  0.00  0.00    -0.305 N 
ATOM     18  C   UNL     1      -1.776   2.163   0.885  0.00  0.00    +0.244 C 
ATOM     37  H   UNL     1      -2.208   0.777  -0.614  0.00  0.00    +0.149 HD
BRANCH  18  19
ATOM     19  C   UNL     1      -0.326   1.853   0.791  0.00  0.00    +0.037 A 
ATOM     21  C   UNL     1       0.486   1.964   1.920  0.00  0.00    +0.016 A 
ATOM     22  C   UNL     1       0.224   1.453  -0.427  0.00  0.00    +0.016 A 
ATOM     23  C   UNL     1       1.847   1.675   1.831  0.00  0.00    +0.046 A 
ATOM     24  C   UNL     1       1.586   1.163  -0.515  0.00  0.00    +0.046 A 
ATOM     27  C   UNL     1       2.397   1.274   0.614  0.00  0.00    +0.121 A 
BRANCH  27   5
ATOM      5  O   UNL     1       3.726   0.991   0.527  0.00  0.00    -0.487 OA
BRANCH   5  30
ATOM     30  C   UNL     1       4.221   0.588  -0.749  0.00  0.00    +0.269 C 
BRANCH  30  32
ATOM      6  O   UNL     1       7.643  -0.770  -0.494  0.00  0.00    -0.359 OA
ATOM     10  N   UNL     1       7.938   0.587  -0.441  0.00  0.00    -0.083 NA
ATOM     32  C   UNL     1       5.688   0.292  -0.634  0.00  0.00    +0.054 A 
ATOM     33  C   UNL     1       6.301  -0.933  -0.609  0.00  0.00    +0.141 A 
ATOM     34  C   UNL     1       6.755   1.201  -0.526  0.00  0.00    +0.087 A 
ATOM     35  C   UNL     1       5.815  -2.317  -0.679  0.00  0.00    +0.089 C 
ATOM     36  C   UNL     1       6.695   2.672  -0.499  0.00  0.00    +0.069 C 
ENDBRANCH  30  32
ENDBRANCH   5  30
ENDBRANCH  27   5
ENDBRANCH  18  19
ENDBRANCH  11   8
BRANCH  12   2
ATOM      2  O   UNL     1      -4.142   2.864  -2.193  0.00  0.00    -0.390 OA
ATOM     38  H   UNL     1      -4.318   2.754  -3.143  0.00  0.00    +0.210 HD
ENDBRANCH  12   2
TORSDOF 7
