REMARK  Name = 51137073
REMARK  4 active torsions:
REMARK  status: ('A' for Active; 'I' for Inactive)
REMARK    1  A    between atoms: N_2  and  C_9
REMARK    2  A    between atoms: C_5  and  C_10
REMARK    3  A    between atoms: C_9  and  C_11
REMARK    4  A    between atoms: C_18  and  C_23
REMARK                            x       y       z     vdW  Elec       q    Type
REMARK                         _______ _______ _______ _____ _____    ______ ____
ROOT
ATOM      2  N   UNL     1      -1.055  -0.714  -0.109  0.00  0.00    -0.297 NA
ATOM      5  C   UNL     1       1.142  -1.011   0.657  0.00  0.00    +0.060 C 
ATOM      6  C   UNL     1       0.367  -0.125   1.647  0.00  0.00    +0.027 C 
ATOM      7  C   UNL     1       0.286  -1.009  -0.617  0.00  0.00    +0.095 C 
ATOM      8  C   UNL     1      -0.859   0.349   0.877  0.00  0.00    +0.085 C 
ENDROOT
BRANCH   5  10
ATOM      1  S   UNL     1       3.838  -1.675   0.772  0.00  0.00    -0.072 S 
ATOM      3  N   UNL     1       2.922   0.582  -0.076  0.00  0.00    -0.244 NA
ATOM     10  C   UNL     1       2.570  -0.587   0.408  0.00  0.00    +0.084 A 
ATOM     12  C   UNL     1       4.985  -0.501   0.242  0.00  0.00    +0.039 A 
ATOM     13  C   UNL     1       4.304   0.646  -0.177  0.00  0.00    +0.078 A 
ATOM     16  C   UNL     1       6.386  -0.589   0.200  0.00  0.00    +0.017 A 
ATOM     17  C   UNL     1       5.054   1.742  -0.655  0.00  0.00    +0.029 A 
ATOM     21  C   UNL     1       7.104   0.510  -0.277  0.00  0.00    +0.001 A 
ATOM     22  C   UNL     1       6.449   1.661  -0.700  0.00  0.00    +0.002 A 
ENDBRANCH   5  10
BRANCH   2   9
ATOM      9  C   UNL     1      -1.977  -0.326  -1.166  0.00  0.00    +0.119 C 
BRANCH   9  11
ATOM     11  C   UNL     1      -3.413  -0.449  -0.732  0.00  0.00    -0.032 A 
ATOM     14  C   UNL     1      -4.143   0.692  -0.400  0.00  0.00    +0.023 A 
ATOM     15  C   UNL     1      -4.013  -1.706  -0.662  0.00  0.00    +0.005 A 
ATOM     18  C   UNL     1      -5.474   0.576   0.001  0.00  0.00    +0.052 A 
ATOM     19  C   UNL     1      -5.344  -1.822  -0.261  0.00  0.00    +0.002 A 
ATOM     20  C   UNL     1      -6.075  -0.681   0.071  0.00  0.00    +0.019 A 
BRANCH  18  23
ATOM      4  N   UNL     1      -6.832   2.694   0.616  0.00  0.00    -0.191 NA
ATOM     23  C   UNL     1      -6.223   1.745   0.340  0.00  0.00    +0.099 C 
ENDBRANCH  18  23
ENDBRANCH   9  11
ENDBRANCH   2   9
TORSDOF 4
