REMARK  Name = 45784013
REMARK  5 active torsions:
REMARK  status: ('A' for Active; 'I' for Inactive)
REMARK    1  A    between atoms: N_5  and  C_14
REMARK    2  A    between atoms: C_6  and  C_10
REMARK    3  A    between atoms: C_14  and  C_19
REMARK    4  A    between atoms: C_14  and  C_20
REMARK    5  A    between atoms: C_17  and  C_21
REMARK                            x       y       z     vdW  Elec       q    Type
REMARK                         _______ _______ _______ _____ _____    ______ ____
ROOT
ATOM      1  O   UNL     1       3.527  -0.030   1.808  0.00  0.00    -0.253 OA
ATOM      2  N   UNL     1       2.213  -0.977   0.166  0.00  0.00    -0.285 N 
ATOM      5  N   UNL     1       4.003   0.421  -0.403  0.00  0.00    -0.297 N 
ATOM      6  C   UNL     1       0.128  -2.117   0.249  0.00  0.00    +0.074 C 
ATOM      7  C   UNL     1       0.767  -2.321  -1.132  0.00  0.00    +0.032 C 
ATOM      8  C   UNL     1       1.330  -1.675   1.093  0.00  0.00    +0.120 C 
ATOM      9  C   UNL     1       1.822  -1.225  -1.219  0.00  0.00    +0.110 C 
ATOM     11  C   UNL     1       3.269  -0.184   0.611  0.00  0.00    +0.302 C 
ATOM     23  H   UNL     1       3.688   0.344  -1.364  0.00  0.00    +0.150 HD
ENDROOT
BRANCH   6  10
ATOM      3  N   UNL     1      -2.317  -1.603  -0.056  0.00  0.00    -0.342 N 
ATOM      4  N   UNL     1      -1.007   0.147   0.341  0.00  0.00    -0.232 NA
ATOM     10  C   UNL     1      -1.048  -1.157   0.184  0.00  0.00    +0.113 A 
ATOM     12  C   UNL     1      -3.151  -0.515  -0.055  0.00  0.00    +0.066 A 
ATOM     13  C   UNL     1      -2.310   0.565   0.195  0.00  0.00    +0.089 A 
ATOM     15  C   UNL     1      -4.527  -0.387  -0.245  0.00  0.00    +0.031 A 
ATOM     16  C   UNL     1      -2.856   1.858   0.263  0.00  0.00    +0.030 A 
ATOM     17  C   UNL     1      -5.055   0.907  -0.174  0.00  0.00    -0.048 A 
ATOM     18  C   UNL     1      -4.236   2.011   0.075  0.00  0.00    +0.005 A 
ATOM     21  C   UNL     1      -6.522   1.110  -0.368  0.00  0.00    +0.044 C 
ATOM     22  H   UNL     1      -2.594  -2.564  -0.210  0.00  0.00    +0.167 HD
ENDBRANCH   6  10
BRANCH   5  14
ATOM     14  C   UNL     1       5.132   1.281  -0.134  0.00  0.00    +0.068 C 
ATOM     19  C   UNL     1       4.670   2.720   0.049  0.00  0.00    +0.027 C 
ATOM     20  C   UNL     1       6.166   1.171  -1.248  0.00  0.00    +0.027 C 
ENDBRANCH   5  14
TORSDOF 2
