REMARK  Name = 75367676
REMARK  4 active torsions:
REMARK  status: ('A' for Active; 'I' for Inactive)
REMARK    1  A    between atoms: O_2  and  C_6
REMARK    2  A    between atoms: O_2  and  C_12
REMARK    3  A    between atoms: N_5  and  C_13
REMARK    4  A    between atoms: C_13  and  C_16
REMARK                            x       y       z     vdW  Elec       q    Type
REMARK                         _______ _______ _______ _____ _____    ______ ____
ROOT
ATOM      1  O   UNL     1      -0.708   2.938   1.148  0.00  0.00    -0.375 OA
ATOM      3  O   UNL     1      -1.789  -1.602  -1.184  0.00  0.00    -0.253 OA
ATOM      4  N   UNL     1      -1.890   0.616  -0.472  0.00  0.00    -0.280 N 
ATOM      5  N   UNL     1      -3.549  -0.954   0.149  0.00  0.00    -0.300 N 
ATOM      6  C   UNL     1       0.498   1.242  -0.169  0.00  0.00    +0.216 C 
ATOM      7  C   UNL     1      -0.634   0.948  -1.152  0.00  0.00    +0.156 C 
ATOM      8  C   UNL     1      -2.585   1.668   0.286  0.00  0.00    +0.137 C 
ATOM      9  C   UNL     1       0.458   2.665   0.382  0.00  0.00    +0.206 C 
ATOM     10  C   UNL     1      -1.896   3.024   0.368  0.00  0.00    +0.179 C 
ATOM     11  C   UNL     1      -2.367  -0.715  -0.549  0.00  0.00    +0.302 C 
ATOM     20  H   UNL     1      -4.009  -0.204   0.650  0.00  0.00    +0.150 HD
ENDROOT
BRANCH   5  13
ATOM     13  C   UNL     1      -4.197  -2.248   0.193  0.00  0.00    +0.102 C 
ATOM     16  C   UNL     1      -3.535  -3.166   1.198  0.00  0.00    +0.024 C 
ENDBRANCH   5  13
BRANCH   6   2
ATOM      2  O   UNL     1       1.734   1.059  -0.858  0.00  0.00    -0.485 OA
BRANCH   2  12
ATOM     12  C   UNL     1       2.564   0.083  -0.379  0.00  0.00    +0.121 A 
ATOM     14  C   UNL     1       2.130  -1.242  -0.334  0.00  0.00    +0.045 A 
ATOM     15  C   UNL     1       3.844   0.412   0.066  0.00  0.00    +0.045 A 
ATOM     17  C   UNL     1       2.976  -2.237   0.155  0.00  0.00    +0.004 A 
ATOM     18  C   UNL     1       4.691  -0.583   0.554  0.00  0.00    +0.004 A 
ATOM     19  C   UNL     1       4.256  -1.907   0.599  0.00  0.00    +0.000 A 
ENDBRANCH   2  12
ENDBRANCH   6   2
TORSDOF 3
