REMARK  Name = 11912069
REMARK  10 active torsions:
REMARK  status: ('A' for Active; 'I' for Inactive)
REMARK    1  A    between atoms: S_1  and  N_5
REMARK    2  A    between atoms: S_1  and  C_17
REMARK    3  A    between atoms: N_6  and  C_18
REMARK    4  A    between atoms: N_6  and  C_21
REMARK    5  A    between atoms: C_8  and  C_14
REMARK    6  A    between atoms: C_9  and  C_13
REMARK    7  A    between atoms: C_13  and  C_15
REMARK    8  A    between atoms: C_14  and  C_16
REMARK    9  A    between atoms: C_18  and  C_22
REMARK   10  A    between atoms: C_22  and  C_26
REMARK                            x       y       z     vdW  Elec       q    Type
REMARK                         _______ _______ _______ _____ _____    ______ ____
ROOT
ATOM      5  N   UNL     1       1.748  -1.117   1.020  0.00  0.00    -0.176 NA
ATOM      8  C   UNL     1      -0.899  -2.226   0.399  0.00  0.00    +0.003 C 
ATOM      9  C   UNL     1       0.415  -2.918  -0.035  0.00  0.00    +0.008 C 
ATOM     10  C   UNL     1      -0.628  -1.348   1.633  0.00  0.00    +0.021 C 
ATOM     11  C   UNL     1       1.555  -1.909  -0.231  0.00  0.00    +0.113 C 
ATOM     12  C   UNL     1       0.522  -0.369   1.415  0.00  0.00    +0.110 C 
ENDROOT
BRANCH   5   1
ATOM      1  S   UNL     1       3.209  -0.224   1.102  0.00  0.00    +0.061 S 
ATOM      2  O   UNL     1       4.279  -1.017   0.536  0.00  0.00    -0.153 OA
ATOM      3  O   UNL     1       3.328   0.358   2.421  0.00  0.00    -0.153 OA
BRANCH   1  17
ATOM     17  C   UNL     1       2.839   1.074  -0.035  0.00  0.00    +0.105 A 
ATOM     19  C   UNL     1       2.242   2.234   0.431  0.00  0.00    +0.028 A 
ATOM     20  C   UNL     1       3.152   0.912  -1.375  0.00  0.00    +0.028 A 
ATOM     23  C   UNL     1       1.950   3.260  -0.468  0.00  0.00    +0.002 A 
ATOM     24  C   UNL     1       2.860   1.938  -2.274  0.00  0.00    +0.002 A 
ATOM     25  C   UNL     1       2.258   3.112  -1.820  0.00  0.00    +0.000 A 
ENDBRANCH   1  17
ENDBRANCH   5   1
BRANCH   9  13
ATOM     13  C   UNL     1       0.248  -3.787  -1.282  0.00  0.00    +0.002 C 
ATOM     15  C   UNL     1      -0.895  -4.766  -1.117  0.00  0.00    +0.004 C 
ENDBRANCH   9  13
BRANCH   8  14
ATOM     14  C   UNL     1      -1.577  -1.416  -0.713  0.00  0.00    +0.100 C 
BRANCH  14  16
ATOM      4  O   UNL     1      -3.566  -1.305   0.620  0.00  0.00    -0.276 OA
ATOM      6  N   UNL     1      -3.213   0.432  -0.876  0.00  0.00    -0.304 N 
ATOM     16  C   UNL     1      -2.874  -0.774  -0.253  0.00  0.00    +0.216 C 
ATOM     21  C   UNL     1      -2.380   1.041  -1.905  0.00  0.00    +0.132 C 
BRANCH   6  18
ATOM     18  C   UNL     1      -4.428   1.171  -0.543  0.00  0.00    +0.122 C 
BRANCH  18  22
ATOM     22  C   UNL     1      -4.133   2.574  -0.025  0.00  0.00    +0.137 C 
BRANCH  22  26
ATOM      7  N   UNL     1      -2.688   2.525   2.172  0.00  0.00    -0.197 NA
ATOM     26  C   UNL     1      -3.325   2.546   1.203  0.00  0.00    +0.064 C 
ENDBRANCH  22  26
ENDBRANCH  18  22
ENDBRANCH   6  18
ENDBRANCH  14  16
ENDBRANCH   8  14
TORSDOF 8
