REMARK  Name = 51138067
REMARK  10 active torsions:
REMARK  status: ('A' for Active; 'I' for Inactive)
REMARK    1  A    between atoms: N_3  and  C_21
REMARK    2  A    between atoms: N_4  and  C_22
REMARK    3  A    between atoms: C_5  and  C_9
REMARK    4  A    between atoms: C_7  and  C_16
REMARK    5  A    between atoms: C_9  and  C_12
REMARK    6  A    between atoms: C_12  and  C_19
REMARK    7  A    between atoms: C_12  and  C_20
REMARK    8  A    between atoms: C_21  and  C_23
REMARK    9  A    between atoms: C_22  and  C_24
REMARK   10  A    between atoms: C_25  and  C_27
REMARK                            x       y       z     vdW  Elec       q    Type
REMARK                         _______ _______ _______ _____ _____    ______ ____
ROOT
ATOM      2  N   UNL     1      -1.641   0.297   0.446  0.00  0.00    -0.299 NA
ATOM      3  N   UNL     1       3.301  -0.609   0.958  0.00  0.00    -0.335 N 
ATOM      5  C   UNL     1      -0.960   1.395  -0.254  0.00  0.00    +0.085 C 
ATOM      6  C   UNL     1       0.562   1.452  -0.089  0.00  0.00    -0.021 A 
ATOM      7  C   UNL     1      -1.283  -1.035  -0.020  0.00  0.00    +0.145 C 
ATOM      8  C   UNL     1       1.377   0.381   0.378  0.00  0.00    +0.008 A 
ATOM     10  C   UNL     1      -0.206  -1.667   0.860  0.00  0.00    +0.065 C 
ATOM     11  C   UNL     1       1.112  -0.969   0.797  0.00  0.00    -0.020 A 
ATOM     13  C   UNL     1       2.763   0.558   0.470  0.00  0.00    +0.050 A 
ATOM     14  C   UNL     1       2.319  -1.535   1.153  0.00  0.00    +0.091 A 
ATOM     15  C   UNL     1       1.245   2.625  -0.500  0.00  0.00    +0.006 A 
ATOM     17  C   UNL     1       3.412   1.739   0.104  0.00  0.00    +0.026 A 
ATOM     18  C   UNL     1       2.628   2.769  -0.396  0.00  0.00    +0.002 A 
ATOM     28  H   UNL     1      -1.521   0.379   1.454  0.00  0.00    +0.123 HD
ENDROOT
BRANCH   7  16
ATOM      1  O   UNL     1      -2.821  -2.470   1.108  0.00  0.00    -0.274 OA
ATOM      4  N   UNL     1      -3.296  -1.797  -1.070  0.00  0.00    -0.310 N 
ATOM     16  C   UNL     1      -2.541  -1.841   0.090  0.00  0.00    +0.231 C 
ATOM     29  H   UNL     1      -2.980  -1.224  -1.847  0.00  0.00    +0.149 HD
BRANCH   4  22
ATOM     22  C   UNL     1      -4.543  -2.507  -1.229  0.00  0.00    +0.131 C 
BRANCH  22  24
ATOM     24  C   UNL     1      -5.665  -1.629  -0.784  0.00  0.00    -0.016 C 
ATOM     26  C   UNL     1      -6.522  -1.951   0.192  0.00  0.00    +0.005 C 
ENDBRANCH  22  24
ENDBRANCH   4  22
ENDBRANCH   7  16
BRANCH   5   9
ATOM      9  C   UNL     1      -1.657   2.671   0.253  0.00  0.00    +0.026 C 
BRANCH   9  12
ATOM     12  C   UNL     1      -3.032   2.894  -0.384  0.00  0.00    -0.015 C 
ATOM     19  C   UNL     1      -3.620   4.208   0.135  0.00  0.00    +0.007 C 
ATOM     20  C   UNL     1      -4.004   1.747  -0.106  0.00  0.00    +0.007 C 
ENDBRANCH   9  12
ENDBRANCH   5   9
BRANCH   3  21
ATOM     21  C   UNL     1       4.706  -0.846   1.214  0.00  0.00    +0.210 C 
BRANCH  21  23
ATOM     23  C   UNL     1       5.459  -1.085  -0.023  0.00  0.00    -0.081 C 
ATOM     25  C   UNL     1       6.077  -1.280  -1.034  0.00  0.00    -0.104 C 
ATOM     27  C   UNL     1       6.828  -1.517  -2.266  0.00  0.00    +0.106 C 
ENDBRANCH  21  23
ENDBRANCH   3  21
TORSDOF 7
