REMARK  Name = 75536490
REMARK  10 active torsions:
REMARK  status: ('A' for Active; 'I' for Inactive)
REMARK    1  A    between atoms: O_2  and  C_13
REMARK    2  A    between atoms: N_5  and  C_12
REMARK    3  A    between atoms: N_5  and  C_17
REMARK    4  A    between atoms: N_5  and  C_18
REMARK    5  A    between atoms: N_6  and  C_16
REMARK    6  A    between atoms: N_8  and  C_28
REMARK    7  A    between atoms: N_9  and  C_29
REMARK    8  A    between atoms: C_14  and  C_16
REMARK    9  A    between atoms: C_17  and  C_19
REMARK   10  A    between atoms: C_18  and  C_20
REMARK                            x       y       z     vdW  Elec       q    Type
REMARK                         _______ _______ _______ _____ _____    ______ ____
ROOT
ATOM      1  O   UNL     1      -1.347  -0.241   0.978  0.00  0.00    -0.371 OA
ATOM     12  C   UNL     1       0.839   0.410   0.317  0.00  0.00    +0.114 C 
ATOM     13  C   UNL     1       0.120  -0.191  -0.876  0.00  0.00    +0.164 C 
ATOM     14  C   UNL     1      -1.334  -0.047  -0.446  0.00  0.00    +0.165 C 
ATOM     15  C   UNL     1      -0.002  -0.113   1.470  0.00  0.00    +0.182 C 
ENDROOT
BRANCH  13   2
ATOM      2  O   UNL     1       0.385   0.503  -2.080  0.00  0.00    -0.388 OA
ATOM     32  H   UNL     1       0.157   1.439  -1.950  0.00  0.00    +0.210 HD
ENDBRANCH  13   2
BRANCH  12   5
ATOM      5  N   UNL     1       2.236   0.021   0.413  0.00  0.00    -0.280 NA
BRANCH   5  17
ATOM     17  C   UNL     1       2.361  -1.362   0.883  0.00  0.00    +0.159 C 
BRANCH  17  19
ATOM      8  N   UNL     1       4.017  -2.371  -0.719  0.00  0.00    -0.336 N 
ATOM     10  N   UNL     1       4.703  -2.129   1.379  0.00  0.00    -0.239 NA
ATOM     19  C   UNL     1       3.704  -1.951   0.543  0.00  0.00    +0.124 A 
ATOM     24  C   UNL     1       5.298  -2.847  -0.687  0.00  0.00    +0.106 A 
ATOM     28  C   UNL     1       3.165  -2.327  -1.884  0.00  0.00    +0.150 C 
ATOM     30  C   UNL     1       5.700  -2.688   0.618  0.00  0.00    +0.130 A 
ENDBRANCH  17  19
ENDBRANCH   5  17
BRANCH   5  18
ATOM     18  C   UNL     1       2.968   0.923   1.306  0.00  0.00    +0.159 C 
BRANCH  18  20
ATOM      9  N   UNL     1       4.379   2.282  -0.273  0.00  0.00    -0.336 N 
ATOM     11  N   UNL     1       2.756   3.373   0.780  0.00  0.00    -0.239 NA
ATOM     20  C   UNL     1       3.345   2.209   0.619  0.00  0.00    +0.124 A 
ATOM     25  C   UNL     1       4.453   3.575  -0.708  0.00  0.00    +0.106 A 
ATOM     29  C   UNL     1       5.243   1.203  -0.690  0.00  0.00    +0.150 C 
ATOM     31  C   UNL     1       3.442   4.229  -0.044  0.00  0.00    +0.130 A 
ENDBRANCH  18  20
ENDBRANCH   5  18
ENDBRANCH  12   5
BRANCH  14  16
ATOM     16  C   UNL     1      -2.259  -1.051  -1.110  0.00  0.00    +0.140 C 
BRANCH  16   6
ATOM      3  O   UNL     1      -8.221   0.959   0.157  0.00  0.00    -0.377 OA
ATOM      4  O   UNL     1      -4.085  -1.639   0.949  0.00  0.00    -0.253 OA
ATOM      6  N   UNL     1      -3.637  -0.617  -1.056  0.00  0.00    -0.297 N 
ATOM      7  N   UNL     1      -5.791  -0.461  -0.093  0.00  0.00    -0.281 N 
ATOM     21  C   UNL     1      -4.477  -0.951   0.000  0.00  0.00    +0.302 C 
ATOM     22  C   UNL     1      -6.378   0.229  -1.250  0.00  0.00    +0.137 C 
ATOM     23  C   UNL     1      -6.746  -0.771   0.973  0.00  0.00    +0.137 C 
ATOM     26  C   UNL     1      -7.254   1.394  -0.799  0.00  0.00    +0.179 C 
ATOM     27  C   UNL     1      -7.582   0.448   1.328  0.00  0.00    +0.179 C 
ATOM     33  H   UNL     1      -3.948  -0.031  -1.817  0.00  0.00    +0.150 HD
ENDBRANCH  16   6
ENDBRANCH  14  16
TORSDOF 8
