REMARK  Name = 26744682
REMARK  8 active torsions:
REMARK  status: ('A' for Active; 'I' for Inactive)
REMARK    1  A    between atoms: S_2  and  N_10
REMARK    2  A    between atoms: S_2  and  C_25
REMARK    3  A    between atoms: O_4  and  C_14
REMARK    4  A    between atoms: O_5  and  C_15
REMARK    5  A    between atoms: N_10  and  C_18
REMARK    6  A    between atoms: C_13  and  C_17
REMARK    7  A    between atoms: C_16  and  C_18
REMARK    8  A    between atoms: C_17  and  C_19
REMARK                            x       y       z     vdW  Elec       q    Type
REMARK                         _______ _______ _______ _____ _____    ______ ____
ROOT
ATOM      3  O   UNL     1      -3.222  -0.994  -0.775  0.00  0.00    -0.366 OA
ATOM     13  C   UNL     1      -3.252  -2.113   0.129  0.00  0.00    +0.158 C 
ATOM     14  C   UNL     1      -4.224  -1.726   1.230  0.00  0.00    +0.175 C 
ATOM     15  C   UNL     1      -5.255  -0.929   0.458  0.00  0.00    +0.175 C 
ATOM     16  C   UNL     1      -4.388  -0.171  -0.541  0.00  0.00    +0.165 C 
ENDROOT
BRANCH  14   4
ATOM      4  O   UNL     1      -4.763  -2.856   1.882  0.00  0.00    -0.387 OA
ATOM     35  H   UNL     1      -5.457  -2.540   2.485  0.00  0.00    +0.210 HD
ENDBRANCH  14   4
BRANCH  15   5
ATOM      5  O   UNL     1      -6.112  -1.805  -0.274  0.00  0.00    -0.387 OA
ATOM     36  H   UNL     1      -6.730  -1.251  -0.780  0.00  0.00    +0.210 HD
ENDBRANCH  15   5
BRANCH  13  17
ATOM     17  C   UNL     1      -1.849  -2.397   0.636  0.00  0.00    +0.130 C 
BRANCH  17  19
ATOM      6  O   UNL     1      -1.374  -3.213  -1.543  0.00  0.00    -0.276 OA
ATOM      9  N   UNL     1       0.404  -2.293  -0.363  0.00  0.00    -0.298 N 
ATOM     11  N   UNL     1       3.137  -1.349  -0.215  0.00  0.00    -0.312 N 
ATOM     12  N   UNL     1       5.256  -1.312   0.827  0.00  0.00    -0.240 NA
ATOM     19  C   UNL     1      -0.928  -2.674  -0.527  0.00  0.00    +0.218 C 
ATOM     20  C   UNL     1       1.359  -2.531  -1.441  0.00  0.00    +0.126 C 
ATOM     21  C   UNL     1       0.929  -1.643   0.841  0.00  0.00    +0.126 C 
ATOM     22  C   UNL     1       2.438  -1.451  -1.499  0.00  0.00    +0.125 C 
ATOM     23  C   UNL     1       2.442  -1.809   0.990  0.00  0.00    +0.125 C 
ATOM     24  C   UNL     1       4.439  -0.860  -0.151  0.00  0.00    +0.121 A 
ATOM     26  C   UNL     1       4.815   0.069  -1.108  0.00  0.00    +0.043 A 
ATOM     29  C   UNL     1       6.113   0.566  -1.058  0.00  0.00    +0.005 A 
ATOM     30  C   UNL     1       6.510  -0.807   0.844  0.00  0.00    +0.113 A 
ATOM     31  C   UNL     1       6.982   0.125  -0.066  0.00  0.00    +0.020 A 
ENDBRANCH  17  19
ENDBRANCH  13  17
BRANCH  16  18
ATOM     18  C   UNL     1      -3.910   1.175  -0.015  0.00  0.00    +0.140 C 
BRANCH  18  10
ATOM     10  N   UNL     1      -3.082   1.838  -1.039  0.00  0.00    -0.187 NA
ATOM     37  H   UNL     1      -2.456   1.182  -1.527  0.00  0.00    +0.148 HD
BRANCH  10   2
ATOM      2  S   UNL     1      -2.418   3.376  -0.737  0.00  0.00    +0.058 S 
ATOM      7  O   UNL     1      -3.216   4.054   0.267  0.00  0.00    -0.153 OA
ATOM      8  O   UNL     1      -2.134   4.024  -2.003  0.00  0.00    -0.153 OA
BRANCH   2  25
ATOM      1 CL   UNL     1       3.108   1.903   1.851  0.00  0.00    -0.084 Cl
ATOM     25  C   UNL     1      -0.862   2.961  -0.009  0.00  0.00    +0.105 A 
ATOM     27  C   UNL     1       0.263   2.792  -0.815  0.00  0.00    +0.030 A 
ATOM     28  C   UNL     1      -0.759   2.803   1.374  0.00  0.00    +0.030 A 
ATOM     32  C   UNL     1       1.491   2.464  -0.240  0.00  0.00    +0.022 A 
ATOM     33  C   UNL     1       0.469   2.476   1.949  0.00  0.00    +0.022 A 
ATOM     34  C   UNL     1       1.593   2.306   1.142  0.00  0.00    +0.041 A 
ENDBRANCH   2  25
ENDBRANCH  10   2
ENDBRANCH  18  10
ENDBRANCH  16  18
TORSDOF 8
