REMARK  Name = 75536647
REMARK  8 active torsions:
REMARK  status: ('A' for Active; 'I' for Inactive)
REMARK    1  A    between atoms: O_3  and  C_10
REMARK    2  A    between atoms: N_5  and  C_9
REMARK    3  A    between atoms: N_5  and  C_14
REMARK    4  A    between atoms: N_6  and  C_13
REMARK    5  A    between atoms: N_7  and  C_19
REMARK    6  A    between atoms: C_11  and  C_13
REMARK    7  A    between atoms: C_14  and  C_15
REMARK    8  A    between atoms: C_16  and  C_18
REMARK                            x       y       z     vdW  Elec       q    Type
REMARK                         _______ _______ _______ _____ _____    ______ ____
ROOT
ATOM      2  O   UNL     1      -0.043   0.755  -0.027  0.00  0.00    -0.371 OA
ATOM      9  C   UNL     1      -2.103  -0.369   0.341  0.00  0.00    +0.111 C 
ATOM     10  C   UNL     1      -1.225  -1.225  -0.552  0.00  0.00    +0.164 C 
ATOM     11  C   UNL     1       0.152  -0.652  -0.246  0.00  0.00    +0.165 C 
ATOM     12  C   UNL     1      -1.445   0.993   0.194  0.00  0.00    +0.181 C 
ENDROOT
BRANCH  10   3
ATOM      3  O   UNL     1      -1.305  -2.602  -0.238  0.00  0.00    -0.388 OA
ATOM     27  H   UNL     1      -1.075  -2.716   0.700  0.00  0.00    +0.210 HD
ENDBRANCH  10   3
BRANCH   9   5
ATOM      5  N   UNL     1      -3.504  -0.365  -0.049  0.00  0.00    -0.302 NA
ATOM     26  H   UNL     1      -3.799  -1.322  -0.244  0.00  0.00    +0.123 HD
BRANCH   5  14
ATOM     14  C   UNL     1      -4.343   0.181   1.011  0.00  0.00    +0.156 C 
BRANCH  14  15
ATOM      7  N   UNL     1      -6.302   1.145  -0.239  0.00  0.00    -0.336 N 
ATOM      8  N   UNL     1      -6.724  -0.627   1.031  0.00  0.00    -0.239 NA
ATOM     15  C   UNL     1      -5.796   0.208   0.619  0.00  0.00    +0.123 A 
ATOM     17  C   UNL     1      -7.636   0.891  -0.383  0.00  0.00    +0.106 A 
ATOM     19  C   UNL     1      -5.574   2.213  -0.884  0.00  0.00    +0.150 C 
ATOM     20  C   UNL     1      -7.873  -0.207   0.410  0.00  0.00    +0.130 A 
ENDBRANCH  14  15
ENDBRANCH   5  14
ENDBRANCH   9   5
BRANCH  11  13
ATOM     13  C   UNL     1       1.153  -0.862  -1.368  0.00  0.00    +0.138 C 
BRANCH  13   6
ATOM      4  O   UNL     1       3.315  -2.200  -0.032  0.00  0.00    -0.270 OA
ATOM      6  N   UNL     1       2.432  -0.304  -1.037  0.00  0.00    -0.309 N 
ATOM     16  C   UNL     1       3.426  -1.029  -0.386  0.00  0.00    +0.244 C 
ATOM     28  H   UNL     1       2.564   0.682  -1.239  0.00  0.00    +0.149 HD
BRANCH  16  18
ATOM      1  F   UNL     1       8.187   1.731   0.725  0.00  0.00    -0.205 F 
ATOM     18  C   UNL     1       4.685  -0.298  -0.091  0.00  0.00    +0.037 A 
ATOM     21  C   UNL     1       5.480  -0.685   0.988  0.00  0.00    +0.016 A 
ATOM     22  C   UNL     1       5.074   0.774  -0.894  0.00  0.00    +0.016 A 
ATOM     23  C   UNL     1       6.663   0.000   1.264  0.00  0.00    +0.039 A 
ATOM     24  C   UNL     1       6.256   1.460  -0.618  0.00  0.00    +0.039 A 
ATOM     25  C   UNL     1       7.051   1.073   0.461  0.00  0.00    +0.123 A 
ENDBRANCH  16  18
ENDBRANCH  13   6
ENDBRANCH  11  13
TORSDOF 7
