REMARK  Name = 7050376
REMARK  4 active torsions:
REMARK  status: ('A' for Active; 'I' for Inactive)
REMARK    1  A    between atoms: N_7  and  C_10
REMARK    2  A    between atoms: C_15  and  C_18
REMARK    3  A    between atoms: C_25  and  C_29
REMARK    4  A    between atoms: C_28  and  C_31
REMARK                            x       y       z     vdW  Elec       q    Type
REMARK                         _______ _______ _______ _____ _____    ______ ____
ROOT
ATOM      2  O   UNL     1      -0.449  -3.056  -0.102  0.00  0.00    -0.273 OA
ATOM      3  O   UNL     1      -2.898   1.022   2.249  0.00  0.00    -0.270 OA
ATOM      6  N   UNL     1      -1.257  -0.049   1.018  0.00  0.00    -0.286 N 
ATOM      9  N   UNL     1      -2.626  -2.398  -0.150  0.00  0.00    -0.283 N 
ATOM     10  C   UNL     1       1.577  -0.855   0.602  0.00  0.00    +0.077 C 
ATOM     11  C   UNL     1       0.628  -0.487  -0.550  0.00  0.00    +0.054 C 
ATOM     12  C   UNL     1      -0.860  -0.682  -0.233  0.00  0.00    +0.164 C 
ATOM     13  C   UNL     1       0.929  -0.680   1.981  0.00  0.00    +0.041 C 
ATOM     14  C   UNL     1      -0.196   0.346   1.949  0.00  0.00    +0.111 C 
ATOM     21  C   UNL     1      -1.272  -2.140  -0.123  0.00  0.00    +0.238 C 
ATOM     22  C   UNL     1      -2.571   0.318   1.291  0.00  0.00    +0.249 C 
ATOM     23  C   UNL     1      -3.658  -0.186   0.409  0.00  0.00    +0.059 A 
ATOM     24  C   UNL     1      -3.693  -1.475  -0.147  0.00  0.00    +0.046 A 
ATOM     26  C   UNL     1      -4.790   0.644   0.297  0.00  0.00    +0.026 A 
ATOM     27  C   UNL     1      -4.885  -1.927  -0.740  0.00  0.00    +0.025 A 
ATOM     28  C   UNL     1      -5.947   0.195  -0.338  0.00  0.00    +0.018 A 
ATOM     30  C   UNL     1      -6.000  -1.096  -0.844  0.00  0.00    +0.013 A 
ATOM     36  H   UNL     1      -2.881  -3.373  -0.294  0.00  0.00    +0.155 HD
ENDROOT
BRANCH  28  31
ATOM      5  O   UNL     1      -8.175   0.515  -1.056  0.00  0.00    -0.463 OA
ATOM     31  C   UNL     1      -7.096   1.061  -0.443  0.00  0.00    +0.135 A 
ATOM     32  C   UNL     1      -7.351   2.350  -0.053  0.00  0.00    +0.050 A 
ATOM     33  C   UNL     1      -8.682   2.620  -0.453  0.00  0.00    +0.042 A 
ATOM     34  C   UNL     1      -9.139   1.473  -1.058  0.00  0.00    +0.196 A 
ENDBRANCH  28  31
BRANCH  10   7
ATOM      1  O   UNL     1       3.973  -1.534  -0.895  0.00  0.00    -0.276 OA
ATOM      7  N   UNL     1       2.799  -0.086   0.500  0.00  0.00    -0.312 N 
ATOM     18  C   UNL     1       3.894  -0.496  -0.243  0.00  0.00    +0.216 C 
ATOM     35  H   UNL     1       2.822   0.821   0.957  0.00  0.00    +0.149 HD
BRANCH  18  15
ATOM      4  O   UNL     1       9.901   0.497   0.657  0.00  0.00    -0.276 OA
ATOM      8  N   UNL     1       7.853   1.045  -0.293  0.00  0.00    -0.302 N 
ATOM     15  C   UNL     1       5.015   0.496  -0.199  0.00  0.00    +0.078 C 
ATOM     16  C   UNL     1       5.935   0.172   0.982  0.00  0.00    +0.032 C 
ATOM     17  C   UNL     1       5.793   0.470  -1.517  0.00  0.00    +0.032 C 
ATOM     19  C   UNL     1       7.157   1.086   0.994  0.00  0.00    +0.108 C 
ATOM     20  C   UNL     1       7.019   1.379  -1.454  0.00  0.00    +0.108 C 
ATOM     25  C   UNL     1       9.214   0.742  -0.337  0.00  0.00    +0.212 C 
ATOM     29  C   UNL     1       9.856   0.717  -1.701  0.00  0.00    +0.109 C 
ENDBRANCH  18  15
ENDBRANCH  10   7
TORSDOF 3
