REMARK  Name = 45783807
REMARK  9 active torsions:
REMARK  status: ('A' for Active; 'I' for Inactive)
REMARK    1  A    between atoms: N_2  and  C_11
REMARK    2  A    between atoms: N_6  and  C_26
REMARK    3  A    between atoms: N_6  and  C_27
REMARK    4  A    between atoms: N_6  and  C_28
REMARK    5  A    between atoms: C_7  and  C_12
REMARK    6  A    between atoms: C_11  and  C_13
REMARK    7  A    between atoms: C_13  and  C_14
REMARK    8  A    between atoms: C_14  and  C_15
REMARK    9  A    between atoms: C_16  and  C_17
REMARK                            x       y       z     vdW  Elec       q    Type
REMARK                         _______ _______ _______ _____ _____    ______ ____
ROOT
ATOM      2  N   UNL     1      -2.552  -2.128  -0.076  0.00  0.00    -0.291 NA
ATOM      7  C   UNL     1      -1.581  -3.229   0.078  0.00  0.00    +0.146 C 
ATOM      8  C   UNL     1      -1.740  -4.072  -1.200  0.00  0.00    +0.030 C 
ATOM      9  C   UNL     1      -3.631  -2.643  -0.920  0.00  0.00    +0.085 C 
ATOM     10  C   UNL     1      -2.862  -3.404  -1.981  0.00  0.00    +0.017 C 
ENDROOT
BRANCH   7  12
ATOM      1  O   UNL     1       0.670  -3.548   0.975  0.00  0.00    -0.336 OA
ATOM      3  N   UNL     1       0.388  -1.616  -0.123  0.00  0.00    -0.190 NA
ATOM      4  N   UNL     1       1.903  -2.885   1.030  0.00  0.00    -0.056 NA
ATOM     12  C   UNL     1      -0.165  -2.732   0.279  0.00  0.00    +0.245 A 
ATOM     16  C   UNL     1       1.656  -1.754   0.362  0.00  0.00    +0.204 A 
BRANCH  16  17
ATOM      5  N   UNL     1       4.925   0.014   0.502  0.00  0.00    -0.240 NA
ATOM     17  C   UNL     1       2.655  -0.744   0.159  0.00  0.00    +0.041 A 
ATOM     22  C   UNL     1       2.364   0.420  -0.543  0.00  0.00    +0.016 A 
ATOM     23  C   UNL     1       3.939  -0.898   0.657  0.00  0.00    +0.124 A 
ATOM     25  C   UNL     1       3.352   1.382  -0.724  0.00  0.00    +0.044 A 
ATOM     26  C   UNL     1       4.605   1.133  -0.186  0.00  0.00    +0.121 A 
BRANCH  26   6
ATOM      6  N   UNL     1       5.601   2.121  -0.379  0.00  0.00    -0.321 N 
ATOM     27  C   UNL     1       6.929   1.931   0.161  0.00  0.00    +0.130 C 
ATOM     28  C   UNL     1       5.295   3.330  -1.111  0.00  0.00    +0.130 C 
ENDBRANCH  26   6
ENDBRANCH  16  17
ENDBRANCH   7  12
BRANCH   2  11
ATOM     11  C   UNL     1      -3.048  -1.617   1.195  0.00  0.00    +0.085 C 
BRANCH  11  13
ATOM     13  C   UNL     1      -3.651  -0.226   1.009  0.00  0.00    +0.020 C 
BRANCH  13  14
ATOM     14  C   UNL     1      -2.605   0.764   0.490  0.00  0.00    +0.036 C 
BRANCH  14  15
ATOM     15  C   UNL     1      -3.195   2.133   0.266  0.00  0.00    -0.047 A 
ATOM     18  C   UNL     1      -3.743   2.462  -0.975  0.00  0.00    +0.003 A 
ATOM     19  C   UNL     1      -3.194   3.071   1.298  0.00  0.00    +0.003 A 
ATOM     20  C   UNL     1      -4.289   3.729  -1.182  0.00  0.00    +0.000 A 
ATOM     21  C   UNL     1      -3.740   4.338   1.090  0.00  0.00    +0.000 A 
ATOM     24  C   UNL     1      -4.287   4.667  -0.150  0.00  0.00    +0.000 A 
ENDBRANCH  14  15
ENDBRANCH  13  14
ENDBRANCH  11  13
ENDBRANCH   2  11
TORSDOF 7
