REMARK  Name = 38030682
REMARK  10 active torsions:
REMARK  status: ('A' for Active; 'I' for Inactive)
REMARK    1  A    between atoms: N_3  and  C_11
REMARK    2  A    between atoms: C_6  and  C_10
REMARK    3  A    between atoms: C_7  and  C_11
REMARK    4  A    between atoms: C_9  and  C_14
REMARK    5  A    between atoms: C_10  and  C_15
REMARK    6  A    between atoms: C_10  and  C_16
REMARK    7  A    between atoms: C_13  and  C_17
REMARK    8  A    between atoms: C_14  and  C_20
REMARK    9  A    between atoms: C_23  and  C_24
REMARK   10  A    between atoms: C_29  and  C_30
REMARK                            x       y       z     vdW  Elec       q    Type
REMARK                         _______ _______ _______ _____ _____    ______ ____
ROOT
ATOM      6  C   UNL     1      -2.095   0.129   0.830  0.00  0.00    +0.000 C 
ATOM      7  C   UNL     1      -3.213   1.154   0.531  0.00  0.00    +0.029 C 
ATOM      8  C   UNL     1      -0.954   0.265  -0.188  0.00  0.00    +0.012 C 
ATOM      9  C   UNL     1      -0.348   1.684  -0.241  0.00  0.00    +0.024 C 
ATOM     12  C   UNL     1      -2.671   2.524   0.209  0.00  0.00    -0.023 C 
ATOM     13  C   UNL     1      -1.394   2.783  -0.125  0.00  0.00    -0.073 C 
ATOM     17  C   UNL     1      -0.939   4.200  -0.342  0.00  0.00    +0.039 C 
ENDROOT
BRANCH   6  10
ATOM     10  C   UNL     1      -1.576   0.269   2.268  0.00  0.00    -0.013 C 
ATOM     15  C   UNL     1      -2.729   0.166   3.262  0.00  0.00    +0.007 C 
ATOM     16  C   UNL     1      -0.516  -0.789   2.557  0.00  0.00    +0.007 C 
ENDBRANCH   6  10
BRANCH   7  11
ATOM     11  C   UNL     1      -4.117   0.688  -0.615  0.00  0.00    +0.092 C 
BRANCH  11   3
ATOM      1  O   UNL     1      -6.818  -2.508  -0.291  0.00  0.00    -0.377 OA
ATOM      3  N   UNL     1      -4.680  -0.629  -0.325  0.00  0.00    -0.297 NA
ATOM     18  C   UNL     1      -5.153  -1.277  -1.556  0.00  0.00    +0.112 C 
ATOM     19  C   UNL     1      -5.780  -0.524   0.644  0.00  0.00    +0.112 C 
ATOM     21  C   UNL     1      -5.748  -2.643  -1.227  0.00  0.00    +0.175 C 
ATOM     22  C   UNL     1      -6.359  -1.909   0.921  0.00  0.00    +0.175 C 
ENDBRANCH  11   3
ENDBRANCH   7  11
BRANCH   9  14
ATOM     14  C   UNL     1       0.506   1.804  -1.509  0.00  0.00    +0.105 C 
BRANCH  14  20
ATOM      2  O   UNL     1       2.624   0.828  -0.788  0.00  0.00    -0.420 OA
ATOM      4  N   UNL     1       1.535  -0.378  -2.325  0.00  0.00    -0.112 NA
ATOM      5  N   UNL     1       2.706  -1.042  -2.012  0.00  0.00    -0.107 NA
ATOM     20  C   UNL     1       1.529   0.707  -1.588  0.00  0.00    +0.218 A 
ATOM     23  C   UNL     1       3.309  -0.302  -1.111  0.00  0.00    +0.248 A 
BRANCH  23  24
ATOM     24  C   UNL     1       4.555  -0.497  -0.428  0.00  0.00    +0.038 A 
ATOM     25  C   UNL     1       5.327  -1.628  -0.695  0.00  0.00    +0.013 A 
ATOM     26  C   UNL     1       4.996   0.445   0.501  0.00  0.00    +0.013 A 
ATOM     27  C   UNL     1       6.539  -1.818  -0.031  0.00  0.00    +0.004 A 
ATOM     28  C   UNL     1       6.208   0.255   1.165  0.00  0.00    +0.004 A 
ATOM     29  C   UNL     1       6.980  -0.876   0.899  0.00  0.00    -0.050 A 
ATOM     30  C   UNL     1       8.275  -1.079   1.609  0.00  0.00    +0.044 C 
ENDBRANCH  23  24
ENDBRANCH  14  20
ENDBRANCH   9  14
TORSDOF 6
