REMARK  Name = 51137522
REMARK  7 active torsions:
REMARK  status: ('A' for Active; 'I' for Inactive)
REMARK    1  A    between atoms: N_3  and  C_11
REMARK    2  A    between atoms: N_6  and  C_23
REMARK    3  A    between atoms: N_6  and  C_26
REMARK    4  A    between atoms: N_6  and  C_27
REMARK    5  A    between atoms: C_7  and  C_12
REMARK    6  A    between atoms: C_11  and  C_13
REMARK    7  A    between atoms: C_14  and  C_17
REMARK                            x       y       z     vdW  Elec       q    Type
REMARK                         _______ _______ _______ _____ _____    ______ ____
ROOT
ATOM      2  O   UNL     1       1.290  -1.141   0.150  0.00  0.00    -0.420 OA
ATOM      4  N   UNL     1       1.302  -3.373   0.016  0.00  0.00    -0.112 NA
ATOM      5  N   UNL     1       2.610  -2.934  -0.059  0.00  0.00    -0.107 NA
ATOM     12  C   UNL     1       0.566  -2.293   0.137  0.00  0.00    +0.222 A 
ATOM     14  C   UNL     1       2.556  -1.625   0.023  0.00  0.00    +0.248 A 
ENDROOT
BRANCH  14  17
ATOM     17  C   UNL     1       3.604  -0.647   0.001  0.00  0.00    +0.039 A 
ATOM     21  C   UNL     1       4.933  -1.050  -0.125  0.00  0.00    +0.015 A 
ATOM     22  C   UNL     1       3.293   0.709   0.105  0.00  0.00    +0.015 A 
ATOM     23  C   UNL     1       5.642   1.258  -0.043  0.00  0.00    +0.029 A 
ATOM     24  C   UNL     1       5.952  -0.099  -0.147  0.00  0.00    +0.024 A 
ATOM     25  C   UNL     1       4.312   1.661   0.083  0.00  0.00    +0.024 A 
BRANCH  23   6
ATOM      6  N   UNL     1       6.672   2.220  -0.064  0.00  0.00    -0.336 N 
ATOM     26  C   UNL     1       8.057   1.810  -0.193  0.00  0.00    +0.129 C 
ATOM     27  C   UNL     1       6.360   3.632   0.036  0.00  0.00    +0.129 C 
ENDBRANCH  23   6
ENDBRANCH  14  17
BRANCH  12   7
ATOM      3  N   UNL     1      -2.727  -0.731  -0.234  0.00  0.00    -0.297 NA
ATOM      7  C   UNL     1      -0.934  -2.159   0.260  0.00  0.00    +0.092 C 
ATOM      8  C   UNL     1      -1.418  -1.474   1.551  0.00  0.00    +0.029 C 
ATOM      9  C   UNL     1      -1.556  -1.333  -0.874  0.00  0.00    +0.097 C 
ATOM     10  C   UNL     1      -2.256  -0.293   1.080  0.00  0.00    +0.085 C 
BRANCH   3  11
ATOM     11  C   UNL     1      -3.286   0.363  -1.015  0.00  0.00    +0.119 C 
BRANCH  11  13
ATOM      1 CL   UNL     1      -8.930   1.634   0.635  0.00  0.00    -0.084 Cl
ATOM     13  C   UNL     1      -4.699   0.682  -0.602  0.00  0.00    -0.033 A 
ATOM     15  C   UNL     1      -5.769   0.037  -1.223  0.00  0.00    +0.006 A 
ATOM     16  C   UNL     1      -4.937   1.622   0.400  0.00  0.00    +0.006 A 
ATOM     18  C   UNL     1      -7.077   0.333  -0.841  0.00  0.00    +0.020 A 
ATOM     19  C   UNL     1      -6.246   1.918   0.782  0.00  0.00    +0.020 A 
ATOM     20  C   UNL     1      -7.316   1.273   0.162  0.00  0.00    +0.041 A 
ENDBRANCH  11  13
ENDBRANCH   3  11
ENDBRANCH  12   7
TORSDOF 5
