REMARK  Name = 75368531
REMARK  4 active torsions:
REMARK  status: ('A' for Active; 'I' for Inactive)
REMARK    1  A    between atoms: N_6  and  C_16
REMARK    2  A    between atoms: N_8  and  C_23
REMARK    3  A    between atoms: C_16  and  C_18
REMARK    4  A    between atoms: C_17  and  C_19
REMARK                            x       y       z     vdW  Elec       q    Type
REMARK                         _______ _______ _______ _____ _____    ______ ____
ROOT
ATOM      1  O   UNL     1      -3.486   2.396   1.205  0.00  0.00    -0.252 OA
ATOM      2  O   UNL     1       3.213   2.978  -0.692  0.00  0.00    -0.270 OA
ATOM      5  N   UNL     1      -1.265   1.781   0.749  0.00  0.00    -0.278 N 
ATOM      6  N   UNL     1      -2.780   0.151   1.060  0.00  0.00    -0.276 N 
ATOM      7  N   UNL     1       1.193   1.811  -0.547  0.00  0.00    -0.294 N 
ATOM     10  C   UNL     1      -0.493   0.551   0.713  0.00  0.00    +0.112 C 
ATOM     11  C   UNL     1      -1.555  -0.545   0.709  0.00  0.00    +0.134 C 
ATOM     12  C   UNL     1       0.434   0.546  -0.499  0.00  0.00    +0.132 C 
ATOM     13  C   UNL     1      -0.593   3.061   0.608  0.00  0.00    +0.128 C 
ATOM     14  C   UNL     1       0.361   3.022  -0.585  0.00  0.00    +0.127 C 
ATOM     15  C   UNL     1      -2.619   1.550   1.031  0.00  0.00    +0.306 C 
ATOM     17  C   UNL     1       2.583   1.924  -0.607  0.00  0.00    +0.247 C 
ENDROOT
BRANCH  17  19
ATOM      3  O   UNL     1       5.044  -1.599   1.780  0.00  0.00    -0.453 OA
ATOM      4  O   UNL     1       5.612  -2.741  -0.265  0.00  0.00    -0.453 OA
ATOM     19  C   UNL     1       3.380   0.692  -0.554  0.00  0.00    +0.041 A 
ATOM     20  C   UNL     1       3.801   0.192   0.680  0.00  0.00    +0.062 A 
ATOM     21  C   UNL     1       3.712   0.026  -1.747  0.00  0.00    +0.017 A 
ATOM     25  C   UNL     1       4.548  -0.969   0.680  0.00  0.00    +0.167 A 
ATOM     26  C   UNL     1       4.469  -1.148  -1.719  0.00  0.00    +0.050 A 
ATOM     27  C   UNL     1       4.873  -1.620  -0.487  0.00  0.00    +0.166 A 
ATOM     28  C   UNL     1       5.717  -2.721   1.173  0.00  0.00    +0.466 C 
ENDBRANCH  17  19
BRANCH   6  16
ATOM     16  C   UNL     1      -4.026  -0.552   1.273  0.00  0.00    +0.183 C 
BRANCH  16  18
ATOM      8  N   UNL     1      -5.512  -1.974  -0.170  0.00  0.00    -0.336 N 
ATOM      9  N   UNL     1      -4.657  -0.161  -1.126  0.00  0.00    -0.239 NA
ATOM     18  C   UNL     1      -4.719  -0.870  -0.021  0.00  0.00    +0.127 A 
ATOM     22  C   UNL     1      -5.985  -1.968  -1.452  0.00  0.00    +0.106 A 
ATOM     23  C   UNL     1      -5.807  -2.972   0.831  0.00  0.00    +0.150 C 
ATOM     24  C   UNL     1      -5.444  -0.840  -2.022  0.00  0.00    +0.130 A 
ENDBRANCH  16  18
ENDBRANCH   6  16
TORSDOF 3
