REMARK  Name = 44716383
REMARK  8 active torsions:
REMARK  status: ('A' for Active; 'I' for Inactive)
REMARK    1  A    between atoms: S_1  and  N_9
REMARK    2  A    between atoms: S_1  and  C_30
REMARK    3  A    between atoms: O_5  and  C_35
REMARK    4  A    between atoms: O_5  and  C_36
REMARK    5  A    between atoms: N_7  and  C_16
REMARK    6  A    between atoms: N_9  and  C_23
REMARK    7  A    between atoms: C_11  and  C_16
REMARK    8  A    between atoms: C_13  and  C_23
REMARK                            x       y       z     vdW  Elec       q    Type
REMARK                         _______ _______ _______ _____ _____    ______ ____
ROOT
ATOM      6  N   UNL     1      -0.533   3.192  -0.927  0.00  0.00    -0.298 NA
ATOM     10  C   UNL     1      -0.445   3.380   1.666  0.00  0.00    -0.003 C 
ATOM     11  C   UNL     1       0.618   2.384   1.148  0.00  0.00    +0.020 C 
ATOM     12  C   UNL     1      -1.839   2.931   1.189  0.00  0.00    +0.024 C 
ATOM     13  C   UNL     1      -1.889   2.974  -0.354  0.00  0.00    +0.072 C 
ATOM     14  C   UNL     1       0.425   2.204  -0.374  0.00  0.00    +0.089 C 
ATOM     15  C   UNL     1      -0.149   4.737   0.999  0.00  0.00    +0.019 C 
ATOM     17  C   UNL     1      -0.081   4.547  -0.527  0.00  0.00    +0.085 C 
ENDROOT
BRANCH  11  16
ATOM     16  C   UNL     1       0.596   1.051   1.878  0.00  0.00    +0.089 C 
BRANCH  16   7
ATOM      2  O   UNL     1       3.150  -1.720  -2.987  0.00  0.00    -0.268 OA
ATOM      7  N   UNL     1       1.675   0.180   1.419  0.00  0.00    -0.301 NA
ATOM      8  N   UNL     1       3.608  -1.089  -0.779  0.00  0.00    -0.312 N 
ATOM     18  C   UNL     1       2.500  -2.182   1.256  0.00  0.00    +0.024 C 
ATOM     19  C   UNL     1       4.109  -0.363   1.579  0.00  0.00    +0.050 C 
ATOM     20  C   UNL     1       1.360  -1.230   1.676  0.00  0.00    +0.089 C 
ATOM     21  C   UNL     1       2.957   0.565   2.028  0.00  0.00    +0.094 C 
ATOM     22  C   UNL     1       3.788  -1.802   1.975  0.00  0.00    +0.017 C 
ATOM     24  C   UNL     1       2.753  -2.164  -0.258  0.00  0.00    +0.130 C 
ATOM     25  C   UNL     1       4.327  -0.253   0.082  0.00  0.00    +0.026 A 
ATOM     26  C   UNL     1       5.187   0.652  -0.417  0.00  0.00    +0.022 A 
ATOM     27  C   UNL     1       3.742  -1.006  -2.178  0.00  0.00    +0.251 A 
ATOM     28  C   UNL     1       5.367   0.790  -1.835  0.00  0.00    +0.007 A 
ATOM     29  C   UNL     1       4.686   0.025  -2.692  0.00  0.00    +0.070 A 
ENDBRANCH  16   7
ENDBRANCH  11  16
BRANCH  13  23
ATOM     23  C   UNL     1      -2.575   1.735  -0.935  0.00  0.00    +0.124 C 
BRANCH  23   9
ATOM      9  N   UNL     1      -3.950   1.644  -0.473  0.00  0.00    -0.188 NA
ATOM     37  H   UNL     1      -4.152   2.039   0.453  0.00  0.00    +0.148 HD
BRANCH   9   1
ATOM      1  S   UNL     1      -4.962   0.360  -0.986  0.00  0.00    +0.058 S 
ATOM      3  O   UNL     1      -4.962   0.312  -2.436  0.00  0.00    -0.153 OA
ATOM      4  O   UNL     1      -6.215   0.406  -0.258  0.00  0.00    -0.153 OA
BRANCH   1  30
ATOM     30  C   UNL     1      -4.072  -1.048  -0.395  0.00  0.00    +0.105 A 
ATOM     31  C   UNL     1      -3.118  -1.661  -1.206  0.00  0.00    +0.032 A 
ATOM     32  C   UNL     1      -4.326  -1.548   0.883  0.00  0.00    +0.032 A 
ATOM     33  C   UNL     1      -2.417  -2.774  -0.741  0.00  0.00    +0.047 A 
ATOM     34  C   UNL     1      -3.626  -2.661   1.348  0.00  0.00    +0.047 A 
ATOM     35  C   UNL     1      -2.672  -3.274   0.536  0.00  0.00    +0.120 A 
BRANCH  35   5
ATOM      5  O   UNL     1      -1.988  -4.360   0.991  0.00  0.00    -0.495 OA
ATOM     36  C   UNL     1      -1.027  -4.937   0.109  0.00  0.00    +0.277 C 
ENDBRANCH  35   5
ENDBRANCH   1  30
ENDBRANCH   9   1
ENDBRANCH  23   9
ENDBRANCH  13  23
TORSDOF 7
