REMARK  Name = 11886113
REMARK  6 active torsions:
REMARK  status: ('A' for Active; 'I' for Inactive)
REMARK    1  A    between atoms: O_4  and  C_19
REMARK    2  A    between atoms: O_4  and  C_25
REMARK    3  A    between atoms: N_5  and  C_12
REMARK    4  A    between atoms: N_6  and  C_13
REMARK    5  A    between atoms: C_16  and  C_18
REMARK    6  A    between atoms: C_17  and  C_19
REMARK                            x       y       z     vdW  Elec       q    Type
REMARK                         _______ _______ _______ _____ _____    ______ ____
ROOT
ATOM      1  O   UNL     1      -0.925   2.218   1.272  0.00  0.00    -0.370 OA
ATOM      2  O   UNL     1      -0.296  -0.833   1.703  0.00  0.00    -0.370 OA
ATOM     10  C   UNL     1      -0.135   0.072   0.596  0.00  0.00    +0.176 C 
ATOM     11  C   UNL     1      -1.327   1.010   0.607  0.00  0.00    +0.171 C 
ATOM     12  C   UNL     1       1.064   0.970   0.835  0.00  0.00    +0.168 C 
ATOM     13  C   UNL     1      -2.368   0.282   1.428  0.00  0.00    +0.130 C 
ATOM     14  C   UNL     1       0.467   2.140   1.610  0.00  0.00    +0.190 C 
ATOM     15  C   UNL     1      -1.515  -0.522   2.392  0.00  0.00    +0.185 C 
ENDROOT
BRANCH  12   5
ATOM      5  N   UNL     1       1.750   1.334  -0.407  0.00  0.00    -0.217 N 
ATOM      7  N   UNL     1       1.365   2.407  -1.106  0.00  0.00    -0.043 NA
ATOM      8  N   UNL     1       3.078   1.395  -2.112  0.00  0.00    -0.108 NA
ATOM      9  N   UNL     1       2.183   2.441  -2.151  0.00  0.00    -0.023 NA
ATOM     16  C   UNL     1       2.790   0.723  -1.021  0.00  0.00    +0.182 A 
BRANCH  16  18
ATOM     18  C   UNL     1       3.448  -0.463  -0.536  0.00  0.00    +0.021 A 
ATOM     20  C   UNL     1       4.540  -0.353   0.326  0.00  0.00    +0.011 A 
ATOM     21  C   UNL     1       2.995  -1.725  -0.927  0.00  0.00    +0.011 A 
ATOM     22  C   UNL     1       5.178  -1.502   0.796  0.00  0.00    +0.001 A 
ATOM     23  C   UNL     1       3.633  -2.873  -0.457  0.00  0.00    +0.001 A 
ATOM     24  C   UNL     1       4.725  -2.761   0.405  0.00  0.00    +0.000 A 
ENDBRANCH  16  18
ENDBRANCH  12   5
BRANCH  13   6
ATOM      3  O   UNL     1      -4.932   0.897   0.226  0.00  0.00    -0.273 OA
ATOM      6  N   UNL     1      -3.175  -0.581   0.600  0.00  0.00    -0.306 N 
ATOM     17  C   UNL     1      -4.397  -0.197   0.067  0.00  0.00    +0.239 C 
ATOM     26  H   UNL     1      -2.802  -1.496   0.359  0.00  0.00    +0.149 HD
BRANCH  17  19
ATOM     19  C   UNL     1      -5.022  -1.300  -0.760  0.00  0.00    +0.255 C 
BRANCH  19   4
ATOM      4  O   UNL     1      -6.256  -0.880  -1.302  0.00  0.00    -0.374 OA
ATOM     25  C   UNL     1      -6.867  -1.900  -2.086  0.00  0.00    +0.194 C 
ENDBRANCH  19   4
ENDBRANCH  17  19
ENDBRANCH  13   6
TORSDOF 5
