REMARK  Name = 51137598
REMARK  6 active torsions:
REMARK  status: ('A' for Active; 'I' for Inactive)
REMARK    1  A    between atoms: O_3  and  C_20
REMARK    2  A    between atoms: O_3  and  C_21
REMARK    3  A    between atoms: N_4  and  C_8
REMARK    4  A    between atoms: N_5  and  C_18
REMARK    5  A    between atoms: C_10  and  C_17
REMARK    6  A    between atoms: C_19  and  C_20
REMARK                            x       y       z     vdW  Elec       q    Type
REMARK                         _______ _______ _______ _____ _____    ______ ____
ROOT
ATOM      2  O   UNL     1       0.987   0.063  -0.143  0.00  0.00    -0.421 OA
ATOM      6  N   UNL     1      -0.076  -0.324   1.787  0.00  0.00    -0.112 NA
ATOM      7  N   UNL     1       1.216   0.069   2.082  0.00  0.00    -0.109 NA
ATOM     17  C   UNL     1      -0.165  -0.313   0.477  0.00  0.00    +0.222 A 
ATOM     19  C   UNL     1       1.800   0.284   0.926  0.00  0.00    +0.254 A 
ENDROOT
BRANCH  17  10
ATOM      4  N   UNL     1      -3.683  -0.625  -0.498  0.00  0.00    -0.299 NA
ATOM      9  C   UNL     1      -2.557   0.249  -0.160  0.00  0.00    +0.097 C 
ATOM     10  C   UNL     1      -1.339  -0.650  -0.411  0.00  0.00    +0.092 C 
ATOM     11  C   UNL     1      -3.348  -1.918   0.098  0.00  0.00    +0.085 C 
ATOM     12  C   UNL     1      -1.876  -2.084  -0.257  0.00  0.00    +0.029 C 
BRANCH   4   8
ATOM      5  N   UNL     1      -7.684   0.807  -0.568  0.00  0.00    -0.305 NA
ATOM      8  C   UNL     1      -4.959  -0.103  -0.013  0.00  0.00    +0.059 C 
ATOM     13  C   UNL     1      -6.092  -1.075  -0.352  0.00  0.00    +0.034 C 
ATOM     14  C   UNL     1      -5.253   1.273  -0.617  0.00  0.00    +0.034 C 
ATOM     15  C   UNL     1      -7.450  -0.500   0.060  0.00  0.00    +0.085 C 
ATOM     16  C   UNL     1      -6.638   1.771  -0.197  0.00  0.00    +0.085 C 
ATOM     18  C   UNL     1      -9.005   1.320  -0.206  0.00  0.00    +0.104 C 
ENDBRANCH   4   8
ENDBRANCH  17  10
BRANCH  19  20
ATOM     20  C   UNL     1       3.172   0.721   0.637  0.00  0.00    +0.326 C 
BRANCH  20   3
ATOM      3  O   UNL     1       3.954  -0.380   0.167  0.00  0.00    -0.483 OA
BRANCH   3  21
ATOM      1  F   UNL     1       9.264   0.635  -0.824  0.00  0.00    -0.205 F 
ATOM     21  C   UNL     1       5.274  -0.128  -0.079  0.00  0.00    +0.121 A 
ATOM     22  C   UNL     1       5.791   1.151   0.130  0.00  0.00    +0.048 A 
ATOM     23  C   UNL     1       6.106  -1.149  -0.540  0.00  0.00    +0.048 A 
ATOM     24  C   UNL     1       7.138   1.409  -0.122  0.00  0.00    +0.042 A 
ATOM     25  C   UNL     1       7.453  -0.891  -0.792  0.00  0.00    +0.042 A 
ATOM     26  C   UNL     1       7.970   0.388  -0.583  0.00  0.00    +0.124 A 
ENDBRANCH   3  21
ENDBRANCH  20   3
ENDBRANCH  19  20
TORSDOF 5
