REMARK  Name = 7050338
REMARK  7 active torsions:
REMARK  status: ('A' for Active; 'I' for Inactive)
REMARK    1  A    between atoms: S_2  and  C_29
REMARK    2  A    between atoms: S_2  and  C_31
REMARK    3  A    between atoms: O_6  and  C_24
REMARK    4  A    between atoms: O_6  and  C_30
REMARK    5  A    between atoms: N_8  and  C_17
REMARK    6  A    between atoms: N_9  and  C_11
REMARK    7  A    between atoms: C_18  and  C_21
REMARK                            x       y       z     vdW  Elec       q    Type
REMARK                         _______ _______ _______ _____ _____    ______ ____
ROOT
ATOM      3  O   UNL     1      -2.791  -1.444   1.653  0.00  0.00    -0.273 OA
ATOM      4  O   UNL     1      -3.312   1.513  -1.889  0.00  0.00    -0.252 OA
ATOM      7  N   UNL     1      -1.487   0.737  -0.685  0.00  0.00    -0.273 N 
ATOM      8  N   UNL     1      -3.503  -0.077  -0.145  0.00  0.00    -0.193 N 
ATOM     10  C   UNL     1      -1.202  -0.142   0.416  0.00  0.00    +0.166 C 
ATOM     11  C   UNL     1       0.642   1.468   1.081  0.00  0.00    +0.077 C 
ATOM     12  C   UNL     1      -0.546   0.618   1.564  0.00  0.00    +0.054 C 
ATOM     13  C   UNL     1       0.250   2.353  -0.116  0.00  0.00    +0.041 C 
ATOM     14  C   UNL     1      -0.421   1.555  -1.235  0.00  0.00    +0.112 C 
ATOM     15  C   UNL     1      -2.597  -0.641   0.748  0.00  0.00    +0.248 C 
ATOM     16  C   UNL     1      -2.841   0.788  -1.022  0.00  0.00    +0.316 C 
ENDROOT
BRANCH   8  17
ATOM      1 CL   UNL     1      -9.360  -1.109  -0.174  0.00  0.00    -0.084 Cl
ATOM     17  C   UNL     1      -4.913  -0.326  -0.152  0.00  0.00    +0.046 A 
ATOM     19  C   UNL     1      -5.578  -0.630   1.038  0.00  0.00    +0.025 A 
ATOM     20  C   UNL     1      -5.630  -0.266  -1.349  0.00  0.00    +0.025 A 
ATOM     22  C   UNL     1      -6.952  -0.872   1.032  0.00  0.00    +0.022 A 
ATOM     23  C   UNL     1      -7.004  -0.508  -1.356  0.00  0.00    +0.022 A 
ATOM     26  C   UNL     1      -7.665  -0.811  -0.166  0.00  0.00    +0.041 A 
ENDBRANCH   8  17
BRANCH  11   9
ATOM      5  O   UNL     1       3.348   2.200   1.378  0.00  0.00    -0.270 OA
ATOM      9  N   UNL     1       1.781   0.640   0.758  0.00  0.00    -0.308 N 
ATOM     18  C   UNL     1       3.091   1.079   0.936  0.00  0.00    +0.248 C 
ATOM     32  H   UNL     1       1.599  -0.246   0.299  0.00  0.00    +0.149 HD
BRANCH  18  21
ATOM     21  C   UNL     1       4.141   0.110   0.594  0.00  0.00    +0.078 A 
ATOM     24  C   UNL     1       5.375   0.546   0.130  0.00  0.00    +0.133 A 
ATOM     25  C   UNL     1       3.872  -1.244   0.743  0.00  0.00    +0.018 A 
ATOM     27  C   UNL     1       6.358  -0.391  -0.191  0.00  0.00    +0.061 A 
ATOM     28  C   UNL     1       4.855  -2.179   0.422  0.00  0.00    +0.015 A 
ATOM     29  C   UNL     1       6.098  -1.753  -0.044  0.00  0.00    +0.011 A 
BRANCH  29   2
ATOM      2  S   UNL     1       7.354  -2.949  -0.453  0.00  0.00    -0.128 S 
ATOM     31  C   UNL     1       7.644  -2.595  -2.210  0.00  0.00    +0.090 C 
ENDBRANCH  29   2
BRANCH  24   6
ATOM      6  O   UNL     1       5.648   1.872  -0.020  0.00  0.00    -0.494 OA
ATOM     30  C   UNL     1       5.345   2.457  -1.284  0.00  0.00    +0.277 C 
ENDBRANCH  24   6
ENDBRANCH  18  21
ENDBRANCH  11   9
TORSDOF 5
