REMARK  Name = 25390377
REMARK  11 active torsions:
REMARK  status: ('A' for Active; 'I' for Inactive)
REMARK    1  A    between atoms: O_2  and  C_11
REMARK    2  A    between atoms: O_3  and  C_12
REMARK    3  A    between atoms: N_7  and  C_15
REMARK    4  A    between atoms: C_10  and  C_14
REMARK    5  A    between atoms: C_13  and  C_15
REMARK    6  A    between atoms: C_14  and  C_16
REMARK    7  A    between atoms: C_21  and  C_22
REMARK    8  A    between atoms: C_21  and  C_24
REMARK    9  A    between atoms: C_21  and  C_25
REMARK   10  A    between atoms: C_24  and  C_27
REMARK   11  A    between atoms: C_25  and  C_28
REMARK                            x       y       z     vdW  Elec       q    Type
REMARK                         _______ _______ _______ _____ _____    ______ ____
ROOT
ATOM      1  O   UNL     1      -3.224  -1.153  -1.055  0.00  0.00    -0.366 OA
ATOM     10  C   UNL     1      -3.149  -2.052   0.075  0.00  0.00    +0.159 C 
ATOM     11  C   UNL     1      -4.211  -1.589   1.065  0.00  0.00    +0.175 C 
ATOM     12  C   UNL     1      -4.294  -0.106   0.767  0.00  0.00    +0.176 C 
ATOM     13  C   UNL     1      -4.143  -0.090  -0.745  0.00  0.00    +0.167 C 
ENDROOT
BRANCH  11   2
ATOM      2  O   UNL     1      -5.441  -2.231   0.729  0.00  0.00    -0.387 OA
ATOM     32  H   UNL     1      -5.329  -3.181   0.902  0.00  0.00    +0.210 HD
ENDBRANCH  11   2
BRANCH  12   3
ATOM      3  O   UNL     1      -5.508   0.481   1.185  0.00  0.00    -0.387 OA
ATOM     33  H   UNL     1      -5.594   0.325   2.141  0.00  0.00    +0.210 HD
ENDBRANCH  12   3
BRANCH  10  14
ATOM     14  C   UNL     1      -1.736  -1.977   0.637  0.00  0.00    +0.130 C 
BRANCH  14  16
ATOM      4  O   UNL     1      -1.121  -2.637  -1.554  0.00  0.00    -0.276 OA
ATOM      6  N   UNL     1       0.614  -2.270  -0.056  0.00  0.00    -0.298 N 
ATOM      8  N   UNL     1       3.151  -1.053   0.166  0.00  0.00    -0.312 N 
ATOM      9  N   UNL     1       4.427   0.859   0.733  0.00  0.00    -0.240 NA
ATOM     16  C   UNL     1      -0.727  -2.326  -0.427  0.00  0.00    +0.218 C 
ATOM     17  C   UNL     1       1.121  -1.907   1.269  0.00  0.00    +0.126 C 
ATOM     18  C   UNL     1       1.660  -2.615  -1.016  0.00  0.00    +0.126 C 
ATOM     19  C   UNL     1       2.119  -0.753   1.168  0.00  0.00    +0.125 C 
ATOM     20  C   UNL     1       2.662  -1.472  -1.157  0.00  0.00    +0.125 C 
ATOM     23  C   UNL     1       4.384  -0.393   0.225  0.00  0.00    +0.121 A 
ATOM     26  C   UNL     1       5.492  -1.077  -0.249  0.00  0.00    +0.043 A 
ATOM     29  C   UNL     1       6.724  -0.435  -0.197  0.00  0.00    +0.005 A 
ATOM     30  C   UNL     1       5.642   1.451   0.766  0.00  0.00    +0.113 A 
ATOM     31  C   UNL     1       6.809   0.853   0.319  0.00  0.00    +0.020 A 
ENDBRANCH  14  16
ENDBRANCH  10  14
BRANCH  13  15
ATOM     15  C   UNL     1      -3.604   1.224  -1.282  0.00  0.00    +0.138 C 
BRANCH  15   7
ATOM      5  O   UNL     1      -2.497   3.834  -0.812  0.00  0.00    -0.276 OA
ATOM      7  N   UNL     1      -2.302   1.525  -0.736  0.00  0.00    -0.313 N 
ATOM     22  C   UNL     1      -1.851   2.823  -0.544  0.00  0.00    +0.216 C 
ATOM     34  H   UNL     1      -1.671   0.747  -0.574  0.00  0.00    +0.149 HD
BRANCH  22  21
ATOM     21  C   UNL     1      -0.432   2.872   0.031  0.00  0.00    +0.074 C 
BRANCH  21  24
ATOM     24  C   UNL     1       0.597   2.209  -0.901  0.00  0.00    +0.009 C 
ATOM     27  C   UNL     1       0.625   2.848  -2.284  0.00  0.00    +0.004 C 
ENDBRANCH  21  24
BRANCH  21  25
ATOM     25  C   UNL     1      -0.411   2.257   1.446  0.00  0.00    +0.009 C 
ATOM     28  C   UNL     1      -1.375   2.899   2.435  0.00  0.00    +0.004 C 
ENDBRANCH  21  25
ENDBRANCH  22  21
ENDBRANCH  15   7
ENDBRANCH  13  15
TORSDOF 9
