REMARK  Name = 44716917
REMARK  16 active torsions:
REMARK  status: ('A' for Active; 'I' for Inactive)
REMARK    1  A    between atoms: O_1  and  C_15
REMARK    2  A    between atoms: O_1  and  C_24
REMARK    3  A    between atoms: O_2  and  C_16
REMARK    4  A    between atoms: O_3  and  C_20
REMARK    5  A    between atoms: O_6  and  C_34
REMARK    6  A    between atoms: O_6  and  C_35
REMARK    7  A    between atoms: N_7  and  C_25
REMARK    8  A    between atoms: N_8  and  C_26
REMARK    9  A    between atoms: C_9  and  C_19
REMARK   10  A    between atoms: C_11  and  C_20
REMARK   11  A    between atoms: C_11  and  C_21
REMARK   12  A    between atoms: C_12  and  C_22
REMARK   13  A    between atoms: C_22  and  C_23
REMARK   14  A    between atoms: C_25  and  C_27
REMARK   15  A    between atoms: C_26  and  C_28
REMARK   16  A    between atoms: C_28  and  C_31
REMARK                            x       y       z     vdW  Elec       q    Type
REMARK                         _______ _______ _______ _____ _____    ______ ____
ROOT
ATOM      9  C   UNL     1      -0.609   1.726   0.450  0.00  0.00    -0.023 C 
ATOM     10  C   UNL     1      -1.000   1.452  -1.054  0.00  0.00    +0.007 C 
ATOM     11  C   UNL     1      -2.500   1.056  -1.334  0.00  0.00    +0.031 C 
ATOM     12  C   UNL     1       0.974   1.782   0.513  0.00  0.00    +0.032 C 
ATOM     13  C   UNL     1      -1.112   0.537   1.312  0.00  0.00    +0.011 C 
ATOM     14  C   UNL     1      -0.443   2.557  -1.978  0.00  0.00    +0.007 C 
ATOM     15  C   UNL     1      -2.910  -0.087  -0.356  0.00  0.00    +0.186 C 
ATOM     16  C   UNL     1       1.592   2.813  -0.460  0.00  0.00    +0.119 C 
ATOM     17  C   UNL     1      -2.586   0.206   1.104  0.00  0.00    +0.046 C 
ATOM     18  C   UNL     1       1.082   2.639  -1.888  0.00  0.00    +0.032 C 
ATOM     19  C   UNL     1      -1.222   3.026   1.023  0.00  0.00    +0.012 C 
ATOM     21  C   UNL     1      -2.616   0.494  -2.781  0.00  0.00    +0.017 C 
ENDROOT
BRANCH  16   2
ATOM      2  O   UNL     1       1.343   4.143  -0.018  0.00  0.00    -0.391 OA
ATOM     36  H   UNL     1       1.778   4.749  -0.642  0.00  0.00    +0.210 HD
ENDBRANCH  16   2
BRANCH  15   1
ATOM      1  O   UNL     1      -4.308  -0.369  -0.427  0.00  0.00    -0.446 OA
BRANCH   1  24
ATOM      5  O   UNL     1      -3.887  -2.560   0.118  0.00  0.00    -0.226 OA
ATOM      8  N   UNL     1      -6.042  -1.792  -0.267  0.00  0.00    -0.281 N 
ATOM     24  C   UNL     1      -4.673  -1.662  -0.165  0.00  0.00    +0.401 C 
ATOM     39  H   UNL     1      -6.583  -0.966  -0.506  0.00  0.00    +0.152 HD
BRANCH   8  26
ATOM     26  C   UNL     1      -6.748  -3.033  -0.050  0.00  0.00    +0.107 C 
BRANCH  26  28
ATOM     28  C   UNL     1      -7.165  -3.217   1.404  0.00  0.00    +0.015 C 
ATOM     31  C   UNL     1      -8.105  -2.123   1.890  0.00  0.00    +0.005 C 
ENDBRANCH  26  28
ENDBRANCH   8  26
ENDBRANCH   1  24
ENDBRANCH  15   1
BRANCH  11  20
ATOM     20  C   UNL     1      -3.488   2.238  -1.264  0.00  0.00    +0.166 C 
BRANCH  20   3
ATOM      3  O   UNL     1      -4.652   1.873  -1.973  0.00  0.00    -0.394 OA
ATOM     37  H   UNL     1      -5.266   2.626  -1.927  0.00  0.00    +0.209 HD
ENDBRANCH  20   3
ENDBRANCH  11  20
BRANCH  12  22
ATOM     22  C   UNL     1       1.558   1.979   1.921  0.00  0.00    +0.102 C 
BRANCH  22  23
ATOM      4  O   UNL     1       3.965   2.183   1.780  0.00  0.00    -0.276 OA
ATOM      7  N   UNL     1       3.019   0.152   2.398  0.00  0.00    -0.311 N 
ATOM     23  C   UNL     1       2.982   1.485   2.015  0.00  0.00    +0.214 C 
ATOM     38  H   UNL     1       2.149  -0.352   2.540  0.00  0.00    +0.149 HD
BRANCH   7  25
ATOM     25  C   UNL     1       4.250  -0.586   2.567  0.00  0.00    +0.139 C 
BRANCH  25  27
ATOM     27  C   UNL     1       4.681  -1.258   1.296  0.00  0.00    -0.030 A 
ATOM     29  C   UNL     1       4.026  -2.409   0.858  0.00  0.00    +0.009 A 
ATOM     30  C   UNL     1       5.735  -0.730   0.550  0.00  0.00    +0.009 A 
ATOM     32  C   UNL     1       4.425  -3.032  -0.324  0.00  0.00    +0.046 A 
ATOM     33  C   UNL     1       6.134  -1.353  -0.632  0.00  0.00    +0.046 A 
ATOM     34  C   UNL     1       5.479  -2.504  -1.069  0.00  0.00    +0.120 A 
BRANCH  34   6
ATOM      6  O   UNL     1       5.868  -3.111  -2.224  0.00  0.00    -0.495 OA
ATOM     35  C   UNL     1       6.953  -2.517  -2.936  0.00  0.00    +0.277 C 
ENDBRANCH  34   6
ENDBRANCH  25  27
ENDBRANCH   7  25
ENDBRANCH  22  23
ENDBRANCH  12  22
TORSDOF 12
