REMARK  Name = 51137874
REMARK  5 active torsions:
REMARK  status: ('A' for Active; 'I' for Inactive)
REMARK    1  A    between atoms: N_5  and  C_14
REMARK    2  A    between atoms: C_9  and  C_13
REMARK    3  A    between atoms: C_14  and  C_15
REMARK    4  A    between atoms: C_20  and  C_27
REMARK    5  A    between atoms: C_26  and  C_28
REMARK                            x       y       z     vdW  Elec       q    Type
REMARK                         _______ _______ _______ _____ _____    ______ ____
ROOT
ATOM      5  N   UNL     1      -0.973  -0.488  -0.296  0.00  0.00    -0.297 NA
ATOM      9  C   UNL     1       1.135  -1.327   0.298  0.00  0.00    +0.070 C 
ATOM     10  C   UNL     1       0.445  -0.740   1.542  0.00  0.00    +0.028 C 
ATOM     11  C   UNL     1       0.336  -0.770  -0.888  0.00  0.00    +0.096 C 
ATOM     12  C   UNL     1      -0.677   0.133   0.995  0.00  0.00    +0.085 C 
ENDROOT
BRANCH   9  13
ATOM      6  N   UNL     1       3.533  -2.054   0.157  0.00  0.00    -0.342 N 
ATOM      7  N   UNL     1       3.185   0.141   0.142  0.00  0.00    -0.231 NA
ATOM     13  C   UNL     1       2.615  -1.042   0.198  0.00  0.00    +0.113 A 
ATOM     16  C   UNL     1       4.778  -1.487   0.068  0.00  0.00    +0.067 A 
ATOM     17  C   UNL     1       4.535  -0.116   0.060  0.00  0.00    +0.101 A 
ATOM     20  C   UNL     1       5.620   0.772  -0.024  0.00  0.00    +0.064 A 
ATOM     21  C   UNL     1       6.058  -2.038  -0.005  0.00  0.00    +0.028 A 
ATOM     22  C   UNL     1       6.914   0.241  -0.097  0.00  0.00    +0.015 A 
ATOM     23  C   UNL     1       7.127  -1.139  -0.088  0.00  0.00    +0.003 A 
ATOM     29  H   UNL     1       3.333  -3.045   0.186  0.00  0.00    +0.167 HD
BRANCH  20  27
ATOM      4  O   UNL     1       6.362   3.005  -0.119  0.00  0.00    -0.270 OA
ATOM      8  N   UNL     1       4.099   2.674   0.044  0.00  0.00    -0.325 N 
ATOM     27  C   UNL     1       5.410   2.208  -0.031  0.00  0.00    +0.244 C 
ATOM     30  H   UNL     1       3.912   3.672   0.035  0.00  0.00    +0.145 HD
ATOM     31  H   UNL     1       3.287   2.072   0.111  0.00  0.00    +0.145 HD
ENDBRANCH  20  27
ENDBRANCH   9  13
BRANCH   5  14
ATOM     14  C   UNL     1      -1.795   0.362  -1.144  0.00  0.00    +0.119 C 
BRANCH  14  15
ATOM     15  C   UNL     1      -3.250   0.293  -0.765  0.00  0.00    -0.033 A 
ATOM     18  C   UNL     1      -4.014  -0.816  -1.129  0.00  0.00    +0.005 A 
ATOM     19  C   UNL     1      -3.835   1.338  -0.050  0.00  0.00    +0.005 A 
ATOM     24  C   UNL     1      -5.362  -0.880  -0.777  0.00  0.00    +0.012 A 
ATOM     25  C   UNL     1      -5.184   1.274   0.302  0.00  0.00    +0.012 A 
ATOM     26  C   UNL     1      -5.947   0.165  -0.062  0.00  0.00    +0.055 A 
BRANCH  26  28
ATOM      1  F   UNL     1      -7.602   0.139   1.664  0.00  0.00    -0.166 F 
ATOM      2  F   UNL     1      -7.987  -1.055  -0.112  0.00  0.00    -0.166 F 
ATOM      3  F   UNL     1      -8.139   1.112  -0.198  0.00  0.00    -0.166 F 
ATOM     28  C   UNL     1      -7.388   0.094   0.316  0.00  0.00    +0.417 C 
ENDBRANCH  26  28
ENDBRANCH  14  15
ENDBRANCH   5  14
TORSDOF 5
