REMARK  Name = 40777129
REMARK  8 active torsions:
REMARK  status: ('A' for Active; 'I' for Inactive)
REMARK    1  A    between atoms: S_2  and  N_6
REMARK    2  A    between atoms: S_2  and  C_21
REMARK    3  A    between atoms: N_6  and  C_16
REMARK    4  A    between atoms: C_10  and  C_17
REMARK    5  A    between atoms: C_11  and  C_16
REMARK    6  A    between atoms: C_19  and  C_22
REMARK    7  A    between atoms: C_20  and  C_23
REMARK    8  A    between atoms: C_30  and  C_34
REMARK                            x       y       z     vdW  Elec       q    Type
REMARK                         _______ _______ _______ _____ _____    ______ ____
ROOT
ATOM      5  N   UNL     1       1.199   2.796   1.830  0.00  0.00    -0.297 NA
ATOM      9  C   UNL     1       0.086   3.715  -0.338  0.00  0.00    +0.002 C 
ATOM     10  C   UNL     1      -0.909   2.813   0.444  0.00  0.00    +0.055 C 
ATOM     11  C   UNL     1       2.090   2.562   0.663  0.00  0.00    +0.072 C 
ATOM     12  C   UNL     1       1.364   2.909  -0.655  0.00  0.00    +0.024 C 
ATOM     13  C   UNL     1       0.495   4.857   0.616  0.00  0.00    +0.019 C 
ATOM     14  C   UNL     1      -0.116   2.146   1.604  0.00  0.00    +0.094 C 
ATOM     15  C   UNL     1       0.979   4.257   1.947  0.00  0.00    +0.085 C 
ENDROOT
BRANCH  10  17
ATOM      7  N   UNL     1      -1.533   1.764  -1.676  0.00  0.00    -0.237 NA
ATOM      8  N   UNL     1      -3.195   0.023  -1.806  0.00  0.00    -0.232 NA
ATOM     17  C   UNL     1      -1.737   1.806  -0.343  0.00  0.00    +0.050 A 
ATOM     18  C   UNL     1      -2.639   1.001   0.322  0.00  0.00    +0.052 A 
ATOM     19  C   UNL     1      -3.347   0.119  -0.469  0.00  0.00    +0.076 A 
ATOM     20  C   UNL     1      -2.285   0.863  -2.337  0.00  0.00    +0.127 A 
ATOM     23  C   UNL     1      -2.090   0.787  -3.813  0.00  0.00    +0.088 C 
BRANCH  19  22
ATOM      1 BR   UNL     1      -2.206  -2.723   0.451  0.00  0.00    -0.050 Br
ATOM     22  C   UNL     1      -4.323  -0.777   0.103  0.00  0.00    +0.014 A 
ATOM     26  C   UNL     1      -3.981  -2.053   0.552  0.00  0.00    +0.027 A 
ATOM     27  C   UNL     1      -5.641  -0.334   0.200  0.00  0.00    +0.011 A 
ATOM     31  C   UNL     1      -4.959  -2.885   1.099  0.00  0.00    +0.016 A 
ATOM     32  C   UNL     1      -6.619  -1.165   0.747  0.00  0.00    +0.001 A 
ATOM     33  C   UNL     1      -6.278  -2.441   1.196  0.00  0.00    +0.001 A 
ENDBRANCH  19  22
ENDBRANCH  10  17
BRANCH  11  16
ATOM     16  C   UNL     1       2.662   1.142   0.641  0.00  0.00    +0.124 C 
BRANCH  16   6
ATOM      6  N   UNL     1       3.625   1.026  -0.465  0.00  0.00    -0.188 NA
ATOM     35  H   UNL     1       3.259   1.218  -1.406  0.00  0.00    +0.148 HD
BRANCH   6   2
ATOM      2  S   UNL     1       4.946  -0.043  -0.342  0.00  0.00    +0.058 S 
ATOM      3  O   UNL     1       5.682   0.244   0.875  0.00  0.00    -0.153 OA
ATOM      4  O   UNL     1       5.636  -0.095  -1.616  0.00  0.00    -0.153 OA
BRANCH   2  21
ATOM     21  C   UNL     1       4.132  -1.598  -0.132  0.00  0.00    +0.105 A 
ATOM     24  C   UNL     1       3.798  -2.366  -1.248  0.00  0.00    +0.029 A 
ATOM     25  C   UNL     1       3.823  -2.057   1.149  0.00  0.00    +0.029 A 
ATOM     28  C   UNL     1       3.155  -3.593  -1.083  0.00  0.00    +0.005 A 
ATOM     29  C   UNL     1       3.180  -3.284   1.313  0.00  0.00    +0.005 A 
ATOM     30  C   UNL     1       2.846  -4.052   0.197  0.00  0.00    -0.050 A 
ATOM     34  C   UNL     1       2.159  -5.364   0.373  0.00  0.00    +0.044 C 
ENDBRANCH   2  21
ENDBRANCH   6   2
ENDBRANCH  16   6
ENDBRANCH  11  16
TORSDOF 6
