REMARK  Name = 75536392
REMARK  9 active torsions:
REMARK  status: ('A' for Active; 'I' for Inactive)
REMARK    1  A    between atoms: O_2  and  C_12
REMARK    2  A    between atoms: O_7  and  C_33
REMARK    3  A    between atoms: O_7  and  C_34
REMARK    4  A    between atoms: N_8  and  C_16
REMARK    5  A    between atoms: C_10  and  C_16
REMARK    6  A    between atoms: C_11  and  C_15
REMARK    7  A    between atoms: C_15  and  C_17
REMARK    8  A    between atoms: C_19  and  C_21
REMARK    9  A    between atoms: C_20  and  C_22
REMARK                            x       y       z     vdW  Elec       q    Type
REMARK                         _______ _______ _______ _____ _____    ______ ____
ROOT
ATOM      1  O   UNL     1       3.842  -0.284   0.674  0.00  0.00    -0.369 OA
ATOM     10  C   UNL     1       4.457   1.009   0.600  0.00  0.00    +0.164 C 
ATOM     11  C   UNL     1       3.957  -1.081  -0.507  0.00  0.00    +0.125 C 
ATOM     12  C   UNL     1       5.938   0.902   0.216  0.00  0.00    +0.145 C 
ATOM     13  C   UNL     1       5.426  -1.313  -0.859  0.00  0.00    +0.034 C 
ATOM     14  C   UNL     1       6.160   0.017  -1.007  0.00  0.00    +0.036 C 
ENDROOT
BRANCH  12   2
ATOM      2  O   UNL     1       6.656   0.322   1.309  0.00  0.00    -0.389 OA
ATOM     35  H   UNL     1       7.598   0.306   1.067  0.00  0.00    +0.210 HD
ENDBRANCH  12   2
BRANCH  11  15
ATOM     15  C   UNL     1       3.248  -2.403  -0.238  0.00  0.00    +0.090 C 
BRANCH  15  17
ATOM      3  O   UNL     1       0.083  -1.874   1.403  0.00  0.00    -0.354 OA
ATOM      9  N   UNL     1       1.463  -2.038   1.416  0.00  0.00    -0.083 NA
ATOM     17  C   UNL     1       1.805  -2.196   0.134  0.00  0.00    +0.087 A 
ATOM     18  C   UNL     1       0.694  -2.142  -0.725  0.00  0.00    +0.076 A 
ATOM     20  C   UNL     1      -0.363  -1.938   0.122  0.00  0.00    +0.167 A 
BRANCH  20  22
ATOM     22  C   UNL     1      -1.778  -1.783  -0.052  0.00  0.00    +0.020 A 
ATOM     27  C   UNL     1      -2.333  -1.831  -1.331  0.00  0.00    +0.015 A 
ATOM     28  C   UNL     1      -2.600  -1.585   1.058  0.00  0.00    +0.015 A 
ATOM     30  C   UNL     1      -3.709  -1.681  -1.500  0.00  0.00    +0.046 A 
ATOM     31  C   UNL     1      -3.976  -1.434   0.889  0.00  0.00    +0.046 A 
ATOM     33  C   UNL     1      -4.531  -1.482  -0.390  0.00  0.00    +0.120 A 
BRANCH  33   7
ATOM      7  O   UNL     1      -5.874  -1.338  -0.555  0.00  0.00    -0.495 OA
ATOM     34  C   UNL     1      -6.655  -1.138   0.623  0.00  0.00    +0.277 C 
ENDBRANCH  33   7
ENDBRANCH  20  22
ENDBRANCH  15  17
ENDBRANCH  11  15
BRANCH  10  16
ATOM     16  C   UNL     1       3.669   1.941  -0.319  0.00  0.00    +0.138 C 
BRANCH  16   8
ATOM      4  O   UNL     1       1.395   1.215  -1.914  0.00  0.00    -0.270 OA
ATOM      8  N   UNL     1       2.294   2.007   0.073  0.00  0.00    -0.309 N 
ATOM     19  C   UNL     1       1.249   1.633  -0.768  0.00  0.00    +0.244 C 
ATOM     36  H   UNL     1       2.099   2.427   0.975  0.00  0.00    +0.149 HD
BRANCH  19  21
ATOM      5  O   UNL     1      -3.612   2.333  -1.221  0.00  0.00    -0.453 OA
ATOM      6  O   UNL     1      -3.965   2.222   1.160  0.00  0.00    -0.453 OA
ATOM     21  C   UNL     1      -0.124   1.785  -0.221  0.00  0.00    +0.040 A 
ATOM     23  C   UNL     1      -1.198   1.991  -1.091  0.00  0.00    +0.062 A 
ATOM     24  C   UNL     1      -0.330   1.721   1.168  0.00  0.00    +0.017 A 
ATOM     25  C   UNL     1      -2.454   2.127  -0.536  0.00  0.00    +0.167 A 
ATOM     26  C   UNL     1      -2.656   2.064   0.824  0.00  0.00    +0.166 A 
ATOM     29  C   UNL     1      -1.613   1.861   1.704  0.00  0.00    +0.050 A 
ATOM     32  C   UNL     1      -4.565   2.392  -0.140  0.00  0.00    +0.466 C 
ENDBRANCH  19  21
ENDBRANCH  16   8
ENDBRANCH  10  16
TORSDOF 8
