REMARK  Name = 28961807
REMARK  11 active torsions:
REMARK  status: ('A' for Active; 'I' for Inactive)
REMARK    1  A    between atoms: S_1  and  N_10
REMARK    2  A    between atoms: S_1  and  C_23
REMARK    3  A    between atoms: O_4  and  C_14
REMARK    4  A    between atoms: O_5  and  C_20
REMARK    5  A    between atoms: O_5  and  C_22
REMARK    6  A    between atoms: O_6  and  C_21
REMARK    7  A    between atoms: N_9  and  C_11
REMARK    8  A    between atoms: N_10  and  C_19
REMARK    9  A    between atoms: C_12  and  C_19
REMARK   10  A    between atoms: C_13  and  C_20
REMARK   11  A    between atoms: C_16  and  C_21
REMARK                            x       y       z     vdW  Elec       q    Type
REMARK                         _______ _______ _______ _____ _____    ______ ____
ROOT
ATOM      3  O   UNL     1      -2.175   1.399   0.998  0.00  0.00    -0.366 OA
ATOM     11  C   UNL     1      -1.851  -0.837   0.248  0.00  0.00    +0.118 C 
ATOM     12  C   UNL     1      -1.138   0.475   0.599  0.00  0.00    +0.154 C 
ATOM     14  C   UNL     1      -3.245  -0.374  -0.148  0.00  0.00    +0.165 C 
ATOM     16  C   UNL     1      -3.457   0.761   0.846  0.00  0.00    +0.174 C 
ENDROOT
BRANCH  11   9
ATOM      9  N   UNL     1      -1.184  -1.692  -0.718  0.00  0.00    -0.289 NA
ATOM     13  C   UNL     1       0.190  -2.079  -0.380  0.00  0.00    +0.083 C 
ATOM     15  C   UNL     1      -1.921  -2.922  -0.998  0.00  0.00    +0.085 C 
ATOM     17  C   UNL     1       0.455  -3.154  -1.433  0.00  0.00    +0.022 C 
ATOM     18  C   UNL     1      -0.889  -3.846  -1.635  0.00  0.00    +0.017 C 
BRANCH  13  20
ATOM     20  C   UNL     1       0.409  -2.618   1.037  0.00  0.00    +0.178 C 
BRANCH  20   5
ATOM      5  O   UNL     1       1.748  -3.065   1.151  0.00  0.00    -0.381 OA
ATOM     22  C   UNL     1       2.023  -3.581   2.448  0.00  0.00    +0.194 C 
ENDBRANCH  20   5
ENDBRANCH  13  20
ENDBRANCH  11   9
BRANCH  14   4
ATOM      4  O   UNL     1      -3.269   0.123  -1.480  0.00  0.00    -0.388 OA
ATOM     27  H   UNL     1      -4.197   0.300  -1.710  0.00  0.00    +0.210 HD
ENDBRANCH  14   4
BRANCH  12  19
ATOM     19  C   UNL     1      -0.345   1.142  -0.520  0.00  0.00    +0.139 C 
BRANCH  19  10
ATOM     10  N   UNL     1       0.270   2.382  -0.011  0.00  0.00    -0.187 NA
ATOM     28  H   UNL     1      -0.409   3.100   0.274  0.00  0.00    +0.148 HD
BRANCH  10   1
ATOM      1  S   UNL     1       1.748   2.929  -0.655  0.00  0.00    +0.065 S 
ATOM      7  O   UNL     1       2.206   4.077   0.104  0.00  0.00    -0.153 OA
ATOM      8  O   UNL     1       1.636   3.006  -2.099  0.00  0.00    -0.153 OA
BRANCH   1  23
ATOM      2  S   UNL     1       3.189   1.371   1.368  0.00  0.00    -0.077 S 
ATOM     23  C   UNL     1       2.823   1.573  -0.292  0.00  0.00    +0.142 A 
ATOM     24  C   UNL     1       3.441   0.624  -1.077  0.00  0.00    +0.036 A 
ATOM     25  C   UNL     1       4.226  -0.280  -0.304  0.00  0.00    +0.010 A 
ATOM     26  C   UNL     1       4.178   0.012   1.041  0.00  0.00    +0.047 A 
ENDBRANCH   1  23
ENDBRANCH  10   1
ENDBRANCH  19  10
ENDBRANCH  12  19
BRANCH  16  21
ATOM     21  C   UNL     1      -4.488   1.799   0.442  0.00  0.00    +0.190 C 
BRANCH  21   6
ATOM      6  O   UNL     1      -4.580   2.776   1.466  0.00  0.00    -0.392 OA
ATOM     29  H   UNL     1      -5.248   3.425   1.183  0.00  0.00    +0.210 HD
ENDBRANCH  21   6
ENDBRANCH  16  21
TORSDOF 10
