REMARK  Name = 75536575
REMARK  9 active torsions:
REMARK  status: ('A' for Active; 'I' for Inactive)
REMARK    1  A    between atoms: O_2  and  C_11
REMARK    2  A    between atoms: O_5  and  C_22
REMARK    3  A    between atoms: O_5  and  C_23
REMARK    4  A    between atoms: N_6  and  C_9
REMARK    5  A    between atoms: N_6  and  C_10
REMARK    6  A    between atoms: N_8  and  C_18
REMARK    7  A    between atoms: C_12  and  C_18
REMARK    8  A    between atoms: C_19  and  C_20
REMARK    9  A    between atoms: C_21  and  C_22
REMARK                            x       y       z     vdW  Elec       q    Type
REMARK                         _______ _______ _______ _____ _____    ______ ____
ROOT
ATOM      1  O   UNL     1       1.795   0.818   1.056  0.00  0.00    -0.371 OA
ATOM      9  C   UNL     1      -0.227   0.472  -0.140  0.00  0.00    +0.111 C 
ATOM     11  C   UNL     1       0.875   0.825  -1.122  0.00  0.00    +0.164 C 
ATOM     12  C   UNL     1       2.115   0.488  -0.305  0.00  0.00    +0.165 C 
ATOM     15  C   UNL     1       0.368   0.962   1.169  0.00  0.00    +0.181 C 
ENDROOT
BRANCH  11   2
ATOM      2  O   UNL     1       0.806   0.068  -2.315  0.00  0.00    -0.388 OA
ATOM     25  H   UNL     1       0.828  -0.875  -2.080  0.00  0.00    +0.210 HD
ENDBRANCH  11   2
BRANCH   9   6
ATOM      6  N   UNL     1      -1.505   1.093  -0.448  0.00  0.00    -0.306 NA
ATOM     24  H   UNL     1      -1.694   1.031  -1.448  0.00  0.00    +0.123 HD
BRANCH   6  10
ATOM      3  O   UNL     1      -6.852  -1.941  -0.535  0.00  0.00    -0.276 OA
ATOM      7  N   UNL     1      -5.305  -0.519   0.456  0.00  0.00    -0.302 N 
ATOM     10  C   UNL     1      -2.585   0.459   0.304  0.00  0.00    +0.057 C 
ATOM     13  C   UNL     1      -3.777   1.417   0.422  0.00  0.00    +0.037 C 
ATOM     14  C   UNL     1      -3.010  -0.845  -0.384  0.00  0.00    +0.037 C 
ATOM     16  C   UNL     1      -4.956   0.741   1.123  0.00  0.00    +0.109 C 
ATOM     17  C   UNL     1      -4.203  -1.475   0.334  0.00  0.00    +0.109 C 
ATOM     19  C   UNL     1      -6.575  -0.860  -0.010  0.00  0.00    +0.212 C 
ATOM     20  C   UNL     1      -7.655   0.179   0.150  0.00  0.00    +0.109 C 
ENDBRANCH   6  10
ENDBRANCH   9   6
BRANCH  12  18
ATOM     18  C   UNL     1       3.349   1.255  -0.744  0.00  0.00    +0.138 C 
BRANCH  18   8
ATOM      4  O   UNL     1       5.261  -0.855  -1.253  0.00  0.00    -0.273 OA
ATOM      8  N   UNL     1       4.490   0.909   0.055  0.00  0.00    -0.311 N 
ATOM     21  C   UNL     1       5.361  -0.127  -0.268  0.00  0.00    +0.239 C 
ATOM     26  H   UNL     1       4.656   1.446   0.901  0.00  0.00    +0.149 HD
BRANCH  21  22
ATOM     22  C   UNL     1       6.475  -0.270   0.746  0.00  0.00    +0.255 C 
BRANCH  22   5
ATOM      5  O   UNL     1       7.347  -1.319   0.384  0.00  0.00    -0.374 OA
ATOM     23  C   UNL     1       8.408  -1.476   1.323  0.00  0.00    +0.194 C 
ENDBRANCH  22   5
ENDBRANCH  21  22
ENDBRANCH  18   8
ENDBRANCH  12  18
TORSDOF 7
