REMARK  Name = 40776929
REMARK  8 active torsions:
REMARK  status: ('A' for Active; 'I' for Inactive)
REMARK    1  A    between atoms: S_1  and  N_6
REMARK    2  A    between atoms: S_1  and  C_21
REMARK    3  A    between atoms: N_6  and  C_16
REMARK    4  A    between atoms: C_10  and  C_17
REMARK    5  A    between atoms: C_11  and  C_16
REMARK    6  A    between atoms: C_19  and  C_22
REMARK    7  A    between atoms: C_20  and  C_23
REMARK    8  A    between atoms: C_21  and  C_24
REMARK                            x       y       z     vdW  Elec       q    Type
REMARK                         _______ _______ _______ _____ _____    ______ ____
ROOT
ATOM      5  N   UNL     1       0.465   3.281   1.944  0.00  0.00    -0.297 NA
ATOM      9  C   UNL     1      -0.537   3.874  -0.386  0.00  0.00    +0.002 C 
ATOM     10  C   UNL     1      -1.449   2.858   0.355  0.00  0.00    +0.055 C 
ATOM     11  C   UNL     1       1.506   3.141   0.892  0.00  0.00    +0.072 C 
ATOM     12  C   UNL     1       0.884   3.286  -0.514  0.00  0.00    +0.024 C 
ATOM     13  C   UNL     1      -0.433   5.121   0.519  0.00  0.00    +0.019 C 
ATOM     14  C   UNL     1      -0.691   2.402   1.635  0.00  0.00    +0.094 C 
ATOM     15  C   UNL     1      -0.007   4.687   1.932  0.00  0.00    +0.085 C 
ENDROOT
BRANCH  10  17
ATOM      7  N   UNL     1      -1.651   1.603  -1.735  0.00  0.00    -0.237 NA
ATOM      8  N   UNL     1      -2.976  -0.403  -1.905  0.00  0.00    -0.232 NA
ATOM     17  C   UNL     1      -2.006   1.683  -0.435  0.00  0.00    +0.050 A 
ATOM     18  C   UNL     1      -2.830   0.770   0.191  0.00  0.00    +0.052 A 
ATOM     19  C   UNL     1      -3.290  -0.262  -0.601  0.00  0.00    +0.075 A 
ATOM     20  C   UNL     1      -2.164   0.551  -2.401  0.00  0.00    +0.127 A 
ATOM     23  C   UNL     1      -1.796   0.431  -3.841  0.00  0.00    +0.088 C 
BRANCH  19  22
ATOM      2  F   UNL     1      -6.651  -4.197   1.465  0.00  0.00    -0.205 F 
ATOM     22  C   UNL     1      -4.160  -1.281  -0.066  0.00  0.00    +0.001 A 
ATOM     25  C   UNL     1      -3.732  -2.077   0.997  0.00  0.00    +0.013 A 
ATOM     26  C   UNL     1      -5.430  -1.470  -0.611  0.00  0.00    +0.013 A 
ATOM     29  C   UNL     1      -4.573  -3.062   1.514  0.00  0.00    +0.039 A 
ATOM     30  C   UNL     1      -6.272  -2.455  -0.093  0.00  0.00    +0.039 A 
ATOM     33  C   UNL     1      -5.843  -3.251   0.969  0.00  0.00    +0.123 A 
ENDBRANCH  19  22
ENDBRANCH  10  17
BRANCH  11  16
ATOM     16  C   UNL     1       2.304   1.843   1.031  0.00  0.00    +0.124 C 
BRANCH  16   6
ATOM      6  N   UNL     1       3.391   1.835   0.038  0.00  0.00    -0.193 NA
ATOM     35  H   UNL     1       4.112   2.548   0.212  0.00  0.00    +0.148 HD
BRANCH   6   1
ATOM      1  S   UNL     1       3.941   0.342  -0.585  0.00  0.00    +0.034 S 
ATOM      3  O   UNL     1       5.189   0.538  -1.298  0.00  0.00    -0.158 OA
ATOM      4  O   UNL     1       2.824  -0.334  -1.217  0.00  0.00    -0.158 OA
BRANCH   1  21
ATOM     21  C   UNL     1       4.303  -0.526   0.924  0.00  0.00    +0.220 C 
BRANCH  21  24
ATOM     24  C   UNL     1       4.809  -1.887   0.556  0.00  0.00    -0.025 A 
ATOM     27  C   UNL     1       6.094  -2.036   0.035  0.00  0.00    +0.005 A 
ATOM     28  C   UNL     1       3.995  -3.006   0.735  0.00  0.00    +0.005 A 
ATOM     31  C   UNL     1       6.566  -3.303  -0.308  0.00  0.00    +0.000 A 
ATOM     32  C   UNL     1       4.467  -4.273   0.393  0.00  0.00    +0.000 A 
ATOM     34  C   UNL     1       5.752  -4.422  -0.129  0.00  0.00    +0.000 A 
ENDBRANCH  21  24
ENDBRANCH   1  21
ENDBRANCH   6   1
ENDBRANCH  16   6
ENDBRANCH  11  16
TORSDOF 7
