REMARK  Name = 51136881
REMARK  10 active torsions:
REMARK  status: ('A' for Active; 'I' for Inactive)
REMARK    1  A    between atoms: O_3  and  C_35
REMARK    2  A    between atoms: O_3  and  C_36
REMARK    3  A    between atoms: N_4  and  C_13
REMARK    4  A    between atoms: N_8  and  C_28
REMARK    5  A    between atoms: C_9  and  C_14
REMARK    6  A    between atoms: C_13  and  C_15
REMARK    7  A    between atoms: C_15  and  C_16
REMARK    8  A    between atoms: C_16  and  C_17
REMARK    9  A    between atoms: C_18  and  C_21
REMARK   10  A    between atoms: C_29  and  C_30
REMARK                            x       y       z     vdW  Elec       q    Type
REMARK                         _______ _______ _______ _____ _____    ______ ____
ROOT
ATOM      1  O   UNL     1      -3.269  -3.771   0.879  0.00  0.00    -0.336 OA
ATOM      5  N   UNL     1      -2.574  -1.882  -0.105  0.00  0.00    -0.190 NA
ATOM      6  N   UNL     1      -1.878  -3.735   1.042  0.00  0.00    -0.056 NA
ATOM     14  C   UNL     1      -3.596  -2.644   0.193  0.00  0.00    +0.245 A 
ATOM     18  C   UNL     1      -1.542  -2.592   0.436  0.00  0.00    +0.204 A 
ENDROOT
BRANCH  18  21
ATOM      7  N   UNL     1       2.150  -2.488   0.865  0.00  0.00    -0.239 NA
ATOM     21  C   UNL     1      -0.186  -2.133   0.353  0.00  0.00    +0.041 A 
ATOM     24  C   UNL     1       0.128  -0.939  -0.287  0.00  0.00    +0.016 A 
ATOM     25  C   UNL     1       0.852  -2.864   0.908  0.00  0.00    +0.124 A 
ATOM     27  C   UNL     1       1.452  -0.518  -0.352  0.00  0.00    +0.044 A 
ATOM     28  C   UNL     1       2.417  -1.322   0.234  0.00  0.00    +0.125 A 
BRANCH  28   8
ATOM      2  O   UNL     1       3.590   1.138  -1.014  0.00  0.00    -0.270 OA
ATOM      8  N   UNL     1       3.746  -0.889   0.164  0.00  0.00    -0.266 N 
ATOM     29  C   UNL     1       4.239   0.274  -0.435  0.00  0.00    +0.249 C 
ATOM     37  H   UNL     1       4.387  -1.507   0.653  0.00  0.00    +0.157 HD
BRANCH  29  30
ATOM     30  C   UNL     1       5.708   0.473  -0.319  0.00  0.00    +0.037 A 
ATOM     31  C   UNL     1       6.242   1.761  -0.345  0.00  0.00    +0.016 A 
ATOM     32  C   UNL     1       6.553  -0.629  -0.186  0.00  0.00    +0.016 A 
ATOM     33  C   UNL     1       7.620   1.948  -0.238  0.00  0.00    +0.046 A 
ATOM     34  C   UNL     1       7.931  -0.443  -0.079  0.00  0.00    +0.046 A 
ATOM     35  C   UNL     1       8.464   0.846  -0.105  0.00  0.00    +0.120 A 
BRANCH  35   3
ATOM      3  O   UNL     1       9.809   1.028  -0.001  0.00  0.00    -0.495 OA
ATOM     36  C   UNL     1      10.614  -0.143   0.133  0.00  0.00    +0.277 C 
ENDBRANCH  35   3
ENDBRANCH  29  30
ENDBRANCH  28   8
ENDBRANCH  18  21
BRANCH  14   9
ATOM      4  N   UNL     1      -5.428  -1.019  -0.249  0.00  0.00    -0.291 NA
ATOM      9  C   UNL     1      -5.065  -2.444  -0.115  0.00  0.00    +0.146 C 
ATOM     10  C   UNL     1      -5.484  -3.082  -1.452  0.00  0.00    +0.030 C 
ATOM     11  C   UNL     1      -6.555  -0.966  -1.181  0.00  0.00    +0.085 C 
ATOM     12  C   UNL     1      -6.127  -1.954  -2.246  0.00  0.00    +0.017 C 
BRANCH   4  13
ATOM     13  C   UNL     1      -5.739  -0.383   1.025  0.00  0.00    +0.085 C 
BRANCH  13  15
ATOM     15  C   UNL     1      -5.643   1.136   0.897  0.00  0.00    +0.020 C 
BRANCH  15  16
ATOM     16  C   UNL     1      -4.229   1.567   0.500  0.00  0.00    +0.036 C 
BRANCH  16  17
ATOM     17  C   UNL     1      -4.127   3.062   0.333  0.00  0.00    -0.047 A 
ATOM     19  C   UNL     1      -4.374   3.644  -0.910  0.00  0.00    +0.003 A 
ATOM     20  C   UNL     1      -3.786   3.863   1.423  0.00  0.00    +0.003 A 
ATOM     22  C   UNL     1      -4.281   5.027  -1.064  0.00  0.00    +0.000 A 
ATOM     23  C   UNL     1      -3.693   5.246   1.269  0.00  0.00    +0.000 A 
ATOM     26  C   UNL     1      -3.940   5.828   0.026  0.00  0.00    +0.000 A 
ENDBRANCH  16  17
ENDBRANCH  15  16
ENDBRANCH  13  15
ENDBRANCH   4  13
ENDBRANCH  14   9
TORSDOF 9
