REMARK  Name = 75536036
REMARK  10 active torsions:
REMARK  status: ('A' for Active; 'I' for Inactive)
REMARK    1  A    between atoms: O_3  and  C_19
REMARK    2  A    between atoms: O_3  and  C_26
REMARK    3  A    between atoms: N_7  and  C_16
REMARK    4  A    between atoms: N_8  and  C_18
REMARK    5  A    between atoms: C_10  and  C_14
REMARK    6  A    between atoms: C_16  and  C_17
REMARK    7  A    between atoms: C_16  and  C_19
REMARK    8  A    between atoms: C_17  and  C_20
REMARK    9  A    between atoms: C_18  and  C_21
REMARK   10  A    between atoms: C_18  and  C_22
REMARK                            x       y       z     vdW  Elec       q    Type
REMARK                         _______ _______ _______ _____ _____    ______ ____
ROOT
ATOM      1  O   UNL     1       1.011  -1.388   1.954  0.00  0.00    -0.274 OA
ATOM      7  N   UNL     1      -0.273  -0.150   0.458  0.00  0.00    -0.301 N 
ATOM     14  C   UNL     1       0.803  -0.937   0.831  0.00  0.00    +0.236 C 
ATOM     29  H   UNL     1      -0.361   0.156  -0.506  0.00  0.00    +0.150 HD
ENDROOT
BRANCH  14  10
ATOM      2  O   UNL     1       4.515   1.126   0.208  0.00  0.00    -0.253 OA
ATOM      5  N   UNL     1       3.035  -0.660   0.041  0.00  0.00    -0.272 N 
ATOM      6  N   UNL     1       2.561  -3.490   0.322  0.00  0.00    -0.312 NA
ATOM      8  N   UNL     1       2.604   1.408  -1.031  0.00  0.00    -0.297 N 
ATOM     10  C   UNL     1       1.723  -1.223  -0.320  0.00  0.00    +0.177 C 
ATOM     11  C   UNL     1       1.776  -2.720  -0.644  0.00  0.00    +0.113 C 
ATOM     12  C   UNL     1       3.888  -1.506   0.884  0.00  0.00    +0.125 C 
ATOM     13  C   UNL     1       3.917  -2.953   0.413  0.00  0.00    +0.100 C 
ATOM     15  C   UNL     1       3.460   0.657  -0.232  0.00  0.00    +0.303 C 
ATOM     28  H   UNL     1       2.602  -4.463   0.021  0.00  0.00    +0.122 HD
ATOM     30  H   UNL     1       1.677   1.074  -1.254  0.00  0.00    +0.150 HD
BRANCH   8  18
ATOM     18  C   UNL     1       2.896   2.777  -1.394  0.00  0.00    +0.068 C 
ATOM     21  C   UNL     1       2.351   3.732  -0.340  0.00  0.00    +0.027 C 
ATOM     22  C   UNL     1       2.332   3.096  -2.773  0.00  0.00    +0.027 C 
ENDBRANCH   8  18
ENDBRANCH  14  10
BRANCH   7  16
ATOM     16  C   UNL     1      -1.316   0.250   1.376  0.00  0.00    +0.186 C 
BRANCH  16  19
ATOM      4  O   UNL     1      -1.473   2.297   0.101  0.00  0.00    -0.249 OA
ATOM     19  C   UNL     1      -1.835   1.650   1.079  0.00  0.00    +0.328 C 
BRANCH  19   3
ATOM      3  O   UNL     1      -2.716   2.083   2.024  0.00  0.00    -0.467 OA
ATOM     26  C   UNL     1      -3.240   3.400   1.829  0.00  0.00    +0.280 C 
ENDBRANCH  19   3
ENDBRANCH  16  19
BRANCH  16  17
ATOM     17  C   UNL     1      -2.450  -0.784   1.437  0.00  0.00    +0.070 C 
BRANCH  17  20
ATOM      9  N   UNL     1      -5.053  -0.310  -1.279  0.00  0.00    -0.263 NA
ATOM     20  C   UNL     1      -3.211  -0.965   0.143  0.00  0.00    -0.027 A 
ATOM     23  C   UNL     1      -2.810  -1.907  -0.798  0.00  0.00    +0.006 A 
ATOM     24  C   UNL     1      -4.329  -0.198  -0.143  0.00  0.00    +0.114 A 
ATOM     25  C   UNL     1      -3.530  -2.051  -1.979  0.00  0.00    +0.020 A 
ATOM     27  C   UNL     1      -4.634  -1.236  -2.170  0.00  0.00    +0.111 A 
ENDBRANCH  17  20
ENDBRANCH  16  17
ENDBRANCH   7  16
TORSDOF 7
