REMARK  Name = 45783438
REMARK  10 active torsions:
REMARK  status: ('A' for Active; 'I' for Inactive)
REMARK    1  A    between atoms: O_2  and  C_24
REMARK    2  A    between atoms: O_2  and  C_28
REMARK    3  A    between atoms: O_3  and  C_29
REMARK    4  A    between atoms: O_3  and  C_30
REMARK    5  A    between atoms: N_4  and  C_13
REMARK    6  A    between atoms: C_9  and  C_14
REMARK    7  A    between atoms: C_13  and  C_15
REMARK    8  A    between atoms: C_18  and  C_21
REMARK    9  A    between atoms: C_22  and  C_25
REMARK   10  A    between atoms: C_28  and  C_29
REMARK                            x       y       z     vdW  Elec       q    Type
REMARK                         _______ _______ _______ _____ _____    ______ ____
ROOT
ATOM      1  O   UNL     1      -2.714   1.681  -1.513  0.00  0.00    -0.336 OA
ATOM      5  N   UNL     1      -1.340   1.089   0.154  0.00  0.00    -0.189 NA
ATOM      6  N   UNL     1      -1.431   2.088  -1.903  0.00  0.00    -0.054 NA
ATOM     14  C   UNL     1      -2.571   1.103  -0.292  0.00  0.00    +0.245 A 
ATOM     18  C   UNL     1      -0.677   1.704  -0.868  0.00  0.00    +0.221 A 
ENDROOT
BRANCH  18  21
ATOM      7  N   UNL     1       1.271   2.542  -1.902  0.00  0.00    -0.252 NA
ATOM     21  C   UNL     1       0.740   1.922  -0.824  0.00  0.00    +0.115 A 
ATOM     23  C   UNL     1       1.477   1.506   0.273  0.00  0.00    +0.077 A 
ATOM     24  C   UNL     1       2.848   1.742   0.263  0.00  0.00    +0.124 A 
ATOM     26  C   UNL     1       2.606   2.755  -1.875  0.00  0.00    +0.115 A 
ATOM     27  C   UNL     1       3.430   2.378  -0.828  0.00  0.00    +0.065 A 
BRANCH  24   2
ATOM      2  O   UNL     1       3.615   1.353   1.317  0.00  0.00    -0.490 OA
BRANCH   2  28
ATOM     28  C   UNL     1       3.183   0.205   2.047  0.00  0.00    +0.257 C 
BRANCH  28  29
ATOM     29  C   UNL     1       4.398  -0.515   2.600  0.00  0.00    +0.200 C 
BRANCH  29   3
ATOM      3  O   UNL     1       5.223  -0.931   1.519  0.00  0.00    -0.380 OA
ATOM     30  C   UNL     1       6.392  -1.594   1.982  0.00  0.00    +0.194 C 
ENDBRANCH  29   3
ENDBRANCH  28  29
ENDBRANCH   2  28
ENDBRANCH  24   2
ENDBRANCH  18  21
BRANCH  14   9
ATOM      4  N   UNL     1      -3.567  -0.547   1.282  0.00  0.00    -0.287 NA
ATOM      9  C   UNL     1      -3.832   0.571   0.355  0.00  0.00    +0.146 C 
ATOM     10  C   UNL     1      -4.551   1.628   1.214  0.00  0.00    +0.030 C 
ATOM     11  C   UNL     1      -4.699   0.991   2.588  0.00  0.00    +0.017 C 
ATOM     12  C   UNL     1      -4.613  -0.495   2.303  0.00  0.00    +0.085 C 
BRANCH   4  13
ATOM     13  C   UNL     1      -3.514  -1.843   0.618  0.00  0.00    +0.120 C 
BRANCH  13  15
ATOM     15  C   UNL     1      -2.188  -2.074  -0.057  0.00  0.00    -0.033 A 
ATOM     16  C   UNL     1      -2.136  -2.316  -1.430  0.00  0.00    +0.006 A 
ATOM     17  C   UNL     1      -1.010  -2.045   0.690  0.00  0.00    +0.006 A 
ATOM     19  C   UNL     1      -0.908  -2.529  -2.055  0.00  0.00    +0.019 A 
ATOM     20  C   UNL     1       0.218  -2.258   0.065  0.00  0.00    +0.019 A 
ATOM     22  C   UNL     1       0.270  -2.500  -1.308  0.00  0.00    +0.052 A 
BRANCH  22  25
ATOM      8  N   UNL     1       2.550  -2.896  -2.468  0.00  0.00    -0.191 NA
ATOM     25  C   UNL     1       1.528  -2.718  -1.948  0.00  0.00    +0.099 C 
ENDBRANCH  22  25
ENDBRANCH  13  15
ENDBRANCH   4  13
ENDBRANCH  14   9
TORSDOF 9
