REMARK  Name = 45783333
REMARK  5 active torsions:
REMARK  status: ('A' for Active; 'I' for Inactive)
REMARK    1  A    between atoms: N_4  and  C_15
REMARK    2  A    between atoms: C_10  and  C_18
REMARK    3  A    between atoms: C_14  and  C_23
REMARK    4  A    between atoms: C_15  and  C_21
REMARK    5  A    between atoms: C_24  and  C_27
REMARK                            x       y       z     vdW  Elec       q    Type
REMARK                         _______ _______ _______ _____ _____    ______ ____
ROOT
ATOM      1  O   UNL     1      -3.541   0.581  -2.251  0.00  0.00    -0.336 OA
ATOM      6  N   UNL     1      -1.871   0.900  -0.793  0.00  0.00    -0.190 NA
ATOM      7  N   UNL     1      -2.383   0.101  -2.875  0.00  0.00    -0.056 NA
ATOM     18  C   UNL     1      -3.151   1.033  -1.030  0.00  0.00    +0.245 A 
ATOM     24  C   UNL     1      -1.441   0.324  -1.953  0.00  0.00    +0.202 A 
ENDROOT
BRANCH  24  27
ATOM      5  N   UNL     1       3.128   0.153  -0.405  0.00  0.00    -0.315 N 
ATOM      8  N   UNL     1       2.624  -0.680  -2.562  0.00  0.00    -0.240 NA
ATOM     14  C   UNL     1       5.048   0.764   1.686  0.00  0.00    +0.078 C 
ATOM     16  C   UNL     1       4.852  -0.656   1.161  0.00  0.00    +0.031 C 
ATOM     17  C   UNL     1       3.802   1.618   1.457  0.00  0.00    +0.031 C 
ATOM     19  C   UNL     1       4.306  -0.708  -0.268  0.00  0.00    +0.107 C 
ATOM     20  C   UNL     1       3.293   1.550   0.017  0.00  0.00    +0.107 C 
ATOM     22  C   UNL     1       2.195  -0.110  -1.414  0.00  0.00    +0.122 A 
ATOM     26  C   UNL     1       0.877   0.238  -1.166  0.00  0.00    +0.055 A 
ATOM     27  C   UNL     1      -0.062  -0.016  -2.160  0.00  0.00    +0.027 A 
ATOM     30  C   UNL     1       0.341  -0.602  -3.355  0.00  0.00    +0.031 A 
ATOM     31  C   UNL     1       1.683  -0.912  -3.505  0.00  0.00    +0.113 A 
BRANCH  14  23
ATOM      3  O   UNL     1       6.945   0.847   0.232  0.00  0.00    -0.276 OA
ATOM      9  N   UNL     1       6.507   2.678   1.555  0.00  0.00    -0.329 N 
ATOM     23  C   UNL     1       6.253   1.415   1.073  0.00  0.00    +0.214 C 
ATOM     36  H   UNL     1       7.296   3.214   1.210  0.00  0.00    +0.145 HD
ATOM     37  H   UNL     1       5.961   3.107   2.295  0.00  0.00    +0.145 HD
ENDBRANCH  14  23
ENDBRANCH  24  27
BRANCH  18  10
ATOM      4  N   UNL     1      -3.928   1.478   1.292  0.00  0.00    -0.284 NA
ATOM     10  C   UNL     1      -4.237   1.609  -0.146  0.00  0.00    +0.146 C 
ATOM     11  C   UNL     1      -4.443   3.119  -0.365  0.00  0.00    +0.030 C 
ATOM     12  C   UNL     1      -4.290   3.746   1.014  0.00  0.00    +0.017 C 
ATOM     13  C   UNL     1      -4.585   2.600   1.961  0.00  0.00    +0.085 C 
BRANCH   4  15
ATOM     15  C   UNL     1      -4.331   0.194   1.851  0.00  0.00    +0.159 C 
BRANCH  15  21
ATOM      2  O   UNL     1      -2.068  -0.694   1.956  0.00  0.00    -0.458 OA
ATOM     21  C   UNL     1      -3.342  -0.894   1.528  0.00  0.00    +0.120 A 
ATOM     25  C   UNL     1      -3.451  -2.096   0.867  0.00  0.00    +0.054 A 
ATOM     28  C   UNL     1      -2.157  -2.681   0.885  0.00  0.00    +0.020 A 
ATOM     29  C   UNL     1      -1.344  -1.781   1.566  0.00  0.00    +0.135 A 
ATOM     32  C   UNL     1      -1.585  -3.871   0.403  0.00  0.00    +0.011 A 
ATOM     33  C   UNL     1       0.014  -1.980   1.804  0.00  0.00    +0.047 A 
ATOM     34  C   UNL     1      -0.220  -4.100   0.627  0.00  0.00    +0.001 A 
ATOM     35  C   UNL     1       0.563  -3.170   1.316  0.00  0.00    +0.004 A 
ENDBRANCH  15  21
ENDBRANCH   4  15
ENDBRANCH  18  10
TORSDOF 5
