REMARK  Name = 100630278
REMARK  3 active torsions:
REMARK  status: ('A' for Active; 'I' for Inactive)
REMARK    1  A    between atoms: N_9  and  C_29
REMARK    2  A    between atoms: C_10  and  C_15
REMARK    3  A    between atoms: C_15  and  C_17
REMARK                            x       y       z     vdW  Elec       q    Type
REMARK                         _______ _______ _______ _____ _____    ______ ____
ROOT
ATOM      2  O   UNL     1      -0.170   3.804   0.944  0.00  0.00    -0.274 OA
ATOM      4  O   UNL     1       1.181  -0.952  -0.982  0.00  0.00    -0.488 OA
ATOM      6  N   UNL     1      -1.527   2.389  -0.286  0.00  0.00    -0.300 N 
ATOM      8  N   UNL     1       1.475   1.932  -1.227  0.00  0.00    -0.304 NA
ATOM     10  C   UNL     1      -2.766  -0.171   0.356  0.00  0.00    +0.008 C 
ATOM     11  C   UNL     1      -1.673   0.001  -0.741  0.00  0.00    +0.032 C 
ATOM     12  C   UNL     1      -2.624   0.967   1.395  0.00  0.00    +0.023 C 
ATOM     13  C   UNL     1      -1.736   1.411  -1.359  0.00  0.00    +0.115 C 
ATOM     14  C   UNL     1      -2.565   2.353   0.748  0.00  0.00    +0.108 C 
ATOM     16  C   UNL     1      -1.695  -1.064  -1.804  0.00  0.00    -0.023 C 
ATOM     18  C   UNL     1      -0.368   3.135  -0.077  0.00  0.00    +0.229 C 
ATOM     19  C   UNL     1      -0.726  -1.930  -2.149  0.00  0.00    +0.010 C 
ATOM     20  C   UNL     1       0.689   3.161  -1.166  0.00  0.00    +0.178 C 
ATOM     23  C   UNL     1       0.688  -2.104  -1.656  0.00  0.00    +0.256 C 
ATOM     26  C   UNL     1       2.088   1.526   0.035  0.00  0.00    +0.120 C 
ATOM     27  C   UNL     1       2.991   0.316  -0.139  0.00  0.00    +0.010 A 
ATOM     28  C   UNL     1       2.509  -0.917  -0.638  0.00  0.00    +0.125 A 
ATOM     29  C   UNL     1       5.200  -0.671   0.112  0.00  0.00    +0.030 A 
ATOM     30  C   UNL     1       4.341   0.420   0.233  0.00  0.00    +0.031 A 
ATOM     33  C   UNL     1       3.380  -2.007  -0.748  0.00  0.00    +0.048 A 
ATOM     34  C   UNL     1       4.719  -1.882  -0.377  0.00  0.00    +0.027 A 
ATOM     37  H   UNL     1       2.200   2.047  -1.936  0.00  0.00    +0.123 HD
ENDROOT
BRANCH  29   9
ATOM      5  O   UNL     1       9.305  -0.400   0.979  0.00  0.00    -0.377 OA
ATOM      9  N   UNL     1       6.542  -0.550   0.485  0.00  0.00    -0.326 N 
ATOM     31  C   UNL     1       7.369   0.445  -0.212  0.00  0.00    +0.133 C 
ATOM     32  C   UNL     1       7.269  -1.719   0.993  0.00  0.00    +0.133 C 
ATOM     35  C   UNL     1       8.589   0.786   0.636  0.00  0.00    +0.178 C 
ATOM     36  C   UNL     1       8.495  -1.264   1.776  0.00  0.00    +0.178 C 
ENDBRANCH  29   9
BRANCH  10  15
ATOM     15  C   UNL     1      -4.202  -0.238  -0.177  0.00  0.00    +0.100 C 
BRANCH  15  17
ATOM      1  O   UNL     1      -4.619  -1.264   1.919  0.00  0.00    -0.276 OA
ATOM      3  O   UNL     1      -9.221  -0.616   0.226  0.00  0.00    -0.377 OA
ATOM      7  N   UNL     1      -6.444  -1.008   0.507  0.00  0.00    -0.297 N 
ATOM     17  C   UNL     1      -5.099  -0.884   0.848  0.00  0.00    +0.216 C 
ATOM     21  C   UNL     1      -7.385  -1.619   1.446  0.00  0.00    +0.136 C 
ATOM     22  C   UNL     1      -7.024  -0.685  -0.802  0.00  0.00    +0.136 C 
ATOM     24  C   UNL     1      -8.662  -0.795   1.530  0.00  0.00    +0.179 C 
ATOM     25  C   UNL     1      -8.320   0.097  -0.626  0.00  0.00    +0.179 C 
ENDBRANCH  15  17
ENDBRANCH  10  15
TORSDOF 3
