REMARK  Name = 75537073
REMARK  4 active torsions:
REMARK  status: ('A' for Active; 'I' for Inactive)
REMARK    1  A    between atoms: N_3  and  C_13
REMARK    2  A    between atoms: N_4  and  C_14
REMARK    3  A    between atoms: C_13  and  C_15
REMARK    4  A    between atoms: C_14  and  C_16
REMARK                            x       y       z     vdW  Elec       q    Type
REMARK                         _______ _______ _______ _____ _____    ______ ____
ROOT
ATOM      1  O   UNL     1       2.552   2.772  -0.122  0.00  0.00    -0.252 OA
ATOM      2  N   UNL     1       0.405   1.827  -0.241  0.00  0.00    -0.278 N 
ATOM      3  N   UNL     1      -2.153   1.008   0.595  0.00  0.00    -0.295 NA
ATOM      4  N   UNL     1       2.115   0.704  -1.167  0.00  0.00    -0.278 N 
ATOM      7  C   UNL     1      -0.216   0.691  -0.890  0.00  0.00    +0.109 C 
ATOM      8  C   UNL     1      -1.204   0.011   0.057  0.00  0.00    +0.109 C 
ATOM      9  C   UNL     1       0.968  -0.177  -1.313  0.00  0.00    +0.133 C 
ATOM     10  C   UNL     1      -0.427   2.791   0.449  0.00  0.00    +0.125 C 
ATOM     11  C   UNL     1      -1.440   2.066   1.339  0.00  0.00    +0.104 C 
ATOM     12  C   UNL     1       1.786   1.883  -0.469  0.00  0.00    +0.306 C 
ENDROOT
BRANCH   3  13
ATOM     13  C   UNL     1      -3.141   0.358   1.456  0.00  0.00    +0.121 C 
BRANCH  13  15
ATOM      6  N   UNL     1      -5.093  -2.444  -0.177  0.00  0.00    -0.263 NA
ATOM     15  C   UNL     1      -4.195  -0.360   0.656  0.00  0.00    -0.015 A 
ATOM     17  C   UNL     1      -5.216   0.341   0.024  0.00  0.00    +0.008 A 
ATOM     18  C   UNL     1      -4.179  -1.740   0.526  0.00  0.00    +0.115 A 
ATOM     20  C   UNL     1      -6.176  -0.349  -0.709  0.00  0.00    +0.020 A 
ATOM     23  C   UNL     1      -6.071  -1.729  -0.778  0.00  0.00    +0.111 A 
ENDBRANCH  13  15
ENDBRANCH   3  13
BRANCH   4  14
ATOM     14  C   UNL     1       3.444   0.303  -1.572  0.00  0.00    +0.164 C 
BRANCH  14  16
ATOM      5  N   UNL     1       4.171  -1.880  -0.782  0.00  0.00    -0.258 NA
ATOM     16  C   UNL     1       4.114  -0.553  -0.530  0.00  0.00    +0.059 A 
ATOM     19  C   UNL     1       4.627   0.043   0.610  0.00  0.00    +0.025 A 
ATOM     21  C   UNL     1       5.239  -0.776   1.553  0.00  0.00    +0.003 A 
ATOM     22  C   UNL     1       4.773  -2.644   0.156  0.00  0.00    +0.111 A 
ATOM     24  C   UNL     1       5.318  -2.146   1.329  0.00  0.00    +0.020 A 
ENDBRANCH  14  16
ENDBRANCH   4  14
TORSDOF 4
