REMARK  Name = 45783372
REMARK  10 active torsions:
REMARK  status: ('A' for Active; 'I' for Inactive)
REMARK    1  A    between atoms: O_2  and  C_26
REMARK    2  A    between atoms: O_4  and  C_30
REMARK    3  A    between atoms: O_4  and  C_31
REMARK    4  A    between atoms: N_5  and  C_14
REMARK    5  A    between atoms: N_8  and  C_28
REMARK    6  A    between atoms: C_10  and  C_15
REMARK    7  A    between atoms: C_14  and  C_16
REMARK    8  A    between atoms: C_19  and  C_22
REMARK    9  A    between atoms: C_23  and  C_26
REMARK   10  A    between atoms: C_28  and  C_30
REMARK                            x       y       z     vdW  Elec       q    Type
REMARK                         _______ _______ _______ _____ _____    ______ ____
ROOT
ATOM      1  O   UNL     1      -0.780   0.081   2.677  0.00  0.00    -0.336 OA
ATOM      6  N   UNL     1      -0.364  -1.264   0.935  0.00  0.00    -0.190 NA
ATOM      7  N   UNL     1       0.611  -0.074   2.629  0.00  0.00    -0.056 NA
ATOM     15  C   UNL     1      -1.277  -0.652   1.647  0.00  0.00    +0.245 A 
ATOM     19  C   UNL     1       0.778  -0.880   1.575  0.00  0.00    +0.205 A 
ENDROOT
BRANCH  19  22
ATOM      8  N   UNL     1       1.323  -1.468  -1.149  0.00  0.00    -0.326 N 
ATOM      9  N   UNL     1       3.562  -2.029  -0.628  0.00  0.00    -0.240 NA
ATOM     22  C   UNL     1       2.071  -1.321   1.138  0.00  0.00    +0.062 A 
ATOM     24  C   UNL     1       2.354  -1.612  -0.187  0.00  0.00    +0.130 A 
ATOM     25  C   UNL     1       3.093  -1.468   2.070  0.00  0.00    +0.016 A 
ATOM     27  C   UNL     1       4.349  -1.894   1.654  0.00  0.00    +0.020 A 
ATOM     29  C   UNL     1       4.531  -2.159   0.306  0.00  0.00    +0.113 A 
ATOM     32  H   UNL     1       0.568  -0.836  -0.905  0.00  0.00    +0.148 HD
BRANCH   8  28
ATOM     28  C   UNL     1       1.520  -1.743  -2.535  0.00  0.00    +0.131 C 
BRANCH  28  30
ATOM     30  C   UNL     1       0.243  -1.461  -3.308  0.00  0.00    +0.178 C 
BRANCH  30   4
ATOM      4  O   UNL     1      -0.794  -2.311  -2.835  0.00  0.00    -0.381 OA
ATOM     31  C   UNL     1      -2.010  -2.088  -3.534  0.00  0.00    +0.194 C 
ENDBRANCH  30   4
ENDBRANCH  28  30
ENDBRANCH   8  28
ENDBRANCH  19  22
BRANCH  15  10
ATOM      5  N   UNL     1      -3.204  -0.175   0.146  0.00  0.00    -0.287 NA
ATOM     10  C   UNL     1      -2.782  -0.648   1.480  0.00  0.00    +0.146 C 
ATOM     11  C   UNL     1      -3.398  -2.053   1.610  0.00  0.00    +0.030 C 
ATOM     12  C   UNL     1      -4.197  -2.257   0.330  0.00  0.00    +0.017 C 
ATOM     13  C   UNL     1      -4.471  -0.845  -0.148  0.00  0.00    +0.085 C 
BRANCH   5  14
ATOM     14  C   UNL     1      -3.318   1.275   0.060  0.00  0.00    +0.120 C 
BRANCH  14  16
ATOM     16  C   UNL     1      -1.976   1.934  -0.119  0.00  0.00    -0.033 A 
ATOM     17  C   UNL     1      -1.530   2.871   0.813  0.00  0.00    +0.006 A 
ATOM     18  C   UNL     1      -1.180   1.607  -1.216  0.00  0.00    +0.006 A 
ATOM     20  C   UNL     1      -0.287   3.481   0.647  0.00  0.00    +0.015 A 
ATOM     21  C   UNL     1       0.064   2.218  -1.382  0.00  0.00    +0.015 A 
ATOM     23  C   UNL     1       0.510   3.155  -0.450  0.00  0.00    +0.059 A 
BRANCH  23  26
ATOM      3  O   UNL     1       2.300   4.630   0.138  0.00  0.00    -0.245 OA
ATOM     26  C   UNL     1       1.807   3.790  -0.623  0.00  0.00    +0.337 C 
BRANCH  26   2
ATOM      2  O   UNL     1       2.453   3.359  -1.741  0.00  0.00    -0.477 OA
ATOM     33  H   UNL     1       3.326   3.793  -1.848  0.00  0.00    +0.295 HD
ENDBRANCH  26   2
ENDBRANCH  23  26
ENDBRANCH  14  16
ENDBRANCH   5  14
ENDBRANCH  15  10
TORSDOF 9
