REMARK  Name = 75536495
REMARK  8 active torsions:
REMARK  status: ('A' for Active; 'I' for Inactive)
REMARK    1  A    between atoms: O_2  and  C_7
REMARK    2  A    between atoms: N_4  and  C_6
REMARK    3  A    between atoms: N_4  and  C_11
REMARK    4  A    between atoms: N_5  and  C_10
REMARK    5  A    between atoms: C_8  and  C_10
REMARK    6  A    between atoms: C_11  and  C_12
REMARK    7  A    between atoms: C_11  and  C_13
REMARK    8  A    between atoms: C_14  and  C_15
REMARK                            x       y       z     vdW  Elec       q    Type
REMARK                         _______ _______ _______ _____ _____    ______ ____
ROOT
ATOM      1  O   UNL     1       0.417   1.340   0.097  0.00  0.00    -0.371 OA
ATOM      6  C   UNL     1      -1.549   0.007   0.092  0.00  0.00    +0.111 C 
ATOM      7  C   UNL     1      -0.453  -0.725  -0.659  0.00  0.00    +0.164 C 
ATOM      8  C   UNL     1       0.789  -0.032  -0.116  0.00  0.00    +0.165 C 
ATOM      9  C   UNL     1      -1.019   1.431   0.086  0.00  0.00    +0.181 C 
ENDROOT
BRANCH   7   2
ATOM      2  O   UNL     1      -0.441  -2.114  -0.392  0.00  0.00    -0.388 OA
ATOM     17  H   UNL     1      -0.359  -2.240   0.568  0.00  0.00    +0.210 HD
ENDBRANCH   7   2
BRANCH   6   4
ATOM      4  N   UNL     1      -2.860  -0.112  -0.525  0.00  0.00    -0.307 NA
ATOM     16  H   UNL     1      -3.022  -1.074  -0.823  0.00  0.00    +0.123 HD
BRANCH   4  11
ATOM     11  C   UNL     1      -3.913   0.308   0.391  0.00  0.00    +0.048 C 
ATOM     12  C   UNL     1      -5.159   0.684  -0.404  0.00  0.00    +0.023 C 
ATOM     13  C   UNL     1      -4.216  -0.802   1.393  0.00  0.00    +0.023 C 
ENDBRANCH   4  11
ENDBRANCH   6   4
BRANCH   8  10
ATOM     10  C   UNL     1       1.977  -0.101  -1.059  0.00  0.00    +0.138 C 
BRANCH  10   5
ATOM      3  O   UNL     1       4.056  -1.249   0.610  0.00  0.00    -0.276 OA
ATOM      5  N   UNL     1       3.120   0.568  -0.508  0.00  0.00    -0.313 N 
ATOM     14  C   UNL     1       4.071  -0.064   0.285  0.00  0.00    +0.210 C 
ATOM     15  C   UNL     1       5.179   0.862   0.709  0.00  0.00    +0.109 C 
ATOM     18  H   UNL     1       3.231   1.557  -0.712  0.00  0.00    +0.149 HD
ENDBRANCH  10   5
ENDBRANCH   8  10
TORSDOF 5
