REMARK  Name = 51136687
REMARK  8 active torsions:
REMARK  status: ('A' for Active; 'I' for Inactive)
REMARK    1  A    between atoms: O_2  and  C_16
REMARK    2  A    between atoms: O_4  and  C_30
REMARK    3  A    between atoms: O_4  and  C_31
REMARK    4  A    between atoms: C_7  and  C_12
REMARK    5  A    between atoms: C_8  and  C_13
REMARK    6  A    between atoms: C_12  and  C_14
REMARK    7  A    between atoms: C_13  and  C_16
REMARK    8  A    between atoms: C_15  and  C_21
REMARK                            x       y       z     vdW  Elec       q    Type
REMARK                         _______ _______ _______ _____ _____    ______ ____
ROOT
ATOM      1  O   UNL     1       0.373   3.442   1.696  0.00  0.00    -0.270 OA
ATOM      5  N   UNL     1       1.371   2.108   0.053  0.00  0.00    -0.297 N 
ATOM      7  C   UNL     1       2.074  -0.132  -0.762  0.00  0.00    +0.016 C 
ATOM      8  C   UNL     1       3.534   0.234  -0.390  0.00  0.00    +0.006 C 
ATOM      9  C   UNL     1       3.585   1.275   0.741  0.00  0.00    +0.023 C 
ATOM     10  C   UNL     1       1.271   1.149  -1.056  0.00  0.00    +0.112 C 
ATOM     11  C   UNL     1       2.734   2.497   0.407  0.00  0.00    +0.108 C 
ATOM     15  C   UNL     1       0.294   2.644   0.764  0.00  0.00    +0.247 C 
ENDROOT
BRANCH  15  21
ATOM     21  C   UNL     1      -1.060   2.229   0.380  0.00  0.00    +0.037 A 
ATOM     24  C   UNL     1      -1.525   2.475  -0.912  0.00  0.00    +0.016 A 
ATOM     25  C   UNL     1      -1.883   1.591   1.308  0.00  0.00    +0.016 A 
ATOM     28  C   UNL     1      -2.813   2.082  -1.276  0.00  0.00    +0.046 A 
ATOM     29  C   UNL     1      -3.171   1.198   0.944  0.00  0.00    +0.046 A 
ATOM     30  C   UNL     1      -3.636   1.444  -0.348  0.00  0.00    +0.120 A 
BRANCH  30   4
ATOM      4  O   UNL     1      -4.893   1.061  -0.704  0.00  0.00    -0.495 OA
ATOM     31  C   UNL     1      -5.303   1.343  -2.041  0.00  0.00    +0.277 C 
ENDBRANCH  30   4
ENDBRANCH  15  21
BRANCH   7  12
ATOM     12  C   UNL     1       1.356  -0.980   0.294  0.00  0.00    +0.061 C 
BRANCH  12  14
ATOM      6  N   UNL     1       0.270  -2.005  -1.586  0.00  0.00    -0.287 NA
ATOM     14  C   UNL     1       0.187  -1.700  -0.334  0.00  0.00    +0.044 C 
ATOM     17  C   UNL     1      -0.996  -2.014   0.508  0.00  0.00    -0.001 A 
ATOM     18  C   UNL     1      -2.187  -2.317  -0.164  0.00  0.00    -0.037 A 
ATOM     19  C   UNL     1      -2.194  -2.290  -1.664  0.00  0.00    +0.059 C 
ATOM     20  C   UNL     1      -0.840  -2.757  -2.182  0.00  0.00    +0.146 C 
ATOM     22  C   UNL     1      -0.954  -2.000   1.904  0.00  0.00    +0.010 A 
ATOM     23  C   UNL     1      -3.346  -2.582   0.571  0.00  0.00    +0.004 A 
ATOM     26  C   UNL     1      -2.113  -2.282   2.629  0.00  0.00    +0.001 A 
ATOM     27  C   UNL     1      -3.306  -2.569   1.965  0.00  0.00    +0.000 A 
ENDBRANCH  12  14
ENDBRANCH   7  12
BRANCH   8  13
ATOM     13  C   UNL     1       4.388  -0.984  -0.041  0.00  0.00    +0.124 C 
BRANCH  13  16
ATOM      3  O   UNL     1       6.354   0.350  -0.585  0.00  0.00    -0.251 OA
ATOM     16  C   UNL     1       5.855  -0.702  -0.217  0.00  0.00    +0.305 C 
BRANCH  16   2
ATOM      2  O   UNL     1       6.575  -1.810   0.098  0.00  0.00    -0.481 OA
ATOM     32  H   UNL     1       7.539  -1.661  -0.005  0.00  0.00    +0.295 HD
ENDBRANCH  16   2
ENDBRANCH  13  16
ENDBRANCH   8  13
TORSDOF 7
