REMARK  Name = 26742460
REMARK  10 active torsions:
REMARK  status: ('A' for Active; 'I' for Inactive)
REMARK    1  A    between atoms: O_3  and  C_31
REMARK    2  A    between atoms: O_3  and  C_34
REMARK    3  A    between atoms: O_4  and  C_32
REMARK    4  A    between atoms: O_4  and  C_35
REMARK    5  A    between atoms: N_6  and  C_17
REMARK    6  A    between atoms: N_9  and  C_26
REMARK    7  A    between atoms: C_11  and  C_18
REMARK    8  A    between atoms: C_12  and  C_17
REMARK    9  A    between atoms: C_20  and  C_23
REMARK   10  A    between atoms: C_21  and  C_24
REMARK                            x       y       z     vdW  Elec       q    Type
REMARK                         _______ _______ _______ _____ _____    ______ ____
ROOT
ATOM      5  N   UNL     1       1.187  -2.876   0.362  0.00  0.00    -0.297 NA
ATOM     10  C   UNL     1       1.876  -1.843  -1.927  0.00  0.00    +0.002 C 
ATOM     11  C   UNL     1       3.063  -1.786  -0.926  0.00  0.00    +0.055 C 
ATOM     12  C   UNL     1       0.170  -1.883  -0.075  0.00  0.00    +0.074 C 
ATOM     13  C   UNL     1       0.660  -1.113  -1.320  0.00  0.00    +0.024 C 
ATOM     14  C   UNL     1       1.487  -3.330  -2.072  0.00  0.00    +0.019 C 
ATOM     15  C   UNL     1       2.519  -2.229   0.463  0.00  0.00    +0.094 C 
ATOM     16  C   UNL     1       1.264  -3.933  -0.674  0.00  0.00    +0.085 C 
ENDROOT
BRANCH  11  18
ATOM      7  N   UNL     1       3.489   0.511  -1.650  0.00  0.00    -0.237 NA
ATOM      8  N   UNL     1       5.291   1.829  -0.744  0.00  0.00    -0.229 NA
ATOM     18  C   UNL     1       3.874  -0.501  -0.845  0.00  0.00    +0.050 A 
ATOM     19  C   UNL     1       4.942  -0.424   0.025  0.00  0.00    +0.055 A 
ATOM     20  C   UNL     1       5.621   0.777   0.033  0.00  0.00    +0.110 A 
ATOM     21  C   UNL     1       4.231   1.631  -1.550  0.00  0.00    +0.127 A 
ATOM     24  C   UNL     1       3.835   2.773  -2.424  0.00  0.00    +0.088 C 
BRANCH  20  23
ATOM      2  O   UNL     1       7.331   2.220   0.799  0.00  0.00    -0.461 OA
ATOM     23  C   UNL     1       6.755   0.993   0.892  0.00  0.00    +0.153 A 
ATOM     25  C   UNL     1       7.416   0.218   1.817  0.00  0.00    +0.051 A 
ATOM     27  C   UNL     1       8.465   1.021   2.325  0.00  0.00    +0.042 A 
ATOM     28  C   UNL     1       8.370   2.229   1.675  0.00  0.00    +0.196 A 
ENDBRANCH  20  23
ENDBRANCH  11  18
BRANCH  12  17
ATOM     17  C   UNL     1      -0.244  -0.938   1.055  0.00  0.00    +0.124 C 
BRANCH  17   6
ATOM      1  O   UNL     1      -3.054  -1.443   1.277  0.00  0.00    -0.253 OA
ATOM      6  N   UNL     1      -1.304  -0.074   0.635  0.00  0.00    -0.298 N 
ATOM      9  N   UNL     1      -3.469   0.640   0.279  0.00  0.00    -0.269 N 
ATOM     22  C   UNL     1      -2.667  -0.390   0.776  0.00  0.00    +0.304 C 
ATOM     36  H   UNL     1      -1.059   0.814   0.207  0.00  0.00    +0.150 HD
ATOM     37  H   UNL     1      -2.987   1.449  -0.105  0.00  0.00    +0.156 HD
BRANCH   9  26
ATOM     26  C   UNL     1      -4.882   0.699   0.240  0.00  0.00    +0.042 A 
ATOM     29  C   UNL     1      -5.519   1.817  -0.299  0.00  0.00    +0.069 A 
ATOM     30  C   UNL     1      -5.638  -0.360   0.742  0.00  0.00    +0.069 A 
ATOM     31  C   UNL     1      -7.032  -0.302   0.704  0.00  0.00    +0.125 A 
ATOM     32  C   UNL     1      -6.912   1.875  -0.337  0.00  0.00    +0.125 A 
ATOM     33  C   UNL     1      -7.668   0.815   0.164  0.00  0.00    +0.091 A 
BRANCH  31   3
ATOM      3  O   UNL     1      -7.770  -1.336   1.193  0.00  0.00    -0.495 OA
ATOM     34  C   UNL     1      -9.189  -1.210   1.122  0.00  0.00    +0.277 C 
ENDBRANCH  31   3
BRANCH  32   4
ATOM      4  O   UNL     1      -7.534   2.965  -0.863  0.00  0.00    -0.495 OA
ATOM     35  C   UNL     1      -8.961   2.958  -0.871  0.00  0.00    +0.277 C 
ENDBRANCH  32   4
ENDBRANCH   9  26
ENDBRANCH  17   6
ENDBRANCH  12  17
TORSDOF 7
