REMARK  Name = 7051282
REMARK  6 active torsions:
REMARK  status: ('A' for Active; 'I' for Inactive)
REMARK    1  A    between atoms: S_1  and  N_9
REMARK    2  A    between atoms: S_1  and  C_23
REMARK    3  A    between atoms: O_4  and  C_22
REMARK    4  A    between atoms: O_4  and  C_24
REMARK    5  A    between atoms: N_9  and  C_20
REMARK    6  A    between atoms: C_19  and  C_22
REMARK                            x       y       z     vdW  Elec       q    Type
REMARK                         _______ _______ _______ _____ _____    ______ ____
ROOT
ATOM      2  O   UNL     1      -0.695   2.988   1.555  0.00  0.00    -0.266 OA
ATOM      3  O   UNL     1      -2.851  -1.900   1.974  0.00  0.00    -0.272 OA
ATOM      7  N   UNL     1      -3.682  -0.792   0.108  0.00  0.00    -0.298 N 
ATOM      8  N   UNL     1      -2.147   2.009  -0.003  0.00  0.00    -0.310 N 
ATOM     10  C   UNL     1      -4.601   1.496   0.505  0.00  0.00    +0.027 C 
ATOM     11  C   UNL     1      -3.666   0.922  -1.696  0.00  0.00    +0.054 C 
ATOM     12  C   UNL     1      -4.803   1.664  -0.996  0.00  0.00    +0.018 C 
ATOM     13  C   UNL     1      -4.628   0.007   0.890  0.00  0.00    +0.113 C 
ATOM     14  C   UNL     1      -3.286   2.173   0.909  0.00  0.00    +0.130 C 
ATOM     15  C   UNL     1      -3.735  -0.577  -1.346  0.00  0.00    +0.117 C 
ATOM     16  C   UNL     1      -2.315   1.484  -1.291  0.00  0.00    +0.027 A 
ATOM     17  C   UNL     1      -1.283   1.449  -2.154  0.00  0.00    +0.024 A 
ATOM     18  C   UNL     1      -0.902   2.501   0.444  0.00  0.00    +0.274 A 
ATOM     19  C   UNL     1      -2.881  -1.735   0.751  0.00  0.00    +0.253 C 
ATOM     20  C   UNL     1       0.203   2.414  -0.544  0.00  0.00    +0.112 A 
ATOM     21  C   UNL     1       0.018   1.927  -1.771  0.00  0.00    +0.031 A 
ENDROOT
BRANCH  20   9
ATOM      9  N   UNL     1       1.491   2.865  -0.207  0.00  0.00    -0.211 N 
ATOM     35  H   UNL     1       2.089   3.018  -1.031  0.00  0.00    +0.174 HD
BRANCH   9   1
ATOM      1  S   UNL     1       2.261   2.098   1.091  0.00  0.00    +0.072 S 
ATOM      5  O   UNL     1       2.710   3.091   2.049  0.00  0.00    -0.150 OA
ATOM      6  O   UNL     1       1.466   0.966   1.530  0.00  0.00    -0.150 OA
BRANCH   1  23
ATOM     23  C   UNL     1       3.698   1.454   0.286  0.00  0.00    +0.108 A 
ATOM     25  C   UNL     1       4.843   2.228   0.229  0.00  0.00    +0.029 A 
ATOM     26  C   UNL     1       3.649   0.189  -0.271  0.00  0.00    +0.029 A 
ATOM     29  C   UNL     1       5.976   1.721  -0.407  0.00  0.00    +0.002 A 
ATOM     30  C   UNL     1       4.782  -0.319  -0.907  0.00  0.00    +0.002 A 
ATOM     31  C   UNL     1       5.946   0.448  -0.975  0.00  0.00    +0.000 A 
ENDBRANCH   1  23
ENDBRANCH   9   1
ENDBRANCH  20   9
BRANCH  19  22
ATOM     22  C   UNL     1      -2.000  -2.586  -0.129  0.00  0.00    +0.324 C 
BRANCH  22   4
ATOM      4  O   UNL     1      -1.266  -3.426   0.729  0.00  0.00    -0.483 OA
BRANCH   4  24
ATOM     24  C   UNL     1       0.006  -3.775   0.336  0.00  0.00    +0.121 A 
ATOM     27  C   UNL     1       0.301  -3.866  -1.016  0.00  0.00    +0.045 A 
ATOM     28  C   UNL     1       0.971  -4.031   1.299  0.00  0.00    +0.045 A 
ATOM     32  C   UNL     1       1.590  -4.221  -1.415  0.00  0.00    +0.004 A 
ATOM     33  C   UNL     1       2.260  -4.386   0.901  0.00  0.00    +0.004 A 
ATOM     34  C   UNL     1       2.569  -4.480  -0.456  0.00  0.00    +0.000 A 
ENDBRANCH   4  24
ENDBRANCH  22   4
ENDBRANCH  19  22
TORSDOF 6
