REMARK  Name = 45783593
REMARK  6 active torsions:
REMARK  status: ('A' for Active; 'I' for Inactive)
REMARK    1  A    between atoms: O_1  and  C_13
REMARK    2  A    between atoms: O_1  and  C_23
REMARK    3  A    between atoms: N_3  and  C_16
REMARK    4  A    between atoms: C_9  and  C_20
REMARK    5  A    between atoms: C_16  and  C_21
REMARK    6  A    between atoms: C_22  and  C_24
REMARK                            x       y       z     vdW  Elec       q    Type
REMARK                         _______ _______ _______ _____ _____    ______ ____
ROOT
ATOM      2  O   UNL     1       2.484  -0.229  -2.026  0.00  0.00    -0.336 OA
ATOM      4  N   UNL     1       1.871  -1.048  -0.034  0.00  0.00    -0.190 NA
ATOM      6  N   UNL     1       1.091  -0.102  -1.965  0.00  0.00    -0.056 NA
ATOM     20  C   UNL     1       2.863  -0.794  -0.851  0.00  0.00    +0.245 A 
ATOM     22  C   UNL     1       0.805  -0.607  -0.761  0.00  0.00    +0.204 A 
ENDROOT
BRANCH  22  24
ATOM      8  N   UNL     1      -2.894  -0.276  -0.587  0.00  0.00    -0.221 NA
ATOM     23  C   UNL     1      -3.109  -0.800   0.640  0.00  0.00    +0.215 A 
ATOM     24  C   UNL     1      -0.534  -0.685  -0.257  0.00  0.00    +0.041 A 
ATOM     25  C   UNL     1      -2.105  -1.280   1.465  0.00  0.00    +0.068 A 
ATOM     27  C   UNL     1      -0.796  -1.218   1.001  0.00  0.00    +0.018 A 
ATOM     29  C   UNL     1      -1.609  -0.232  -1.005  0.00  0.00    +0.126 A 
BRANCH  23   1
ATOM      1  O   UNL     1      -4.407  -0.851   1.075  0.00  0.00    -0.473 OA
BRANCH   1  13
ATOM     13  C   UNL     1      -5.399  -0.344   0.188  0.00  0.00    +0.175 C 
ATOM     14  C   UNL     1      -6.704  -1.116   0.383  0.00  0.00    +0.044 C 
ATOM     15  C   UNL     1      -5.589   1.152   0.430  0.00  0.00    +0.044 C 
ATOM     17  C   UNL     1      -7.827  -0.546  -0.477  0.00  0.00    +0.004 C 
ATOM     18  C   UNL     1      -6.712   1.722  -0.430  0.00  0.00    +0.004 C 
ATOM     19  C   UNL     1      -8.015   0.950  -0.236  0.00  0.00    +0.000 C 
ENDBRANCH   1  13
ENDBRANCH  23   1
ENDBRANCH  22  24
BRANCH  20   9
ATOM      3  N   UNL     1       4.886  -0.370   0.534  0.00  0.00    -0.284 NA
ATOM      9  C   UNL     1       4.346  -1.039  -0.666  0.00  0.00    +0.146 C 
ATOM     10  C   UNL     1       4.682  -2.529  -0.469  0.00  0.00    +0.030 C 
ATOM     11  C   UNL     1       5.463  -2.591   0.836  0.00  0.00    +0.017 C 
ATOM     12  C   UNL     1       6.012  -1.187   0.991  0.00  0.00    +0.085 C 
BRANCH   3  16
ATOM     16  C   UNL     1       5.274   1.014   0.295  0.00  0.00    +0.159 C 
BRANCH  16  21
ATOM      5  N   UNL     1       3.271   2.041   1.394  0.00  0.00    -0.347 N 
ATOM      7  N   UNL     1       3.693   2.723  -0.676  0.00  0.00    -0.239 NA
ATOM     21  C   UNL     1       4.086   1.938   0.302  0.00  0.00    +0.121 A 
ATOM     26  C   UNL     1       2.295   2.949   1.093  0.00  0.00    +0.104 A 
ATOM     28  C   UNL     1       2.576   3.356  -0.190  0.00  0.00    +0.130 A 
ATOM     30  H   UNL     1       3.368   1.536   2.265  0.00  0.00    +0.167 HD
ENDBRANCH  16  21
ENDBRANCH   3  16
ENDBRANCH  20   9
TORSDOF 6
