REMARK  Name = 45361626
REMARK  10 active torsions:
REMARK  status: ('A' for Active; 'I' for Inactive)
REMARK    1  A    between atoms: O_2  and  C_12
REMARK    2  A    between atoms: N_5  and  C_16
REMARK    3  A    between atoms: N_6  and  C_26
REMARK    4  A    between atoms: C_9  and  C_19
REMARK    5  A    between atoms: C_11  and  C_21
REMARK    6  A    between atoms: C_15  and  C_20
REMARK    7  A    between atoms: C_20  and  C_22
REMARK    8  A    between atoms: C_20  and  C_23
REMARK    9  A    between atoms: C_24  and  C_25
REMARK   10  A    between atoms: C_26  and  C_29
REMARK                            x       y       z     vdW  Elec       q    Type
REMARK                         _______ _______ _______ _____ _____    ______ ____
ROOT
ATOM      9  C   UNL     1      -0.165   0.318   1.276  0.00  0.00    -0.027 C 
ATOM     10  C   UNL     1      -0.497  -0.504  -0.014  0.00  0.00    +0.028 C 
ATOM     11  C   UNL     1      -2.029  -0.849  -0.077  0.00  0.00    +0.012 C 
ATOM     12  C   UNL     1       0.468  -1.713  -0.177  0.00  0.00    +0.122 C 
ATOM     13  C   UNL     1       1.324   0.737   1.251  0.00  0.00    +0.007 C 
ATOM     14  C   UNL     1      -1.017   1.608   1.286  0.00  0.00    +0.009 C 
ATOM     15  C   UNL     1       1.956  -1.301  -0.097  0.00  0.00    +0.029 C 
ATOM     16  C   UNL     1      -2.877   0.451   0.009  0.00  0.00    +0.076 C 
ATOM     17  C   UNL     1       2.273  -0.448   1.131  0.00  0.00    +0.007 C 
ATOM     18  C   UNL     1      -2.512   1.337   1.200  0.00  0.00    +0.023 C 
ATOM     19  C   UNL     1      -0.435  -0.482   2.576  0.00  0.00    +0.011 C 
ATOM     21  C   UNL     1      -2.431  -1.633  -1.338  0.00  0.00    +0.010 C 
ENDROOT
BRANCH  16   5
ATOM      4  O   UNL     1      -5.003   2.063  -1.052  0.00  0.00    -0.270 OA
ATOM      5  N   UNL     1      -4.295   0.162   0.070  0.00  0.00    -0.308 N 
ATOM     24  C   UNL     1      -5.247   1.007  -0.474  0.00  0.00    +0.247 C 
ATOM     36  H   UNL     1      -4.580  -0.641   0.621  0.00  0.00    +0.149 HD
BRANCH  24  25
ATOM      7  N   UNL     1      -8.995   1.137  -0.122  0.00  0.00    -0.243 NA
ATOM      8  N   UNL     1      -8.290  -1.164  -0.011  0.00  0.00    -0.243 NA
ATOM     25  C   UNL     1      -6.660   0.582  -0.305  0.00  0.00    +0.073 A 
ATOM     27  C   UNL     1      -7.701   1.488  -0.274  0.00  0.00    +0.127 A 
ATOM     28  C   UNL     1      -7.017  -0.743  -0.167  0.00  0.00    +0.127 A 
ATOM     32  C   UNL     1      -9.214  -0.186   0.002  0.00  0.00    +0.221 A 
ENDBRANCH  24  25
ENDBRANCH  16   5
BRANCH  12   2
ATOM      2  O   UNL     1       0.277  -2.306  -1.462  0.00  0.00    -0.391 OA
ATOM     37  H   UNL     1       0.463  -1.631  -2.137  0.00  0.00    +0.210 HD
ENDBRANCH  12   2
BRANCH  15  20
ATOM     20  C   UNL     1       2.886  -2.520  -0.128  0.00  0.00    +0.077 C 
ATOM     22  C   UNL     1       2.578  -3.446   1.044  0.00  0.00    +0.017 C 
BRANCH  20  23
ATOM      3  O   UNL     1       5.133  -2.406   0.768  0.00  0.00    -0.276 OA
ATOM      6  N   UNL     1       4.653  -1.234  -1.175  0.00  0.00    -0.311 N 
ATOM     23  C   UNL     1       4.342  -2.064  -0.108  0.00  0.00    +0.216 C 
ATOM     38  H   UNL     1       3.957  -1.041  -1.887  0.00  0.00    +0.149 HD
BRANCH   6  26
ATOM     26  C   UNL     1       5.970  -0.673  -1.370  0.00  0.00    +0.141 C 
BRANCH  26  29
ATOM      1 CL   UNL     1       4.624   1.831  -2.571  0.00  0.00    -0.083 Cl
ATOM     29  C   UNL     1       6.138   0.632  -0.648  0.00  0.00    -0.012 A 
ATOM     30  C   UNL     1       5.563   1.811  -1.122  0.00  0.00    +0.046 A 
ATOM     31  C   UNL     1       6.891   0.647   0.526  0.00  0.00    +0.006 A 
ATOM     33  C   UNL     1       5.741   3.004  -0.423  0.00  0.00    +0.020 A 
ATOM     34  C   UNL     1       7.070   1.841   1.225  0.00  0.00    +0.000 A 
ATOM     35  C   UNL     1       6.495   3.019   0.751  0.00  0.00    +0.001 A 
ENDBRANCH  26  29
ENDBRANCH   6  26
ENDBRANCH  20  23
ENDBRANCH  15  20
TORSDOF 7
