REMARK  Name = 11883359
REMARK  6 active torsions:
REMARK  status: ('A' for Active; 'I' for Inactive)
REMARK    1  A    between atoms: O_6  and  C_15
REMARK    2  A    between atoms: O_6  and  C_24
REMARK    3  A    between atoms: N_9  and  C_14
REMARK    4  A    between atoms: N_10  and  C_18
REMARK    5  A    between atoms: N_11  and  C_26
REMARK    6  A    between atoms: C_31  and  C_32
REMARK                            x       y       z     vdW  Elec       q    Type
REMARK                         _______ _______ _______ _____ _____    ______ ____
ROOT
ATOM      4  O   UNL     1       2.120  -0.800  -1.294  0.00  0.00    -0.368 OA
ATOM      5  O   UNL     1       1.370  -3.179   0.490  0.00  0.00    -0.368 OA
ATOM     12  C   UNL     1       0.767  -1.878   0.328  0.00  0.00    +0.173 C 
ATOM     13  C   UNL     1       1.899  -0.892   0.123  0.00  0.00    +0.192 C 
ATOM     14  C   UNL     1      -0.003  -1.821  -0.971  0.00  0.00    +0.131 C 
ATOM     15  C   UNL     1       3.052  -1.567   0.827  0.00  0.00    +0.235 C 
ATOM     16  C   UNL     1       1.093  -1.531  -1.982  0.00  0.00    +0.185 C 
ATOM     17  C   UNL     1       2.796  -3.027   0.528  0.00  0.00    +0.207 C 
ENDROOT
BRANCH  14   9
ATOM      8  O   UNL     1      -2.771  -2.080  -0.280  0.00  0.00    -0.252 OA
ATOM      9  N   UNL     1      -0.988  -0.768  -0.949  0.00  0.00    -0.292 N 
ATOM     11  N   UNL     1      -3.043   0.220  -0.667  0.00  0.00    -0.269 N 
ATOM     25  C   UNL     1      -2.327  -0.979  -0.598  0.00  0.00    +0.304 C 
ATOM     33  H   UNL     1      -0.684   0.183  -1.135  0.00  0.00    +0.151 HD
ATOM     35  H   UNL     1      -2.523   1.046  -0.951  0.00  0.00    +0.156 HD
BRANCH  11  26
ATOM     26  C   UNL     1      -4.415   0.428  -0.391  0.00  0.00    +0.035 A 
ATOM     27  C   UNL     1      -4.964   1.705  -0.515  0.00  0.00    +0.024 A 
ATOM     28  C   UNL     1      -5.218  -0.641   0.005  0.00  0.00    +0.024 A 
ATOM     29  C   UNL     1      -6.316   1.911  -0.242  0.00  0.00    +0.014 A 
ATOM     30  C   UNL     1      -6.570  -0.435   0.278  0.00  0.00    +0.014 A 
ATOM     31  C   UNL     1      -7.119   0.842   0.154  0.00  0.00    +0.055 A 
BRANCH  31  32
ATOM      1  F   UNL     1      -9.401   0.331  -0.350  0.00  0.00    -0.166 F 
ATOM      2  F   UNL     1      -8.964   2.359   0.281  0.00  0.00    -0.166 F 
ATOM      3  F   UNL     1      -8.899   0.736   1.727  0.00  0.00    -0.166 F 
ATOM     32  C   UNL     1      -8.565   1.063   0.445  0.00  0.00    +0.417 C 
ENDBRANCH  31  32
ENDBRANCH  11  26
ENDBRANCH  14   9
BRANCH  15   6
ATOM      6  O   UNL     1       4.316  -1.145   0.369  0.00  0.00    -0.442 OA
BRANCH   6  24
ATOM      7  O   UNL     1       4.400   0.445   2.024  0.00  0.00    -0.226 OA
ATOM     10  N   UNL     1       6.135   0.197   0.503  0.00  0.00    -0.278 N 
ATOM     24  C   UNL     1       4.909  -0.111   1.056  0.00  0.00    +0.401 C 
ATOM     34  H   UNL     1       6.414  -0.315  -0.327  0.00  0.00    +0.152 HD
BRANCH  10  18
ATOM     18  C   UNL     1       7.001   1.241   1.004  0.00  0.00    +0.076 C 
ATOM     19  C   UNL     1       8.476   0.877   0.800  0.00  0.00    +0.022 C 
ATOM     20  C   UNL     1       6.668   2.591   0.358  0.00  0.00    +0.022 C 
ATOM     21  C   UNL     1       8.899   0.948  -0.667  0.00  0.00    +0.002 C 
ATOM     22  C   UNL     1       7.094   2.658  -1.109  0.00  0.00    +0.002 C 
ATOM     23  C   UNL     1       8.567   2.303  -1.284  0.00  0.00    +0.000 C 
ENDBRANCH  10  18
ENDBRANCH   6  24
ENDBRANCH  15   6
TORSDOF 6
