REMARK  Name = 71694024
REMARK  8 active torsions:
REMARK  status: ('A' for Active; 'I' for Inactive)
REMARK    1  A    between atoms: S_1  and  N_9
REMARK    2  A    between atoms: S_1  and  C_19
REMARK    3  A    between atoms: O_5  and  C_13
REMARK    4  A    between atoms: O_6  and  C_15
REMARK    5  A    between atoms: N_9  and  C_12
REMARK    6  A    between atoms: C_11  and  C_16
REMARK    7  A    between atoms: C_22  and  C_25
REMARK    8  A    between atoms: C_26  and  C_29
REMARK                            x       y       z     vdW  Elec       q    Type
REMARK                         _______ _______ _______ _____ _____    ______ ____
ROOT
ATOM     11  C   UNL     1      -1.663  -1.281  -0.858  0.00  0.00    +0.043 C 
ATOM     12  C   UNL     1      -2.435  -0.424   0.183  0.00  0.00    +0.115 C 
ATOM     13  C   UNL     1      -3.545  -1.331   0.732  0.00  0.00    +0.162 C 
ATOM     14  C   UNL     1      -2.281  -2.687  -0.770  0.00  0.00    +0.043 C 
ATOM     15  C   UNL     1      -3.712  -2.408  -0.337  0.00  0.00    +0.145 C 
ENDROOT
BRANCH  11  16
ATOM     16  C   UNL     1      -0.163  -1.279  -0.665  0.00  0.00    -0.043 A 
ATOM     17  C   UNL     1       0.672  -0.838  -1.692  0.00  0.00    +0.004 A 
ATOM     18  C   UNL     1       0.386  -1.719   0.539  0.00  0.00    +0.004 A 
ATOM     20  C   UNL     1       2.055  -0.835  -1.514  0.00  0.00    +0.012 A 
ATOM     21  C   UNL     1       1.770  -1.717   0.717  0.00  0.00    +0.012 A 
ATOM     22  C   UNL     1       2.604  -1.275  -0.310  0.00  0.00    +0.055 A 
BRANCH  22  25
ATOM      2  F   UNL     1       4.753  -0.814  -1.217  0.00  0.00    -0.166 F 
ATOM      3  F   UNL     1       4.502  -0.490   0.918  0.00  0.00    -0.166 F 
ATOM      4  F   UNL     1       4.604  -2.510   0.135  0.00  0.00    -0.166 F 
ATOM     25  C   UNL     1       4.084  -1.273  -0.120  0.00  0.00    +0.417 C 
ENDBRANCH  22  25
ENDBRANCH  11  16
BRANCH  13   5
ATOM      5  O   UNL     1      -3.083  -1.903   1.955  0.00  0.00    -0.388 OA
ATOM     31  H   UNL     1      -2.990  -1.179   2.598  0.00  0.00    +0.210 HD
ENDBRANCH  13   5
BRANCH  15   6
ATOM      6  O   UNL     1      -4.341  -3.573   0.156  0.00  0.00    -0.389 OA
ATOM     32  H   UNL     1      -4.329  -4.235  -0.556  0.00  0.00    +0.210 HD
ENDBRANCH  15   6
BRANCH  12   9
ATOM      9  N   UNL     1      -3.047   0.745  -0.501  0.00  0.00    -0.184 NA
ATOM     30  H   UNL     1      -3.504   0.586  -1.407  0.00  0.00    +0.148 HD
BRANCH   9   1
ATOM      1  S   UNL     1      -2.685   2.319   0.026  0.00  0.00    +0.059 S 
ATOM      7  O   UNL     1      -2.960   2.428   1.446  0.00  0.00    -0.153 OA
ATOM      8  O   UNL     1      -3.265   3.268  -0.905  0.00  0.00    -0.153 OA
BRANCH   1  19
ATOM     19  C   UNL     1      -0.932   2.383  -0.196  0.00  0.00    +0.106 A 
ATOM     23  C   UNL     1      -0.083   1.997   0.840  0.00  0.00    +0.047 A 
ATOM     24  C   UNL     1      -0.399   2.821  -1.409  0.00  0.00    +0.028 A 
ATOM     26  C   UNL     1       1.300   2.049   0.665  0.00  0.00    +0.054 A 
ATOM     27  C   UNL     1       0.983   2.873  -1.584  0.00  0.00    +0.003 A 
ATOM     28  C   UNL     1       1.833   2.487  -0.548  0.00  0.00    +0.019 A 
BRANCH  26  29
ATOM     10  N   UNL     1       2.878   1.331   2.589  0.00  0.00    -0.191 NA
ATOM     29  C   UNL     1       2.171   1.653   1.726  0.00  0.00    +0.099 C 
ENDBRANCH  26  29
ENDBRANCH   1  19
ENDBRANCH   9   1
ENDBRANCH  12   9
TORSDOF 8
