REMARK  Name = 51137466
REMARK  6 active torsions:
REMARK  status: ('A' for Active; 'I' for Inactive)
REMARK    1  A    between atoms: O_4  and  C_23
REMARK    2  A    between atoms: O_4  and  C_28
REMARK    3  A    between atoms: N_5  and  C_12
REMARK    4  A    between atoms: C_8  and  C_13
REMARK    5  A    between atoms: C_12  and  C_14
REMARK    6  A    between atoms: C_17  and  C_21
REMARK                            x       y       z     vdW  Elec       q    Type
REMARK                         _______ _______ _______ _____ _____    ______ ____
ROOT
ATOM      5  N   UNL     1      -1.672  -0.898  -0.410  0.00  0.00    -0.297 NA
ATOM      8  C   UNL     1       0.394  -1.895   0.080  0.00  0.00    +0.092 C 
ATOM      9  C   UNL     1      -0.406  -1.247  -1.058  0.00  0.00    +0.097 C 
ATOM     10  C   UNL     1      -0.211  -1.304   1.366  0.00  0.00    +0.029 C 
ATOM     11  C   UNL     1      -1.290  -0.341   0.887  0.00  0.00    +0.085 C 
ENDROOT
BRANCH   8  13
ATOM      1  O   UNL     1       2.344  -0.423  -0.086  0.00  0.00    -0.420 OA
ATOM      6  N   UNL     1       2.836  -2.603  -0.179  0.00  0.00    -0.112 NA
ATOM      7  N   UNL     1       4.018  -1.894  -0.283  0.00  0.00    -0.107 NA
ATOM     13  C   UNL     1       1.886  -1.705  -0.066  0.00  0.00    +0.222 A 
ATOM     17  C   UNL     1       3.683  -0.626  -0.224  0.00  0.00    +0.252 A 
BRANCH  17  21
ATOM     21  C   UNL     1       4.494   0.555  -0.281  0.00  0.00    +0.080 A 
ATOM     23  C   UNL     1       5.806   0.545   0.190  0.00  0.00    +0.132 A 
ATOM     24  C   UNL     1       3.954   1.724  -0.816  0.00  0.00    +0.017 A 
ATOM     25  C   UNL     1       6.579   1.704   0.128  0.00  0.00    +0.046 A 
ATOM     26  C   UNL     1       4.727   2.884  -0.879  0.00  0.00    +0.001 A 
ATOM     27  C   UNL     1       6.039   2.874  -0.407  0.00  0.00    +0.004 A 
BRANCH  23   4
ATOM      4  O   UNL     1       6.360  -0.584   0.719  0.00  0.00    -0.494 OA
ATOM     28  C   UNL     1       6.210  -0.781   2.123  0.00  0.00    +0.277 C 
ENDBRANCH  23   4
ENDBRANCH  17  21
ENDBRANCH   8  13
BRANCH   5  12
ATOM     12  C   UNL     1      -2.463   0.032  -1.202  0.00  0.00    +0.119 C 
BRANCH  12  14
ATOM      2  O   UNL     1      -6.362   2.025   1.105  0.00  0.00    -0.453 OA
ATOM      3  O   UNL     1      -7.818   0.216   0.460  0.00  0.00    -0.453 OA
ATOM     14  C   UNL     1      -3.906   0.048  -0.771  0.00  0.00    -0.030 A 
ATOM     15  C   UNL     1      -4.389   1.112  -0.006  0.00  0.00    +0.054 A 
ATOM     16  C   UNL     1      -4.755  -1.008  -1.147  0.00  0.00    +0.009 A 
ATOM     18  C   UNL     1      -5.719   1.083   0.362  0.00  0.00    +0.167 A 
ATOM     19  C   UNL     1      -6.098  -1.012  -0.761  0.00  0.00    +0.050 A 
ATOM     20  C   UNL     1      -6.550   0.050  -0.005  0.00  0.00    +0.166 A 
ATOM     22  C   UNL     1      -7.692   1.469   1.162  0.00  0.00    +0.466 C 
ENDBRANCH  12  14
ENDBRANCH   5  12
TORSDOF 5
