REMARK  Name = 51136908
REMARK  5 active torsions:
REMARK  status: ('A' for Active; 'I' for Inactive)
REMARK    1  A    between atoms: N_3  and  C_13
REMARK    2  A    between atoms: C_9  and  C_14
REMARK    3  A    between atoms: C_13  and  C_15
REMARK    4  A    between atoms: C_18  and  C_21
REMARK    5  A    between atoms: C_26  and  C_27
REMARK                            x       y       z     vdW  Elec       q    Type
REMARK                         _______ _______ _______ _____ _____    ______ ____
ROOT
ATOM      2  O   UNL     1      -2.169  -0.649   2.102  0.00  0.00    -0.336 OA
ATOM      4  N   UNL     1      -1.256  -1.193   0.130  0.00  0.00    -0.190 NA
ATOM      5  N   UNL     1      -0.804  -0.357   2.211  0.00  0.00    -0.056 NA
ATOM     14  C   UNL     1      -2.350  -1.137   0.846  0.00  0.00    +0.245 A 
ATOM     18  C   UNL     1      -0.334  -0.704   1.009  0.00  0.00    +0.204 A 
ENDROOT
BRANCH  18  21
ATOM      6  N   UNL     1       3.293   0.067   1.287  0.00  0.00    -0.254 NA
ATOM     21  C   UNL     1       1.050  -0.577   0.655  0.00  0.00    +0.041 A 
ATOM     23  C   UNL     1       1.504  -0.950  -0.605  0.00  0.00    +0.015 A 
ATOM     24  C   UNL     1       1.976  -0.079   1.557  0.00  0.00    +0.123 A 
ATOM     25  C   UNL     1       2.852  -0.815  -0.920  0.00  0.00    +0.029 A 
ATOM     26  C   UNL     1       3.698  -0.306   0.052  0.00  0.00    +0.074 A 
BRANCH  26  27
ATOM      7  N   UNL     1       6.911   0.282  -1.742  0.00  0.00    -0.243 NA
ATOM      8  N   UNL     1       7.380  -0.088   0.592  0.00  0.00    -0.243 NA
ATOM     27  C   UNL     1       5.109  -0.139  -0.204  0.00  0.00    +0.037 A 
ATOM     28  C   UNL     1       5.600   0.123  -1.466  0.00  0.00    +0.124 A 
ATOM     29  C   UNL     1       6.054  -0.235   0.797  0.00  0.00    +0.124 A 
ATOM     30  C   UNL     1       7.733   0.166  -0.682  0.00  0.00    +0.221 A 
ENDBRANCH  26  27
ENDBRANCH  18  21
BRANCH  14   9
ATOM      3  N   UNL     1      -4.258  -0.816  -0.719  0.00  0.00    -0.287 NA
ATOM      9  C   UNL     1      -3.764  -1.532   0.474  0.00  0.00    +0.146 C 
ATOM     10  C   UNL     1      -3.888  -3.024   0.114  0.00  0.00    +0.030 C 
ATOM     11  C   UNL     1      -4.517  -3.048  -1.272  0.00  0.00    +0.017 C 
ATOM     12  C   UNL     1      -5.219  -1.708  -1.369  0.00  0.00    +0.085 C 
BRANCH   3  13
ATOM     13  C   UNL     1      -4.840   0.484  -0.409  0.00  0.00    +0.123 C 
BRANCH  13  15
ATOM      1  F   UNL     1      -2.933   1.170  -2.388  0.00  0.00    -0.205 F 
ATOM     15  C   UNL     1      -3.783   1.536  -0.202  0.00  0.00    +0.002 A 
ATOM     16  C   UNL     1      -2.874   1.825  -1.220  0.00  0.00    +0.128 A 
ATOM     17  C   UNL     1      -3.714   2.222   1.010  0.00  0.00    +0.008 A 
ATOM     19  C   UNL     1      -1.896   2.800  -1.025  0.00  0.00    +0.038 A 
ATOM     20  C   UNL     1      -2.736   3.197   1.205  0.00  0.00    +0.000 A 
ATOM     22  C   UNL     1      -1.827   3.486   0.187  0.00  0.00    +0.003 A 
ENDBRANCH  13  15
ENDBRANCH   3  13
ENDBRANCH  14   9
TORSDOF 5
