REMARK  Name = 11941501
REMARK  5 active torsions:
REMARK  status: ('A' for Active; 'I' for Inactive)
REMARK    1  A    between atoms: S_1  and  C_21
REMARK    2  A    between atoms: S_1  and  C_27
REMARK    3  A    between atoms: N_7  and  C_9
REMARK    4  A    between atoms: C_17  and  C_21
REMARK    5  A    between atoms: C_20  and  C_23
REMARK                            x       y       z     vdW  Elec       q    Type
REMARK                         _______ _______ _______ _____ _____    ______ ____
ROOT
ATOM      3  O   UNL     1      -2.368  -3.105   1.195  0.00  0.00    -0.273 OA
ATOM      4  O   UNL     1       0.573  -0.994  -2.633  0.00  0.00    -0.270 OA
ATOM      6  N   UNL     1      -1.238  -1.179  -1.228  0.00  0.00    -0.284 N 
ATOM      8  N   UNL     1      -0.195  -2.424   1.225  0.00  0.00    -0.283 N 
ATOM      9  C   UNL     1      -3.364  -0.888  -0.231  0.00  0.00    +0.104 C 
ATOM     10  C   UNL     1      -1.866  -1.032   0.072  0.00  0.00    +0.183 C 
ATOM     11  C   UNL     1      -3.529  -1.624  -1.563  0.00  0.00    +0.043 C 
ATOM     12  C   UNL     1      -2.224  -1.336  -2.288  0.00  0.00    +0.111 C 
ATOM     13  C   UNL     1      -1.513  -2.292   0.841  0.00  0.00    +0.240 C 
ATOM     14  C   UNL     1       0.105  -1.023  -1.495  0.00  0.00    +0.249 C 
ATOM     15  C   UNL     1       1.038  -0.907  -0.344  0.00  0.00    +0.059 A 
ATOM     16  C   UNL     1       0.914  -1.633   0.852  0.00  0.00    +0.046 A 
ATOM     18  C   UNL     1       2.196  -0.141  -0.571  0.00  0.00    +0.023 A 
ATOM     19  C   UNL     1       1.984  -1.626   1.764  0.00  0.00    +0.024 A 
ATOM     20  C   UNL     1       3.227  -0.108   0.367  0.00  0.00    -0.017 A 
ATOM     22  C   UNL     1       3.127  -0.861   1.530  0.00  0.00    +0.010 A 
ATOM     29  H   UNL     1      -0.016  -3.134   1.931  0.00  0.00    +0.155 HD
ENDROOT
BRANCH  20  23
ATOM      2  S   UNL     1       5.855   2.607  -0.770  0.00  0.00    -0.104 S 
ATOM     23  C   UNL     1       4.400   0.682   0.120  0.00  0.00    -0.011 A 
ATOM     24  C   UNL     1       5.730   0.413   0.561  0.00  0.00    +0.016 A 
ATOM     25  C   UNL     1       4.329   1.847  -0.615  0.00  0.00    +0.053 A 
ATOM     26  C   UNL     1       6.620   1.379   0.147  0.00  0.00    +0.046 A 
ENDBRANCH  20  23
BRANCH   9   7
ATOM      5  O   UNL     1      -4.407   0.835   1.847  0.00  0.00    -0.275 OA
ATOM      7  N   UNL     1      -3.735   0.503  -0.353  0.00  0.00    -0.309 N 
ATOM     17  C   UNL     1      -4.229   1.251   0.703  0.00  0.00    +0.223 C 
ATOM     28  H   UNL     1      -3.572   0.964  -1.244  0.00  0.00    +0.149 HD
BRANCH  17  21
ATOM     21  C   UNL     1      -4.560   2.673   0.315  0.00  0.00    +0.164 C 
BRANCH  21   1
ATOM      1  S   UNL     1      -3.088   3.700   0.540  0.00  0.00    -0.155 S 
ATOM     27  C   UNL     1      -3.782   5.284   0.011  0.00  0.00    +0.085 C 
ENDBRANCH  21   1
ENDBRANCH  17  21
ENDBRANCH   9   7
TORSDOF 4
