REMARK  Name = 44716868
REMARK  13 active torsions:
REMARK  status: ('A' for Active; 'I' for Inactive)
REMARK    1  A    between atoms: O_3  and  C_16
REMARK    2  A    between atoms: O_3  and  C_25
REMARK    3  A    between atoms: O_4  and  C_17
REMARK    4  A    between atoms: O_5  and  C_21
REMARK    5  A    between atoms: N_8  and  C_26
REMARK    6  A    between atoms: N_9  and  C_27
REMARK    7  A    between atoms: C_10  and  C_20
REMARK    8  A    between atoms: C_12  and  C_21
REMARK    9  A    between atoms: C_12  and  C_22
REMARK   10  A    between atoms: C_13  and  C_23
REMARK   11  A    between atoms: C_23  and  C_24
REMARK   12  A    between atoms: C_26  and  C_28
REMARK   13  A    between atoms: C_27  and  C_29
REMARK                            x       y       z     vdW  Elec       q    Type
REMARK                         _______ _______ _______ _____ _____    ______ ____
ROOT
ATOM     10  C   UNL     1      -0.784   1.606   0.577  0.00  0.00    -0.023 C 
ATOM     11  C   UNL     1      -1.285   1.420  -0.908  0.00  0.00    +0.007 C 
ATOM     12  C   UNL     1      -2.798   1.017  -1.099  0.00  0.00    +0.031 C 
ATOM     13  C   UNL     1       0.798   1.684   0.524  0.00  0.00    +0.032 C 
ATOM     14  C   UNL     1      -1.207   0.357   1.397  0.00  0.00    +0.011 C 
ATOM     15  C   UNL     1      -0.812   2.590  -1.800  0.00  0.00    +0.007 C 
ATOM     16  C   UNL     1      -3.119  -0.190  -0.168  0.00  0.00    +0.186 C 
ATOM     17  C   UNL     1       1.329   2.783  -0.425  0.00  0.00    +0.119 C 
ATOM     18  C   UNL     1      -2.688   0.017   1.280  0.00  0.00    +0.046 C 
ATOM     19  C   UNL     1       0.713   2.690  -1.819  0.00  0.00    +0.032 C 
ATOM     20  C   UNL     1      -1.367   2.858   1.276  0.00  0.00    +0.012 C 
ATOM     22  C   UNL     1      -3.017   0.545  -2.566  0.00  0.00    +0.017 C 
ENDROOT
BRANCH  17   4
ATOM      4  O   UNL     1       1.099   4.079   0.117  0.00  0.00    -0.391 OA
ATOM     35  H   UNL     1       1.478   4.729  -0.498  0.00  0.00    +0.210 HD
ENDBRANCH  17   4
BRANCH  16   3
ATOM      3  O   UNL     1      -4.515  -0.490  -0.151  0.00  0.00    -0.446 OA
BRANCH   3  25
ATOM      7  O   UNL     1      -4.029  -2.704   0.221  0.00  0.00    -0.226 OA
ATOM      9  N   UNL     1      -6.216  -1.948   0.048  0.00  0.00    -0.281 N 
ATOM     25  C   UNL     1      -4.844  -1.802   0.056  0.00  0.00    +0.401 C 
ATOM     38  H   UNL     1      -6.783  -1.118  -0.094  0.00  0.00    +0.152 HD
BRANCH   9  27
ATOM     27  C   UNL     1      -6.889  -3.212   0.239  0.00  0.00    +0.104 C 
ATOM     29  C   UNL     1      -6.963  -3.585   1.705  0.00  0.00    +0.024 C 
ENDBRANCH   9  27
ENDBRANCH   3  25
ENDBRANCH  16   3
BRANCH  12  21
ATOM     21  C   UNL     1      -3.791   2.177  -0.880  0.00  0.00    +0.166 C 
BRANCH  21   5
ATOM      5  O   UNL     1      -5.001   1.838  -1.521  0.00  0.00    -0.394 OA
ATOM     36  H   UNL     1      -5.619   2.576  -1.382  0.00  0.00    +0.209 HD
ENDBRANCH  21   5
ENDBRANCH  12  21
BRANCH  13  23
ATOM     23  C   UNL     1       1.485   1.802   1.894  0.00  0.00    +0.102 C 
BRANCH  23  24
ATOM      6  O   UNL     1       3.872   2.053   1.586  0.00  0.00    -0.276 OA
ATOM      8  N   UNL     1       2.999  -0.027   2.143  0.00  0.00    -0.311 N 
ATOM     24  C   UNL     1       2.918   1.326   1.850  0.00  0.00    +0.214 C 
ATOM     37  H   UNL     1       2.148  -0.553   2.317  0.00  0.00    +0.149 HD
BRANCH   8  26
ATOM     26  C   UNL     1       4.247  -0.755   2.172  0.00  0.00    +0.139 C 
BRANCH  26  28
ATOM      1  F   UNL     1       6.847  -0.729  -1.954  0.00  0.00    -0.205 F 
ATOM      2  F   UNL     1       3.586  -4.102  -1.313  0.00  0.00    -0.205 F 
ATOM     28  C   UNL     1       4.588  -1.339   0.832  0.00  0.00    -0.025 A 
ATOM     30  C   UNL     1       3.915  -2.471   0.373  0.00  0.00    +0.043 A 
ATOM     31  C   UNL     1       5.579  -0.751   0.045  0.00  0.00    +0.043 A 
ATOM     32  C   UNL     1       5.896  -1.294  -1.200  0.00  0.00    +0.126 A 
ATOM     33  C   UNL     1       4.232  -3.015  -0.872  0.00  0.00    +0.126 A 
ATOM     34  C   UNL     1       5.223  -2.426  -1.658  0.00  0.00    +0.076 A 
ENDBRANCH  26  28
ENDBRANCH   8  26
ENDBRANCH  23  24
ENDBRANCH  13  23
TORSDOF 10
