REMARK  Name = 75536930
REMARK  4 active torsions:
REMARK  status: ('A' for Active; 'I' for Inactive)
REMARK    1  A    between atoms: O_2  and  C_8
REMARK    2  A    between atoms: O_2  and  C_15
REMARK    3  A    between atoms: N_3  and  C_11
REMARK    4  A    between atoms: C_11  and  C_13
REMARK                            x       y       z     vdW  Elec       q    Type
REMARK                         _______ _______ _______ _____ _____    ______ ____
ROOT
ATOM      1  O   UNL     1      -3.416   1.597   1.026  0.00  0.00    -0.375 OA
ATOM      3  N   UNL     1      -2.130  -0.658  -0.219  0.00  0.00    -0.292 NA
ATOM      7  C   UNL     1      -1.361   0.425  -0.830  0.00  0.00    +0.131 C 
ATOM      8  C   UNL     1      -1.099   1.550   0.180  0.00  0.00    +0.215 C 
ATOM      9  C   UNL     1      -3.585  -0.471  -0.263  0.00  0.00    +0.113 C 
ATOM     10  C   UNL     1      -2.320   2.380   0.570  0.00  0.00    +0.205 C 
ATOM     12  C   UNL     1      -4.098   0.950  -0.043  0.00  0.00    +0.175 C 
ENDROOT
BRANCH   8   2
ATOM      2  O   UNL     1      -0.118   2.424  -0.380  0.00  0.00    -0.468 OA
BRANCH   2  15
ATOM      5  N   UNL     1       1.446   0.981   0.556  0.00  0.00    -0.219 NA
ATOM      6  N   UNL     1       3.501   2.589  -0.473  0.00  0.00    -0.256 NA
ATOM     15  C   UNL     1       1.191   2.093  -0.162  0.00  0.00    +0.234 A 
ATOM     18  C   UNL     1       2.200   2.882  -0.667  0.00  0.00    +0.177 A 
ATOM     20  C   UNL     1       2.747   0.688   0.750  0.00  0.00    +0.134 A 
ATOM     21  C   UNL     1       3.756   1.477   0.245  0.00  0.00    +0.130 A 
ENDBRANCH   2  15
ENDBRANCH   8   2
BRANCH   3  11
ATOM     11  C   UNL     1      -1.775  -1.957  -0.792  0.00  0.00    +0.121 C 
BRANCH  11  13
ATOM      4  N   UNL     1       1.097  -2.975   1.455  0.00  0.00    -0.263 NA
ATOM     13  C   UNL     1      -0.409  -2.410  -0.350  0.00  0.00    -0.015 A 
ATOM     14  C   UNL     1       0.593  -2.675  -1.278  0.00  0.00    +0.008 A 
ATOM     16  C   UNL     1      -0.108  -2.574   0.992  0.00  0.00    +0.115 A 
ATOM     17  C   UNL     1       1.845  -3.091  -0.841  0.00  0.00    +0.020 A 
ATOM     19  C   UNL     1       2.045  -3.224   0.524  0.00  0.00    +0.111 A 
ENDBRANCH  11  13
ENDBRANCH   3  11
TORSDOF 4
