REMARK  Name = 11911663
REMARK  10 active torsions:
REMARK  status: ('A' for Active; 'I' for Inactive)
REMARK    1  A    between atoms: O_3  and  C_14
REMARK    2  A    between atoms: O_3  and  C_18
REMARK    3  A    between atoms: N_6  and  C_13
REMARK    4  A    between atoms: N_9  and  C_22
REMARK    5  A    between atoms: N_10  and  C_32
REMARK    6  A    between atoms: N_10  and  C_35
REMARK    7  A    between atoms: N_10  and  C_36
REMARK    8  A    between atoms: C_19  and  C_23
REMARK    9  A    between atoms: C_28  and  C_34
REMARK   10  A    between atoms: C_34  and  C_37
REMARK                            x       y       z     vdW  Elec       q    Type
REMARK                         _______ _______ _______ _____ _____    ______ ____
ROOT
ATOM      1  O   UNL     1       1.136   1.173  -2.091  0.00  0.00    -0.368 OA
ATOM      2  O   UNL     1      -0.674  -1.216  -1.436  0.00  0.00    -0.368 OA
ATOM     11  C   UNL     1      -0.542   0.082  -0.819  0.00  0.00    +0.173 C 
ATOM     12  C   UNL     1       0.929   0.445  -0.870  0.00  0.00    +0.192 C 
ATOM     13  C   UNL     1      -1.207   1.132  -1.678  0.00  0.00    +0.130 C 
ATOM     14  C   UNL     1       1.598  -0.908  -0.906  0.00  0.00    +0.235 C 
ATOM     15  C   UNL     1      -0.134   1.435  -2.709  0.00  0.00    +0.185 C 
ATOM     16  C   UNL     1       0.634  -1.718  -1.743  0.00  0.00    +0.207 C 
ENDROOT
BRANCH  13   6
ATOM      6  N   UNL     1      -1.497   2.313  -0.892  0.00  0.00    -0.306 N 
ATOM      7  N   UNL     1      -3.516   1.440  -0.150  0.00  0.00    -0.214 NA
ATOM      8  N   UNL     1      -2.767   3.623   0.544  0.00  0.00    -0.223 NA
ATOM     17  C   UNL     1      -2.643   2.465  -0.133  0.00  0.00    +0.216 A 
ATOM     19  C   UNL     1      -4.622   1.621   0.601  0.00  0.00    +0.076 A 
ATOM     20  C   UNL     1      -3.896   3.737   1.274  0.00  0.00    +0.116 A 
ATOM     21  C   UNL     1      -4.868   2.760   1.341  0.00  0.00    +0.048 A 
ATOM     38  H   UNL     1      -0.811   3.058  -0.843  0.00  0.00    +0.149 HD
BRANCH  19  23
ATOM     23  C   UNL     1      -5.560   0.524   0.586  0.00  0.00    +0.001 A 
ATOM     26  C   UNL     1      -5.163  -0.738   1.027  0.00  0.00    +0.012 A 
ATOM     27  C   UNL     1      -6.864   0.727   0.133  0.00  0.00    +0.012 A 
ATOM     29  C   UNL     1      -6.070  -1.798   1.014  0.00  0.00    +0.024 A 
ATOM     30  C   UNL     1      -7.770  -0.333   0.120  0.00  0.00    +0.024 A 
ATOM     32  C   UNL     1      -7.373  -1.595   0.561  0.00  0.00    +0.029 A 
BRANCH  32  10
ATOM     10  N   UNL     1      -8.291  -2.667   0.547  0.00  0.00    -0.336 N 
ATOM     35  C   UNL     1      -9.647  -2.466   0.077  0.00  0.00    +0.129 C 
ATOM     36  C   UNL     1      -7.885  -3.986   0.989  0.00  0.00    +0.129 C 
ENDBRANCH  32  10
ENDBRANCH  19  23
ENDBRANCH  13   6
BRANCH  14   3
ATOM      3  O   UNL     1       2.893  -0.881  -1.464  0.00  0.00    -0.442 OA
BRANCH   3  18
ATOM      4  O   UNL     1       3.791  -0.626   0.624  0.00  0.00    -0.226 OA
ATOM      9  N   UNL     1       5.136  -0.727  -1.290  0.00  0.00    -0.251 N 
ATOM     18  C   UNL     1       3.947  -0.732  -0.587  0.00  0.00    +0.405 C 
ATOM     39  H   UNL     1       5.062  -0.828  -2.299  0.00  0.00    +0.158 HD
BRANCH   9  22
ATOM     22  C   UNL     1       6.448  -0.597  -0.780  0.00  0.00    +0.037 A 
ATOM     24  C   UNL     1       6.652  -0.453   0.592  0.00  0.00    +0.034 A 
ATOM     25  C   UNL     1       7.538  -0.613  -1.650  0.00  0.00    +0.023 A 
ATOM     28  C   UNL     1       7.947  -0.326   1.095  0.00  0.00    +0.019 A 
ATOM     31  C   UNL     1       8.833  -0.486  -1.147  0.00  0.00    +0.002 A 
ATOM     33  C   UNL     1       9.038  -0.343   0.225  0.00  0.00    +0.011 A 
BRANCH  28  34
ATOM      5  O   UNL     1       9.199  -0.596   3.075  0.00  0.00    -0.292 OA
ATOM     34  C   UNL     1       8.162  -0.177   2.525  0.00  0.00    +0.160 C 
ATOM     37  C   UNL     1       7.109   0.505   3.393  0.00  0.00    +0.091 C 
ENDBRANCH  28  34
ENDBRANCH   9  22
ENDBRANCH   3  18
ENDBRANCH  14   3
TORSDOF 7
