REMARK  Name = 26743066
REMARK  7 active torsions:
REMARK  status: ('A' for Active; 'I' for Inactive)
REMARK    1  A    between atoms: O_4  and  C_34
REMARK    2  A    between atoms: N_8  and  C_16
REMARK    3  A    between atoms: C_11  and  C_14
REMARK    4  A    between atoms: C_12  and  C_18
REMARK    5  A    between atoms: C_14  and  C_23
REMARK    6  A    between atoms: C_18  and  C_24
REMARK    7  A    between atoms: C_31  and  C_34
REMARK                            x       y       z     vdW  Elec       q    Type
REMARK                         _______ _______ _______ _____ _____    ______ ____
ROOT
ATOM      1  O   UNL     1      -0.140  -2.852   1.788  0.00  0.00    -0.276 OA
ATOM      6  N   UNL     1       1.348  -2.004   0.218  0.00  0.00    -0.301 N 
ATOM     16  C   UNL     1       3.848  -0.583  -0.113  0.00  0.00    +0.095 C 
ATOM     19  C   UNL     1       3.494  -1.292   1.198  0.00  0.00    +0.044 C 
ATOM     20  C   UNL     1       2.579  -0.159  -0.858  0.00  0.00    +0.044 C 
ATOM     21  C   UNL     1       2.531  -2.452   0.955  0.00  0.00    +0.110 C 
ATOM     22  C   UNL     1       1.633  -1.341  -1.060  0.00  0.00    +0.110 C 
ATOM     23  C   UNL     1       0.075  -2.259   0.728  0.00  0.00    +0.216 C 
ENDROOT
BRANCH  16   8
ATOM      3  O   UNL     1       3.302   1.903   1.504  0.00  0.00    -0.247 OA
ATOM      8  N   UNL     1       4.702   0.552   0.137  0.00  0.00    -0.289 N 
ATOM      9  N   UNL     1       5.495   2.538   0.884  0.00  0.00    -0.306 N 
ATOM     25  C   UNL     1       6.005   0.709  -0.352  0.00  0.00    +0.070 A 
ATOM     26  C   UNL     1       4.354   1.686   0.918  0.00  0.00    +0.328 A 
ATOM     27  C   UNL     1       6.486   1.932   0.111  0.00  0.00    +0.067 A 
ATOM     29  C   UNL     1       6.774  -0.114  -1.147  0.00  0.00    +0.028 A 
ATOM     30  C   UNL     1       7.748   2.392  -0.193  0.00  0.00    +0.028 A 
ATOM     32  C   UNL     1       8.060   0.331  -1.470  0.00  0.00    +0.002 A 
ATOM     33  C   UNL     1       8.542   1.571  -0.998  0.00  0.00    +0.002 A 
ATOM     36  H   UNL     1       5.585   3.437   1.341  0.00  0.00    +0.170 HD
ENDBRANCH  16   8
BRANCH  23  14
ATOM     14  C   UNL     1      -1.092  -1.763  -0.089  0.00  0.00    +0.100 C 
BRANCH  14  11
ATOM      7  N   UNL     1      -4.377  -3.077  -1.406  0.00  0.00    -0.316 NA
ATOM     11  C   UNL     1      -2.410  -2.154   0.590  0.00  0.00    +0.004 C 
ATOM     12  C   UNL     1      -3.622  -1.298   0.153  0.00  0.00    +0.012 C 
ATOM     13  C   UNL     1      -2.731  -3.639   0.348  0.00  0.00    +0.019 C 
ATOM     15  C   UNL     1      -4.082  -1.650  -1.271  0.00  0.00    +0.085 C 
ATOM     17  C   UNL     1      -3.219  -3.905  -1.075  0.00  0.00    +0.081 C 
ATOM     35  H   UNL     1      -4.670  -3.272  -2.363  0.00  0.00    +0.122 HD
BRANCH  12  18
ATOM     18  C   UNL     1      -3.370   0.205   0.280  0.00  0.00    +0.064 C 
BRANCH  18  24
ATOM      2  O   UNL     1      -6.368   1.921   1.297  0.00  0.00    -0.348 OA
ATOM     10  N   UNL     1      -5.207   1.207   1.570  0.00  0.00    -0.082 NA
ATOM     24  C   UNL     1      -4.659   0.970   0.375  0.00  0.00    +0.085 A 
ATOM     28  C   UNL     1      -5.422   1.504  -0.678  0.00  0.00    +0.083 A 
ATOM     31  C   UNL     1      -6.485   2.091  -0.045  0.00  0.00    +0.244 A 
BRANCH  31  34
ATOM      5  O   UNL     1      -8.539   3.304   0.145  0.00  0.00    -0.242 OA
ATOM     34  C   UNL     1      -7.613   2.802  -0.538  0.00  0.00    +0.375 C 
BRANCH  34   4
ATOM      4  O   UNL     1      -7.638   2.920  -1.907  0.00  0.00    -0.475 OA
ATOM     37  H   UNL     1      -8.428   3.415  -2.212  0.00  0.00    +0.296 HD
ENDBRANCH  34   4
ENDBRANCH  31  34
ENDBRANCH  18  24
ENDBRANCH  12  18
ENDBRANCH  14  11
ENDBRANCH  23  14
TORSDOF 7
