REMARK  Name = 45783545
REMARK  10 active torsions:
REMARK  status: ('A' for Active; 'I' for Inactive)
REMARK    1  A    between atoms: O_2  and  C_27
REMARK    2  A    between atoms: O_2  and  C_28
REMARK    3  A    between atoms: O_3  and  C_29
REMARK    4  A    between atoms: O_3  and  C_30
REMARK    5  A    between atoms: N_4  and  C_13
REMARK    6  A    between atoms: C_9  and  C_14
REMARK    7  A    between atoms: C_13  and  C_15
REMARK    8  A    between atoms: C_18  and  C_21
REMARK    9  A    between atoms: C_19  and  C_25
REMARK   10  A    between atoms: C_28  and  C_29
REMARK                            x       y       z     vdW  Elec       q    Type
REMARK                         _______ _______ _______ _____ _____    ______ ____
ROOT
ATOM      1  O   UNL     1      -2.533  -2.092   1.476  0.00  0.00    -0.336 OA
ATOM      5  N   UNL     1      -1.505  -1.036  -0.211  0.00  0.00    -0.190 NA
ATOM      6  N   UNL     1      -1.159  -2.204   1.726  0.00  0.00    -0.056 NA
ATOM     14  C   UNL     1      -2.649  -1.391   0.318  0.00  0.00    +0.245 A 
ATOM     18  C   UNL     1      -0.621  -1.557   0.688  0.00  0.00    +0.204 A 
ENDROOT
BRANCH  18  21
ATOM      7  N   UNL     1       2.647  -0.571  -0.788  0.00  0.00    -0.221 NA
ATOM     21  C   UNL     1       0.797  -1.415   0.519  0.00  0.00    +0.041 A 
ATOM     23  C   UNL     1       1.685  -1.951   1.444  0.00  0.00    +0.018 A 
ATOM     24  C   UNL     1       1.323  -0.740  -0.570  0.00  0.00    +0.126 A 
ATOM     26  C   UNL     1       3.055  -1.799   1.254  0.00  0.00    +0.068 A 
ATOM     27  C   UNL     1       3.480  -1.106   0.132  0.00  0.00    +0.215 A 
BRANCH  27   2
ATOM      2  O   UNL     1       4.824  -0.943  -0.078  0.00  0.00    -0.474 OA
BRANCH   2  28
ATOM     28  C   UNL     1       5.207  -0.224  -1.245  0.00  0.00    +0.258 C 
BRANCH  28  29
ATOM     29  C   UNL     1       6.720  -0.127  -1.292  0.00  0.00    +0.200 C 
BRANCH  29   3
ATOM      3  O   UNL     1       7.176   0.575  -0.141  0.00  0.00    -0.380 OA
ATOM     30  C   UNL     1       8.592   0.677  -0.121  0.00  0.00    +0.194 C 
ENDBRANCH  29   3
ENDBRANCH  28  29
ENDBRANCH   2  28
ENDBRANCH  27   2
ENDBRANCH  18  21
BRANCH  14   9
ATOM      4  N   UNL     1      -4.155   0.096  -0.991  0.00  0.00    -0.287 NA
ATOM      9  C   UNL     1      -4.057  -1.131  -0.175  0.00  0.00    +0.146 C 
ATOM     10  C   UNL     1      -4.583  -2.252  -1.091  0.00  0.00    +0.030 C 
ATOM     11  C   UNL     1      -5.009  -1.552  -2.373  0.00  0.00    +0.017 C 
ATOM     12  C   UNL     1      -5.251  -0.122  -1.935  0.00  0.00    +0.085 C 
BRANCH   4  13
ATOM     13  C   UNL     1      -4.348   1.301  -0.195  0.00  0.00    +0.120 C 
BRANCH  13  15
ATOM     15  C   UNL     1      -3.056   1.790   0.404  0.00  0.00    -0.032 A 
ATOM     16  C   UNL     1      -1.982   2.120  -0.423  0.00  0.00    +0.023 A 
ATOM     17  C   UNL     1      -2.933   1.915   1.788  0.00  0.00    +0.005 A 
ATOM     19  C   UNL     1      -0.786   2.573   0.133  0.00  0.00    +0.052 A 
ATOM     20  C   UNL     1      -1.738   2.369   2.345  0.00  0.00    +0.002 A 
ATOM     22  C   UNL     1      -0.664   2.698   1.517  0.00  0.00    +0.019 A 
BRANCH  19  25
ATOM      8  N   UNL     1       1.207   3.187  -1.401  0.00  0.00    -0.191 NA
ATOM     25  C   UNL     1       0.314   2.912  -0.714  0.00  0.00    +0.099 C 
ENDBRANCH  19  25
ENDBRANCH  13  15
ENDBRANCH   4  13
ENDBRANCH  14   9
TORSDOF 9
