REMARK  Name = 44716291
REMARK  6 active torsions:
REMARK  status: ('A' for Active; 'I' for Inactive)
REMARK    1  A    between atoms: N_3  and  C_14
REMARK    2  A    between atoms: N_4  and  C_17
REMARK    3  A    between atoms: C_8  and  C_14
REMARK    4  A    between atoms: C_9  and  C_15
REMARK    5  A    between atoms: C_18  and  C_21
REMARK    6  A    between atoms: C_29  and  C_30
REMARK                            x       y       z     vdW  Elec       q    Type
REMARK                         _______ _______ _______ _____ _____    ______ ____
ROOT
ATOM      2  N   UNL     1      -3.038  -2.166  -0.488  0.00  0.00    -0.297 NA
ATOM      7  C   UNL     1      -2.956   0.359  -1.113  0.00  0.00    +0.005 C 
ATOM      8  C   UNL     1      -1.753  -1.566  -0.036  0.00  0.00    +0.078 C 
ATOM      9  C   UNL     1      -4.028   0.081  -0.041  0.00  0.00    +0.092 C 
ATOM     10  C   UNL     1      -1.605  -0.112  -0.541  0.00  0.00    +0.025 C 
ATOM     11  C   UNL     1      -3.232  -0.513  -2.352  0.00  0.00    +0.020 C 
ATOM     12  C   UNL     1      -4.151  -1.439   0.175  0.00  0.00    +0.097 C 
ATOM     13  C   UNL     1      -3.206  -1.995  -1.950  0.00  0.00    +0.085 C 
ENDROOT
BRANCH   9  15
ATOM      1  O   UNL     1      -5.487   1.294  -1.469  0.00  0.00    -0.275 OA
ATOM      4  N   UNL     1      -6.298   0.460   0.577  0.00  0.00    -0.285 N 
ATOM     15  C   UNL     1      -5.349   0.688  -0.411  0.00  0.00    +0.222 C 
ATOM     36  H   UNL     1      -6.007  -0.054   1.405  0.00  0.00    +0.155 HD
BRANCH   4  17
ATOM     17  C   UNL     1      -7.651   0.877   0.583  0.00  0.00    +0.033 A 
ATOM     19  C   UNL     1      -8.472   0.562   1.665  0.00  0.00    +0.023 A 
ATOM     20  C   UNL     1      -8.162   1.604  -0.492  0.00  0.00    +0.023 A 
ATOM     22  C   UNL     1      -9.805   0.973   1.672  0.00  0.00    +0.002 A 
ATOM     23  C   UNL     1      -9.495   2.014  -0.486  0.00  0.00    +0.002 A 
ATOM     26  C   UNL     1     -10.317   1.699   0.597  0.00  0.00    +0.000 A 
ENDBRANCH   4  17
ENDBRANCH   9  15
BRANCH   8  14
ATOM     14  C   UNL     1      -0.547  -2.425  -0.424  0.00  0.00    +0.164 C 
BRANCH  14   3
ATOM      3  N   UNL     1       0.721  -1.907   0.195  0.00  0.00    -0.250 N 
ATOM      5  N   UNL     1       0.837  -1.793   1.528  0.00  0.00    -0.065 NA
ATOM      6  N   UNL     1       2.050  -1.314   1.779  0.00  0.00    -0.130 NA
ATOM     16  C   UNL     1       1.854  -1.504  -0.444  0.00  0.00    +0.138 A 
ATOM     18  C   UNL     1       2.686  -1.132   0.582  0.00  0.00    +0.113 A 
BRANCH  18  21
ATOM     21  C   UNL     1       4.014  -0.630   0.435  0.00  0.00    +0.004 A 
ATOM     24  C   UNL     1       4.364   0.093  -0.706  0.00  0.00    +0.011 A 
ATOM     25  C   UNL     1       4.962  -0.862   1.431  0.00  0.00    +0.011 A 
ATOM     27  C   UNL     1       5.662   0.584  -0.849  0.00  0.00    +0.009 A 
ATOM     28  C   UNL     1       6.260  -0.372   1.288  0.00  0.00    +0.009 A 
ATOM     29  C   UNL     1       6.610   0.352   0.148  0.00  0.00    -0.018 A 
BRANCH  29  30
ATOM     30  C   UNL     1       7.957   0.859   0.000  0.00  0.00    -0.018 A 
ATOM     31  C   UNL     1       8.932   0.079  -0.620  0.00  0.00    +0.008 A 
ATOM     32  C   UNL     1       8.280   2.129   0.478  0.00  0.00    +0.008 A 
ATOM     33  C   UNL     1      10.230   0.568  -0.763  0.00  0.00    +0.001 A 
ATOM     34  C   UNL     1       9.578   2.618   0.336  0.00  0.00    +0.001 A 
ATOM     35  C   UNL     1      10.553   1.838  -0.285  0.00  0.00    +0.000 A 
ENDBRANCH  29  30
ENDBRANCH  18  21
ENDBRANCH  14   3
ENDBRANCH   8  14
TORSDOF 6
