REMARK  Name = 75536099
REMARK  9 active torsions:
REMARK  status: ('A' for Active; 'I' for Inactive)
REMARK    1  A    between atoms: S_1  and  N_10
REMARK    2  A    between atoms: S_1  and  C_20
REMARK    3  A    between atoms: O_5  and  C_14
REMARK    4  A    between atoms: O_6  and  C_16
REMARK    5  A    between atoms: O_9  and  C_28
REMARK    6  A    between atoms: O_9  and  C_29
REMARK    7  A    between atoms: N_10  and  C_12
REMARK    8  A    between atoms: C_13  and  C_17
REMARK    9  A    between atoms: C_22  and  C_25
REMARK                            x       y       z     vdW  Elec       q    Type
REMARK                         _______ _______ _______ _____ _____    ______ ____
ROOT
ATOM     12  C   UNL     1      -2.573  -0.203   0.129  0.00  0.00    +0.115 C 
ATOM     13  C   UNL     1      -1.800  -1.063  -0.909  0.00  0.00    +0.044 C 
ATOM     14  C   UNL     1      -3.848  -0.990   0.459  0.00  0.00    +0.162 C 
ATOM     15  C   UNL     1      -2.601  -2.370  -1.036  0.00  0.00    +0.044 C 
ATOM     16  C   UNL     1      -4.025  -1.932  -0.730  0.00  0.00    +0.145 C 
ENDROOT
BRANCH  13  17
ATOM     11  N   UNL     1       1.984  -1.065  -1.166  0.00  0.00    -0.251 NA
ATOM     17  C   UNL     1      -0.346  -1.290  -0.559  0.00  0.00    -0.024 A 
ATOM     18  C   UNL     1       0.017  -1.906   0.634  0.00  0.00    +0.007 A 
ATOM     19  C   UNL     1       0.667  -0.891  -1.417  0.00  0.00    +0.115 A 
ATOM     21  C   UNL     1       1.362  -2.101   0.928  0.00  0.00    +0.032 A 
ATOM     22  C   UNL     1       2.298  -1.667   0.004  0.00  0.00    +0.144 A 
BRANCH  22  25
ATOM      2  F   UNL     1       3.974  -2.473   1.484  0.00  0.00    -0.164 F 
ATOM      3  F   UNL     1       4.391  -2.627  -0.644  0.00  0.00    -0.164 F 
ATOM      4  F   UNL     1       4.457  -0.692   0.333  0.00  0.00    -0.164 F 
ATOM     25  C   UNL     1       3.751  -1.860   0.286  0.00  0.00    +0.434 C 
ENDBRANCH  22  25
ENDBRANCH  13  17
BRANCH  14   5
ATOM      5  O   UNL     1      -3.614  -1.729   1.656  0.00  0.00    -0.388 OA
ATOM     31  H   UNL     1      -3.506  -1.087   2.378  0.00  0.00    +0.210 HD
ENDBRANCH  14   5
BRANCH  16   6
ATOM      6  O   UNL     1      -4.854  -3.036  -0.433  0.00  0.00    -0.389 OA
ATOM     32  H   UNL     1      -4.843  -3.627  -1.205  0.00  0.00    +0.210 HD
ENDBRANCH  16   6
BRANCH  12  10
ATOM     10  N   UNL     1      -2.942   1.098  -0.489  0.00  0.00    -0.184 NA
ATOM     30  H   UNL     1      -3.304   1.086  -1.449  0.00  0.00    +0.148 HD
BRANCH  10   1
ATOM      1  S   UNL     1      -2.444   2.551   0.237  0.00  0.00    +0.059 S 
ATOM      7  O   UNL     1      -2.871   2.569   1.623  0.00  0.00    -0.153 OA
ATOM      8  O   UNL     1      -2.781   3.652  -0.644  0.00  0.00    -0.153 OA
BRANCH   1  20
ATOM     20  C   UNL     1      -0.684   2.387   0.210  0.00  0.00    +0.105 A 
ATOM     23  C   UNL     1       0.042   2.853  -0.886  0.00  0.00    +0.032 A 
ATOM     24  C   UNL     1      -0.023   1.790   1.282  0.00  0.00    +0.032 A 
ATOM     26  C   UNL     1       1.431   2.722  -0.909  0.00  0.00    +0.047 A 
ATOM     27  C   UNL     1       1.366   1.658   1.260  0.00  0.00    +0.047 A 
ATOM     28  C   UNL     1       2.092   2.124   0.164  0.00  0.00    +0.120 A 
BRANCH  28   9
ATOM      9  O   UNL     1       3.447   1.996   0.142  0.00  0.00    -0.495 OA
ATOM     29  C   UNL     1       4.128   2.494  -1.010  0.00  0.00    +0.277 C 
ENDBRANCH  28   9
ENDBRANCH   1  20
ENDBRANCH  10   1
ENDBRANCH  12  10
TORSDOF 8
