REMARK  Name = 75537145
REMARK  6 active torsions:
REMARK  status: ('A' for Active; 'I' for Inactive)
REMARK    1  A    between atoms: O_3  and  C_16
REMARK    2  A    between atoms: O_3  and  C_20
REMARK    3  A    between atoms: N_5  and  C_15
REMARK    4  A    between atoms: N_6  and  C_14
REMARK    5  A    between atoms: C_14  and  C_16
REMARK    6  A    between atoms: C_15  and  C_17
REMARK                            x       y       z     vdW  Elec       q    Type
REMARK                         _______ _______ _______ _____ _____    ______ ____
ROOT
ATOM      2  O   UNL     1       3.348   1.852  -0.156  0.00  0.00    -0.252 OA
ATOM      4  N   UNL     1       1.088   1.234  -0.322  0.00  0.00    -0.278 N 
ATOM      5  N   UNL     1      -1.601   0.888   0.428  0.00  0.00    -0.293 NA
ATOM      6  N   UNL     1       2.643  -0.213  -1.052  0.00  0.00    -0.281 N 
ATOM      8  C   UNL     1       0.329   0.150  -0.911  0.00  0.00    +0.109 C 
ATOM      9  C   UNL     1      -0.795  -0.284   0.030  0.00  0.00    +0.109 C 
ATOM     10  C   UNL     1       1.382  -0.920  -1.191  0.00  0.00    +0.133 C 
ATOM     11  C   UNL     1       0.385   2.370   0.236  0.00  0.00    +0.125 C 
ATOM     12  C   UNL     1      -0.766   1.889   1.122  0.00  0.00    +0.104 C 
ATOM     13  C   UNL     1       2.470   1.061  -0.474  0.00  0.00    +0.305 C 
ENDROOT
BRANCH   6  14
ATOM     14  C   UNL     1       3.912  -0.843  -1.345  0.00  0.00    +0.137 C 
BRANCH  14  16
ATOM     16  C   UNL     1       4.384  -1.707  -0.190  0.00  0.00    +0.178 C 
BRANCH  16   3
ATOM      3  O   UNL     1       4.573  -0.894   0.961  0.00  0.00    -0.381 OA
ATOM     20  C   UNL     1       5.022  -1.659   2.072  0.00  0.00    +0.194 C 
ENDBRANCH  16   3
ENDBRANCH  14  16
ENDBRANCH   6  14
BRANCH   5  15
ATOM     15  C   UNL     1      -2.715   0.474   1.280  0.00  0.00    +0.147 C 
BRANCH  15  17
ATOM      1  S   UNL     1      -4.792  -1.372   1.203  0.00  0.00    -0.079 S 
ATOM      7  N   UNL     1      -4.134   0.184  -0.754  0.00  0.00    -0.251 NA
ATOM     17  C   UNL     1      -3.831  -0.146   0.482  0.00  0.00    +0.092 A 
ATOM     18  C   UNL     1      -5.699  -1.481  -0.248  0.00  0.00    +0.066 A 
ATOM     19  C   UNL     1      -5.205  -0.582  -1.171  0.00  0.00    +0.119 A 
ENDBRANCH  15  17
ENDBRANCH   5  15
TORSDOF 5
