REMARK  Name = 28962369
REMARK  9 active torsions:
REMARK  status: ('A' for Active; 'I' for Inactive)
REMARK    1  A    between atoms: S_1  and  N_9
REMARK    2  A    between atoms: S_1  and  C_22
REMARK    3  A    between atoms: O_4  and  C_12
REMARK    4  A    between atoms: O_5  and  C_20
REMARK    5  A    between atoms: N_8  and  C_10
REMARK    6  A    between atoms: N_9  and  C_19
REMARK    7  A    between atoms: C_11  and  C_19
REMARK    8  A    between atoms: C_13  and  C_20
REMARK    9  A    between atoms: C_16  and  C_21
REMARK                            x       y       z     vdW  Elec       q    Type
REMARK                         _______ _______ _______ _____ _____    ______ ____
ROOT
ATOM      3  O   UNL     1      -0.074  -2.574   0.797  0.00  0.00    -0.366 OA
ATOM     10  C   UNL     1       1.826  -1.165   0.530  0.00  0.00    +0.118 C 
ATOM     11  C   UNL     1       0.413  -1.253   1.121  0.00  0.00    +0.154 C 
ATOM     12  C   UNL     1       1.782  -2.166  -0.615  0.00  0.00    +0.165 C 
ATOM     13  C   UNL     1       0.913  -3.257  -0.001  0.00  0.00    +0.174 C 
ENDROOT
BRANCH  10   8
ATOM      8  N   UNL     1       2.291   0.164   0.174  0.00  0.00    -0.295 NA
ATOM     14  C   UNL     1       3.404   0.080  -0.782  0.00  0.00    +0.085 C 
ATOM     15  C   UNL     1       2.680   0.912   1.376  0.00  0.00    +0.085 C 
ATOM     16  C   UNL     1       4.266   2.325   0.003  0.00  0.00    -0.012 C 
ATOM     17  C   UNL     1       3.871   1.473  -1.209  0.00  0.00    +0.018 C 
ATOM     18  C   UNL     1       3.122   2.334   1.023  0.00  0.00    +0.018 C 
ATOM     21  C   UNL     1       4.635   3.743  -0.421  0.00  0.00    +0.007 C 
ENDBRANCH  10   8
BRANCH  12   4
ATOM      4  O   UNL     1       1.149  -1.616  -1.763  0.00  0.00    -0.388 OA
ATOM     26  H   UNL     1       1.245  -2.257  -2.487  0.00  0.00    +0.210 HD
ENDBRANCH  12   4
BRANCH  11  19
ATOM     19  C   UNL     1      -0.612  -0.253   0.595  0.00  0.00    +0.139 C 
BRANCH  19   9
ATOM      9  N   UNL     1      -1.904  -0.479   1.265  0.00  0.00    -0.187 NA
ATOM     27  H   UNL     1      -2.334  -1.383   1.028  0.00  0.00    +0.148 HD
BRANCH   9   1
ATOM      1  S   UNL     1      -2.971   0.822   1.525  0.00  0.00    +0.065 S 
ATOM      6  O   UNL     1      -2.273   1.882   2.228  0.00  0.00    -0.153 OA
ATOM      7  O   UNL     1      -4.226   0.310   2.040  0.00  0.00    -0.153 OA
BRANCH   1  22
ATOM      2  S   UNL     1      -4.217   0.303  -1.077  0.00  0.00    -0.077 S 
ATOM     22  C   UNL     1      -3.277   1.373  -0.127  0.00  0.00    +0.142 A 
ATOM     23  C   UNL     1      -2.913   2.502  -0.826  0.00  0.00    +0.036 A 
ATOM     24  C   UNL     1      -3.413   2.489  -2.161  0.00  0.00    +0.010 A 
ATOM     25  C   UNL     1      -4.139   1.350  -2.430  0.00  0.00    +0.047 A 
ENDBRANCH   1  22
ENDBRANCH   9   1
ENDBRANCH  19   9
ENDBRANCH  11  19
BRANCH  13  20
ATOM     20  C   UNL     1       0.212  -4.168  -0.991  0.00  0.00    +0.190 C 
BRANCH  20   5
ATOM      5  O   UNL     1      -0.543  -5.131  -0.274  0.00  0.00    -0.392 OA
ATOM     28  H   UNL     1      -0.977  -5.702  -0.931  0.00  0.00    +0.210 HD
ENDBRANCH  20   5
ENDBRANCH  13  20
TORSDOF 8
