REMARK  Name = 45361317
REMARK  7 active torsions:
REMARK  status: ('A' for Active; 'I' for Inactive)
REMARK    1  A    between atoms: O_3  and  C_9
REMARK    2  A    between atoms: C_7  and  C_15
REMARK    3  A    between atoms: C_10  and  C_16
REMARK    4  A    between atoms: C_12  and  C_19
REMARK    5  A    between atoms: C_16  and  C_20
REMARK    6  A    between atoms: C_16  and  C_21
REMARK    7  A    between atoms: C_22  and  C_27
REMARK                            x       y       z     vdW  Elec       q    Type
REMARK                         _______ _______ _______ _____ _____    ______ ____
ROOT
ATOM      1  S   UNL     1      -3.469  -1.341   1.252  0.00  0.00    -0.072 S 
ATOM      5  N   UNL     1      -3.202   0.560  -0.481  0.00  0.00    -0.243 NA
ATOM      7  C   UNL     1       0.490  -1.451   0.144  0.00  0.00    -0.022 C 
ATOM      8  C   UNL     1       0.607   0.087  -0.196  0.00  0.00    +0.033 C 
ATOM      9  C   UNL     1       1.897   0.391  -1.011  0.00  0.00    +0.123 C 
ATOM     10  C   UNL     1       3.170  -0.177  -0.347  0.00  0.00    +0.029 C 
ATOM     11  C   UNL     1       1.793  -1.934   0.824  0.00  0.00    +0.008 C 
ATOM     12  C   UNL     1      -0.711   0.646  -0.872  0.00  0.00    +0.042 C 
ATOM     13  C   UNL     1       3.039  -1.661  -0.007  0.00  0.00    +0.007 C 
ATOM     14  C   UNL     1      -0.677  -1.681   1.154  0.00  0.00    +0.051 C 
ATOM     15  C   UNL     1       0.235  -2.309  -1.122  0.00  0.00    +0.012 C 
ATOM     17  C   UNL     1      -1.936   0.084  -0.190  0.00  0.00    +0.055 A 
ATOM     18  C   UNL     1      -1.901  -0.964   0.707  0.00  0.00    +0.014 A 
ATOM     19  C   UNL     1      -0.780   2.180  -0.890  0.00  0.00    +0.014 C 
ATOM     22  C   UNL     1      -4.086  -0.108   0.229  0.00  0.00    +0.109 A 
ENDROOT
BRANCH  22  27
ATOM      2  F   UNL     1      -9.589   0.765   0.122  0.00  0.00    -0.205 F 
ATOM     27  C   UNL     1      -5.511   0.119   0.202  0.00  0.00    +0.007 A 
ATOM     28  C   UNL     1      -6.308  -0.325   1.257  0.00  0.00    +0.013 A 
ATOM     29  C   UNL     1      -6.091   0.781  -0.880  0.00  0.00    +0.013 A 
ATOM     30  C   UNL     1      -7.686  -0.106   1.230  0.00  0.00    +0.039 A 
ATOM     31  C   UNL     1      -7.469   1.000  -0.907  0.00  0.00    +0.039 A 
ATOM     32  C   UNL     1      -8.266   0.556   0.148  0.00  0.00    +0.123 A 
ENDBRANCH  22  27
BRANCH   9   3
ATOM      3  O   UNL     1       2.068   1.803  -1.116  0.00  0.00    -0.391 OA
ATOM     33  H   UNL     1       2.160   2.164  -0.218  0.00  0.00    +0.210 HD
ENDBRANCH   9   3
BRANCH  10  16
ATOM     16  C   UNL     1       4.413   0.042  -1.218  0.00  0.00    +0.078 C 
ATOM     21  C   UNL     1       4.273  -0.657  -2.558  0.00  0.00    +0.017 C 
BRANCH  16  20
ATOM      4  O   UNL     1       5.993  -1.648  -0.653  0.00  0.00    -0.275 OA
ATOM      6  N   UNL     1       6.234   0.407   0.373  0.00  0.00    -0.301 N 
ATOM     20  C   UNL     1       5.617  -0.487  -0.482  0.00  0.00    +0.219 C 
ATOM     23  C   UNL     1       7.404   0.049   1.161  0.00  0.00    +0.108 C 
ATOM     24  C   UNL     1       5.843   1.792   0.617  0.00  0.00    +0.108 C 
ATOM     25  C   UNL     1       7.934   1.376   1.682  0.00  0.00    +0.020 C 
ATOM     26  C   UNL     1       6.668   2.212   1.825  0.00  0.00    +0.020 C 
ENDBRANCH  16  20
ENDBRANCH  10  16
TORSDOF 4
