REMARK  Name = 45783566
REMARK  10 active torsions:
REMARK  status: ('A' for Active; 'I' for Inactive)
REMARK    1  A    between atoms: O_2  and  C_21
REMARK    2  A    between atoms: O_2  and  C_22
REMARK    3  A    between atoms: O_3  and  C_23
REMARK    4  A    between atoms: O_3  and  C_24
REMARK    5  A    between atoms: N_4  and  C_12
REMARK    6  A    between atoms: C_8  and  C_13
REMARK    7  A    between atoms: C_12  and  C_14
REMARK    8  A    between atoms: C_12  and  C_15
REMARK    9  A    between atoms: C_16  and  C_17
REMARK   10  A    between atoms: C_22  and  C_23
REMARK                            x       y       z     vdW  Elec       q    Type
REMARK                         _______ _______ _______ _____ _____    ______ ____
ROOT
ATOM      1  O   UNL     1       2.429   1.877  -0.984  0.00  0.00    -0.336 OA
ATOM      5  N   UNL     1       1.651  -0.155  -0.454  0.00  0.00    -0.190 NA
ATOM      6  N   UNL     1       1.046   2.021  -0.818  0.00  0.00    -0.056 NA
ATOM     13  C   UNL     1       2.702   0.566  -0.752  0.00  0.00    +0.245 A 
ATOM     16  C   UNL     1       0.659   0.780  -0.507  0.00  0.00    +0.204 A 
ENDROOT
BRANCH  16  17
ATOM      7  N   UNL     1      -3.015   1.150  -0.062  0.00  0.00    -0.221 NA
ATOM     17  C   UNL     1      -0.710   0.442  -0.244  0.00  0.00    +0.041 A 
ATOM     18  C   UNL     1      -1.077  -0.860   0.075  0.00  0.00    +0.018 A 
ATOM     19  C   UNL     1      -1.708   1.402  -0.299  0.00  0.00    +0.126 A 
ATOM     20  C   UNL     1      -2.412  -1.159   0.326  0.00  0.00    +0.068 A 
ATOM     21  C   UNL     1      -3.334  -0.128   0.245  0.00  0.00    +0.215 A 
BRANCH  21   2
ATOM      2  O   UNL     1      -4.655  -0.396   0.488  0.00  0.00    -0.474 OA
BRANCH   2  22
ATOM     22  C   UNL     1      -5.559   0.698   0.392  0.00  0.00    +0.258 C 
BRANCH  22  23
ATOM     23  C   UNL     1      -6.966   0.204   0.668  0.00  0.00    +0.200 C 
BRANCH  23   3
ATOM      3  O   UNL     1      -7.313  -0.775  -0.304  0.00  0.00    -0.380 OA
ATOM     24  C   UNL     1      -8.618  -1.291  -0.080  0.00  0.00    +0.194 C 
ENDBRANCH  23   3
ENDBRANCH  22  23
ENDBRANCH   2  22
ENDBRANCH  21   2
ENDBRANCH  16  17
BRANCH  13   8
ATOM      4  N   UNL     1       4.758  -0.505   0.307  0.00  0.00    -0.289 NA
ATOM      8  C   UNL     1       4.160   0.145  -0.871  0.00  0.00    +0.146 C 
ATOM      9  C   UNL     1       4.434  -0.896  -1.965  0.00  0.00    +0.030 C 
ATOM     10  C   UNL     1       4.439  -1.926   0.238  0.00  0.00    +0.085 C 
ATOM     11  C   UNL     1       4.535  -2.242  -1.248  0.00  0.00    +0.017 C 
BRANCH   4  12
ATOM     12  C   UNL     1       4.474   0.095   1.597  0.00  0.00    +0.051 C 
ATOM     14  C   UNL     1       4.816   1.582   1.575  0.00  0.00    +0.024 C 
ATOM     15  C   UNL     1       5.264  -0.632   2.680  0.00  0.00    +0.024 C 
ENDBRANCH   4  12
ENDBRANCH  13   8
TORSDOF 7
