REMARK  Name = 44716273
REMARK  11 active torsions:
REMARK  status: ('A' for Active; 'I' for Inactive)
REMARK    1  A    between atoms: N_3  and  C_14
REMARK    2  A    between atoms: N_4  and  C_16
REMARK    3  A    between atoms: N_4  and  C_18
REMARK    4  A    between atoms: C_8  and  C_15
REMARK    5  A    between atoms: C_9  and  C_14
REMARK    6  A    between atoms: C_16  and  C_20
REMARK    7  A    between atoms: C_19  and  C_21
REMARK    8  A    between atoms: C_22  and  C_25
REMARK    9  A    between atoms: C_22  and  C_29
REMARK   10  A    between atoms: C_22  and  C_30
REMARK   11  A    between atoms: C_22  and  C_31
REMARK                            x       y       z     vdW  Elec       q    Type
REMARK                         _______ _______ _______ _____ _____    ______ ____
ROOT
ATOM     14  C   UNL     1       1.142   2.013  -1.192  0.00  0.00    +0.164 C 
ENDROOT
BRANCH  14   9
ATOM      2  N   UNL     1       3.529   2.420  -0.541  0.00  0.00    -0.297 NA
ATOM      7  C   UNL     1       3.577   0.510   1.227  0.00  0.00    +0.005 C 
ATOM      8  C   UNL     1       4.299   0.090  -0.068  0.00  0.00    +0.092 C 
ATOM      9  C   UNL     1       2.152   2.148  -0.050  0.00  0.00    +0.078 C 
ATOM     10  C   UNL     1       2.130   0.919   0.884  0.00  0.00    +0.025 C 
ATOM     11  C   UNL     1       4.296   1.767   1.749  0.00  0.00    +0.020 C 
ATOM     12  C   UNL     1       4.118   1.191  -1.128  0.00  0.00    +0.097 C 
ATOM     13  C   UNL     1       4.358   2.818   0.625  0.00  0.00    +0.085 C 
BRANCH   8  15
ATOM      1  O   UNL     1       2.877  -1.273  -1.371  0.00  0.00    -0.275 OA
ATOM      4  N   UNL     1       4.470  -2.369  -0.080  0.00  0.00    -0.301 N 
ATOM     15  C   UNL     1       3.814  -1.238  -0.568  0.00  0.00    +0.220 C 
ATOM     18  C   UNL     1       4.099  -3.720  -0.482  0.00  0.00    +0.132 C 
BRANCH   4  16
ATOM     16  C   UNL     1       5.575  -2.281   0.871  0.00  0.00    +0.134 C 
BRANCH  16  20
ATOM     20  C   UNL     1       6.860  -2.183   0.117  0.00  0.00    -0.016 C 
ATOM     26  C   UNL     1       7.866  -3.056   0.243  0.00  0.00    +0.005 C 
ENDBRANCH  16  20
ENDBRANCH   4  16
ENDBRANCH   8  15
ENDBRANCH  14   9
BRANCH  14   3
ATOM      3  N   UNL     1      -0.266   1.922  -0.675  0.00  0.00    -0.250 N 
ATOM      5  N   UNL     1      -0.783   2.904   0.081  0.00  0.00    -0.065 NA
ATOM      6  N   UNL     1      -2.027   2.552   0.387  0.00  0.00    -0.130 NA
ATOM     17  C   UNL     1      -1.162   0.917  -0.874  0.00  0.00    +0.138 A 
ATOM     19  C   UNL     1      -2.275   1.338  -0.190  0.00  0.00    +0.113 A 
BRANCH  19  21
ATOM     21  C   UNL     1      -3.509   0.626  -0.090  0.00  0.00    +0.004 A 
ATOM     23  C   UNL     1      -3.515  -0.769  -0.132  0.00  0.00    +0.010 A 
ATOM     24  C   UNL     1      -4.707   1.325   0.051  0.00  0.00    +0.010 A 
ATOM     25  C   UNL     1      -5.919  -0.765   0.107  0.00  0.00    -0.042 A 
ATOM     27  C   UNL     1      -4.720  -1.464  -0.033  0.00  0.00    +0.005 A 
ATOM     28  C   UNL     1      -5.912   0.629   0.149  0.00  0.00    +0.005 A 
BRANCH  25  22
ATOM     22  C   UNL     1      -7.207  -1.508   0.214  0.00  0.00    -0.013 C 
ATOM     29  C   UNL     1      -7.212  -2.458   1.452  0.00  0.00    +0.015 C 
ATOM     30  C   UNL     1      -7.461  -2.385  -1.052  0.00  0.00    +0.015 C 
ATOM     31  C   UNL     1      -8.485  -0.619   0.367  0.00  0.00    +0.015 C 
ENDBRANCH  25  22
ENDBRANCH  19  21
ENDBRANCH  14   3
TORSDOF 7
