REMARK  Name = 75536709
REMARK  11 active torsions:
REMARK  status: ('A' for Active; 'I' for Inactive)
REMARK    1  A    between atoms: S_1  and  N_8
REMARK    2  A    between atoms: S_1  and  C_16
REMARK    3  A    between atoms: O_3  and  C_10
REMARK    4  A    between atoms: O_6  and  C_23
REMARK    5  A    between atoms: O_6  and  C_28
REMARK    6  A    between atoms: N_7  and  C_9
REMARK    7  A    between atoms: N_7  and  C_14
REMARK    8  A    between atoms: N_8  and  C_13
REMARK    9  A    between atoms: C_11  and  C_13
REMARK   10  A    between atoms: C_14  and  C_15
REMARK   11  A    between atoms: C_26  and  C_27
REMARK                            x       y       z     vdW  Elec       q    Type
REMARK                         _______ _______ _______ _____ _____    ______ ____
ROOT
ATOM      2  O   UNL     1       0.636  -1.652   1.342  0.00  0.00    -0.371 OA
ATOM      9  C   UNL     1      -1.355  -1.416   0.069  0.00  0.00    +0.111 C 
ATOM     10  C   UNL     1      -0.179  -0.930  -0.757  0.00  0.00    +0.164 C 
ATOM     11  C   UNL     1       0.980  -1.622  -0.053  0.00  0.00    +0.164 C 
ATOM     12  C   UNL     1      -0.771  -1.384   1.472  0.00  0.00    +0.181 C 
ENDROOT
BRANCH  10   3
ATOM      3  O   UNL     1      -0.273  -1.309  -2.116  0.00  0.00    -0.388 OA
ATOM     30  H   UNL     1      -0.359  -2.277  -2.159  0.00  0.00    +0.210 HD
ENDBRANCH  10   3
BRANCH   9   7
ATOM      7  N   UNL     1      -2.545  -0.592  -0.068  0.00  0.00    -0.305 NA
ATOM     29  H   UNL     1      -2.698  -0.390  -1.056  0.00  0.00    +0.123 HD
BRANCH   7  14
ATOM     14  C   UNL     1      -3.720  -1.273   0.462  0.00  0.00    +0.116 C 
BRANCH  14  15
ATOM     15  C   UNL     1      -4.960  -0.427   0.344  0.00  0.00    -0.033 A 
ATOM     17  C   UNL     1      -5.169   0.631   1.228  0.00  0.00    +0.008 A 
ATOM     18  C   UNL     1      -5.899  -0.702  -0.650  0.00  0.00    +0.008 A 
ATOM     21  C   UNL     1      -6.318   1.415   1.118  0.00  0.00    +0.046 A 
ATOM     22  C   UNL     1      -7.047   0.082  -0.760  0.00  0.00    +0.046 A 
ATOM     23  C   UNL     1      -7.257   1.140   0.124  0.00  0.00    +0.120 A 
BRANCH  23   6
ATOM      6  O   UNL     1      -8.377   1.905   0.016  0.00  0.00    -0.495 OA
ATOM     28  C   UNL     1      -9.296   1.569  -1.023  0.00  0.00    +0.277 C 
ENDBRANCH  23   6
ENDBRANCH  14  15
ENDBRANCH   7  14
ENDBRANCH   9   7
BRANCH  11  13
ATOM     13  C   UNL     1       2.308  -0.908  -0.239  0.00  0.00    +0.140 C 
BRANCH  13   8
ATOM      8  N   UNL     1       3.370  -1.645   0.474  0.00  0.00    -0.187 NA
ATOM     31  H   UNL     1       3.224  -1.772   1.483  0.00  0.00    +0.148 HD
BRANCH   8   1
ATOM      1  S   UNL     1       4.965  -1.624  -0.117  0.00  0.00    +0.058 S 
ATOM      4  O   UNL     1       4.969  -2.049  -1.504  0.00  0.00    -0.153 OA
ATOM      5  O   UNL     1       5.833  -2.273   0.847  0.00  0.00    -0.153 OA
BRANCH   1  16
ATOM     16  C   UNL     1       5.344   0.102  -0.075  0.00  0.00    +0.105 A 
ATOM     19  C   UNL     1       5.913   0.662   1.069  0.00  0.00    +0.029 A 
ATOM     20  C   UNL     1       5.073   0.903  -1.183  0.00  0.00    +0.029 A 
ATOM     24  C   UNL     1       6.210   2.025   1.103  0.00  0.00    +0.005 A 
ATOM     25  C   UNL     1       5.370   2.265  -1.149  0.00  0.00    +0.005 A 
ATOM     26  C   UNL     1       5.939   2.826  -0.005  0.00  0.00    -0.050 A 
ATOM     27  C   UNL     1       6.256   4.283   0.032  0.00  0.00    +0.044 C 
ENDBRANCH   1  16
ENDBRANCH   8   1
ENDBRANCH  13   8
ENDBRANCH  11  13
TORSDOF 9
