REMARK  Name = 11941473
REMARK  8 active torsions:
REMARK  status: ('A' for Active; 'I' for Inactive)
REMARK    1  A    between atoms: O_5  and  C_27
REMARK    2  A    between atoms: O_5  and  C_33
REMARK    3  A    between atoms: O_6  and  C_29
REMARK    4  A    between atoms: N_9  and  C_11
REMARK    5  A    between atoms: C_19  and  C_22
REMARK    6  A    between atoms: C_22  and  C_25
REMARK    7  A    between atoms: C_23  and  C_26
REMARK    8  A    between atoms: C_25  and  C_29
REMARK                            x       y       z     vdW  Elec       q    Type
REMARK                         _______ _______ _______ _____ _____    ______ ____
ROOT
ATOM      2  O   UNL     1      -2.155  -3.683   1.617  0.00  0.00    -0.273 OA
ATOM      3  O   UNL     1       0.719  -1.789  -2.372  0.00  0.00    -0.270 OA
ATOM      8  N   UNL     1      -1.148  -2.033  -1.051  0.00  0.00    -0.284 N 
ATOM     10  N   UNL     1      -0.123  -2.654   1.636  0.00  0.00    -0.283 N 
ATOM     11  C   UNL     1      -3.365  -1.937  -0.234  0.00  0.00    +0.104 C 
ATOM     12  C   UNL     1      -1.893  -1.775   0.167  0.00  0.00    +0.183 C 
ATOM     13  C   UNL     1      -3.308  -2.904  -1.418  0.00  0.00    +0.043 C 
ATOM     14  C   UNL     1      -2.009  -2.529  -2.115  0.00  0.00    +0.111 C 
ATOM     15  C   UNL     1      -1.411  -2.810   1.167  0.00  0.00    +0.240 C 
ATOM     16  C   UNL     1       0.172  -1.702  -1.273  0.00  0.00    +0.249 C 
ATOM     17  C   UNL     1       0.981  -1.240  -0.115  0.00  0.00    +0.059 A 
ATOM     18  C   UNL     1       0.876  -1.764   1.184  0.00  0.00    +0.046 A 
ATOM     20  C   UNL     1       2.021  -0.341  -0.416  0.00  0.00    +0.023 A 
ATOM     21  C   UNL     1       1.855  -1.424   2.134  0.00  0.00    +0.024 A 
ATOM     23  C   UNL     1       2.955   0.021   0.553  0.00  0.00    -0.014 A 
ATOM     24  C   UNL     1       2.880  -0.530   1.825  0.00  0.00    +0.010 A 
ATOM     35  H   UNL     1       0.107  -3.195   2.466  0.00  0.00    +0.155 HD
ENDROOT
BRANCH  23  26
ATOM      1 CL   UNL     1       4.569   4.912   0.386  0.00  0.00    -0.084 Cl
ATOM     26  C   UNL     1       4.015   0.951   0.227  0.00  0.00    +0.025 A 
ATOM     27  C   UNL     1       5.232   0.501  -0.288  0.00  0.00    +0.128 A 
ATOM     28  C   UNL     1       3.811   2.317   0.434  0.00  0.00    +0.032 A 
ATOM     30  C   UNL     1       6.241   1.413  -0.595  0.00  0.00    +0.047 A 
ATOM     31  C   UNL     1       4.821   3.229   0.127  0.00  0.00    +0.042 A 
ATOM     32  C   UNL     1       6.036   2.777  -0.387  0.00  0.00    +0.023 A 
BRANCH  27   5
ATOM      5  O   UNL     1       5.459  -0.826  -0.501  0.00  0.00    -0.495 OA
ATOM     33  C   UNL     1       6.733  -1.188  -1.030  0.00  0.00    +0.277 C 
ENDBRANCH  27   5
ENDBRANCH  23  26
BRANCH  11   9
ATOM      4  O   UNL     1      -4.826  -0.087   1.445  0.00  0.00    -0.276 OA
ATOM      9  N   UNL     1      -3.938  -0.668  -0.622  0.00  0.00    -0.310 N 
ATOM     19  C   UNL     1      -4.624   0.155   0.258  0.00  0.00    +0.214 C 
ATOM     34  H   UNL     1      -3.784  -0.345  -1.574  0.00  0.00    +0.149 HD
BRANCH  19  22
ATOM     22  C   UNL     1      -5.114   1.419  -0.426  0.00  0.00    +0.107 C 
BRANCH  22  25
ATOM     25  C   UNL     1      -5.873   2.340   0.523  0.00  0.00    +0.129 C 
BRANCH  25  29
ATOM      7  O   UNL     1      -6.169   3.869  -1.346  0.00  0.00    -0.251 OA
ATOM     29  C   UNL     1      -6.361   3.590  -0.171  0.00  0.00    +0.305 C 
BRANCH  29   6
ATOM      6  O   UNL     1      -7.058   4.389   0.678  0.00  0.00    -0.481 OA
ATOM     36  H   UNL     1      -7.378   5.203   0.234  0.00  0.00    +0.295 HD
ENDBRANCH  29   6
ENDBRANCH  25  29
ENDBRANCH  22  25
ENDBRANCH  19  22
ENDBRANCH  11   9
TORSDOF 7
