REMARK  Name = 45783750
REMARK  6 active torsions:
REMARK  status: ('A' for Active; 'I' for Inactive)
REMARK    1  A    between atoms: N_3  and  C_14
REMARK    2  A    between atoms: N_6  and  C_22
REMARK    3  A    between atoms: C_10  and  C_15
REMARK    4  A    between atoms: C_14  and  C_16
REMARK    5  A    between atoms: C_19  and  C_23
REMARK    6  A    between atoms: C_26  and  C_28
REMARK                            x       y       z     vdW  Elec       q    Type
REMARK                         _______ _______ _______ _____ _____    ______ ____
ROOT
ATOM      3  N   UNL     1      -3.349   0.529  -0.623  0.00  0.00    -0.287 NA
ATOM     10  C   UNL     1      -3.298  -0.473   0.460  0.00  0.00    +0.146 C 
ATOM     11  C   UNL     1      -4.239  -1.599  -0.006  0.00  0.00    +0.030 C 
ATOM     12  C   UNL     1      -4.817  -1.114  -1.328  0.00  0.00    +0.017 C 
ATOM     13  C   UNL     1      -4.662   0.392  -1.253  0.00  0.00    +0.085 C 
ENDROOT
BRANCH  10  15
ATOM      1  O   UNL     1      -1.433  -0.803   2.004  0.00  0.00    -0.336 OA
ATOM      4  N   UNL     1      -1.034  -1.524  -0.079  0.00  0.00    -0.190 NA
ATOM      5  N   UNL     1      -0.132  -1.321   2.014  0.00  0.00    -0.056 NA
ATOM     15  C   UNL     1      -1.892  -0.962   0.735  0.00  0.00    +0.245 A 
ATOM     19  C   UNL     1       0.030  -1.726   0.751  0.00  0.00    +0.207 A 
BRANCH  19  23
ATOM      7  N   UNL     1       2.843  -2.813  -1.447  0.00  0.00    -0.220 NA
ATOM      8  N   UNL     1       0.947  -1.490  -1.947  0.00  0.00    -0.342 N 
ATOM      9  N   UNL     1       3.178  -3.683   0.775  0.00  0.00    -0.243 NA
ATOM     23  C   UNL     1       1.242  -2.338   0.286  0.00  0.00    +0.080 A 
ATOM     24  C   UNL     1       1.704  -2.237  -1.010  0.00  0.00    +0.130 A 
ATOM     25  C   UNL     1       2.028  -3.080   1.144  0.00  0.00    +0.127 A 
ATOM     27  C   UNL     1       3.521  -3.510  -0.516  0.00  0.00    +0.223 A 
ATOM     30  H   UNL     1       1.326  -1.431  -2.885  0.00  0.00    +0.144 HD
ATOM     31  H   UNL     1      -0.060  -1.464  -1.852  0.00  0.00    +0.144 HD
ENDBRANCH  19  23
ENDBRANCH  10  15
BRANCH   3  14
ATOM     14  C   UNL     1      -3.103   1.889  -0.159  0.00  0.00    +0.120 C 
BRANCH  14  16
ATOM     16  C   UNL     1      -1.635   2.158   0.036  0.00  0.00    -0.033 A 
ATOM     17  C   UNL     1      -1.158   2.549   1.288  0.00  0.00    +0.007 A 
ATOM     18  C   UNL     1      -0.751   2.018  -1.034  0.00  0.00    +0.007 A 
ATOM     20  C   UNL     1       0.202   2.799   1.469  0.00  0.00    +0.023 A 
ATOM     21  C   UNL     1       0.609   2.268  -0.852  0.00  0.00    +0.023 A 
ATOM     22  C   UNL     1       1.085   2.659   0.399  0.00  0.00    +0.033 A 
BRANCH  22   6
ATOM      2  O   UNL     1       3.377   2.509  -1.549  0.00  0.00    -0.276 OA
ATOM      6  N   UNL     1       2.446   2.909   0.580  0.00  0.00    -0.286 N 
ATOM     26  C   UNL     1       3.475   2.822  -0.367  0.00  0.00    +0.214 C 
ATOM     28  C   UNL     1       4.815   3.175   0.229  0.00  0.00    +0.109 C 
ATOM     29  H   UNL     1       2.715   3.189   1.521  0.00  0.00    +0.155 HD
ENDBRANCH  22   6
ENDBRANCH  14  16
ENDBRANCH   3  14
TORSDOF 5
