REMARK  Name = 7142733
REMARK  5 active torsions:
REMARK  status: ('A' for Active; 'I' for Inactive)
REMARK    1  A    between atoms: O_3  and  C_21
REMARK    2  A    between atoms: O_3  and  C_23
REMARK    3  A    between atoms: N_7  and  C_19
REMARK    4  A    between atoms: C_18  and  C_21
REMARK    5  A    between atoms: C_22  and  C_24
REMARK                            x       y       z     vdW  Elec       q    Type
REMARK                         _______ _______ _______ _____ _____    ______ ____
ROOT
ATOM      1  O   UNL     1       2.018   2.119   1.647  0.00  0.00    -0.266 OA
ATOM      2  O   UNL     1      -3.121   0.699   2.143  0.00  0.00    -0.272 OA
ATOM      5  N   UNL     1      -2.816   2.053   0.280  0.00  0.00    -0.298 N 
ATOM      6  N   UNL     1       0.326   2.627   0.118  0.00  0.00    -0.310 N 
ATOM      9  C   UNL     1      -1.611   4.207   0.671  0.00  0.00    +0.027 C 
ATOM     10  C   UNL     1      -1.504   3.132  -1.538  0.00  0.00    +0.054 C 
ATOM     11  C   UNL     1      -1.633   4.478  -0.829  0.00  0.00    +0.018 C 
ATOM     12  C   UNL     1      -2.777   3.286   1.069  0.00  0.00    +0.113 C 
ATOM     13  C   UNL     1      -0.250   3.609   1.046  0.00  0.00    +0.130 C 
ATOM     14  C   UNL     1      -2.706   2.238  -1.174  0.00  0.00    +0.117 C 
ATOM     15  C   UNL     1      -0.211   2.436  -1.159  0.00  0.00    +0.027 A 
ATOM     16  C   UNL     1       0.400   1.619  -2.034  0.00  0.00    +0.024 A 
ATOM     17  C   UNL     1       1.499   1.969   0.540  0.00  0.00    +0.273 A 
ATOM     18  C   UNL     1      -3.032   0.833   0.920  0.00  0.00    +0.253 C 
ATOM     19  C   UNL     1       2.135   1.049  -0.455  0.00  0.00    +0.099 A 
ATOM     20  C   UNL     1       1.596   0.912  -1.671  0.00  0.00    +0.030 A 
ENDROOT
BRANCH  19   7
ATOM      4  O   UNL     1       3.007  -1.482  -1.446  0.00  0.00    -0.270 OA
ATOM      7  N   UNL     1       3.266   0.384  -0.081  0.00  0.00    -0.277 N 
ATOM     22  C   UNL     1       3.636  -0.849  -0.602  0.00  0.00    +0.248 C 
ATOM     34  H   UNL     1       3.751   0.774   0.720  0.00  0.00    +0.155 HD
BRANCH  22  24
ATOM      8  N   UNL     1       7.289  -2.447   0.867  0.00  0.00    -0.263 NA
ATOM     24  C   UNL     1       4.913  -1.408  -0.088  0.00  0.00    +0.040 A 
ATOM     27  C   UNL     1       5.631  -2.268  -0.884  0.00  0.00    +0.033 A 
ATOM     28  C   UNL     1       5.340  -1.048   1.168  0.00  0.00    +0.033 A 
ATOM     32  C   UNL     1       6.815  -2.762  -0.360  0.00  0.00    +0.111 A 
ATOM     33  C   UNL     1       6.537  -1.596   1.601  0.00  0.00    +0.111 A 
ENDBRANCH  22  24
ENDBRANCH  19   7
BRANCH  18  21
ATOM     21  C   UNL     1      -3.153  -0.382   0.035  0.00  0.00    +0.324 C 
BRANCH  21   3
ATOM      3  O   UNL     1      -3.329  -1.486   0.888  0.00  0.00    -0.483 OA
BRANCH   3  23
ATOM     23  C   UNL     1      -4.019  -2.568   0.389  0.00  0.00    +0.121 A 
ATOM     25  C   UNL     1      -3.966  -2.842  -0.970  0.00  0.00    +0.045 A 
ATOM     26  C   UNL     1      -4.755  -3.365   1.253  0.00  0.00    +0.045 A 
ATOM     29  C   UNL     1      -4.665  -3.938  -1.476  0.00  0.00    +0.004 A 
ATOM     30  C   UNL     1      -5.454  -4.461   0.747  0.00  0.00    +0.004 A 
ATOM     31  C   UNL     1      -5.409  -4.747  -0.618  0.00  0.00    +0.000 A 
ENDBRANCH   3  23
ENDBRANCH  21   3
ENDBRANCH  18  21
TORSDOF 5
