REMARK  Name = 11941367
REMARK  4 active torsions:
REMARK  status: ('A' for Active; 'I' for Inactive)
REMARK    1  A    between atoms: N_4  and  C_13
REMARK    2  A    between atoms: N_6  and  C_26
REMARK    3  A    between atoms: C_21  and  C_23
REMARK    4  A    between atoms: C_24  and  C_26
REMARK                            x       y       z     vdW  Elec       q    Type
REMARK                         _______ _______ _______ _____ _____    ______ ____
ROOT
ATOM      2  O   UNL     1      -1.522  -0.957   1.847  0.00  0.00    -0.267 OA
ATOM      4  N   UNL     1       3.163  -0.694   0.079  0.00  0.00    -0.298 NA
ATOM      5  N   UNL     1       0.299  -1.923   0.757  0.00  0.00    -0.311 N 
ATOM      7  C   UNL     1       2.559  -2.301   1.906  0.00  0.00    +0.024 C 
ATOM      8  C   UNL     1       2.258  -2.966  -0.431  0.00  0.00    +0.050 C 
ATOM      9  C   UNL     1       2.685  -3.474   0.944  0.00  0.00    +0.017 C 
ATOM     10  C   UNL     1       3.464  -1.138   1.446  0.00  0.00    +0.090 C 
ATOM     11  C   UNL     1       3.193  -1.816  -0.870  0.00  0.00    +0.094 C 
ATOM     12  C   UNL     1       1.081  -1.896   2.001  0.00  0.00    +0.130 C 
ATOM     14  C   UNL     1       0.815  -2.496  -0.407  0.00  0.00    +0.026 A 
ATOM     17  C   UNL     1       0.044  -2.612  -1.500  0.00  0.00    +0.022 A 
ATOM     18  C   UNL     1      -1.022  -1.438   0.829  0.00  0.00    +0.259 A 
ATOM     21  C   UNL     1      -1.851  -1.550  -0.422  0.00  0.00    +0.047 A 
ATOM     22  C   UNL     1      -1.306  -2.125  -1.505  0.00  0.00    +0.015 A 
ENDROOT
BRANCH   4  13
ATOM      1  O   UNL     1       4.471   3.114  -1.112  0.00  0.00    -0.380 OA
ATOM     13  C   UNL     1       4.074   0.369  -0.339  0.00  0.00    +0.061 C 
ATOM     15  C   UNL     1       3.678   0.898  -1.720  0.00  0.00    +0.047 C 
ATOM     16  C   UNL     1       4.087   1.516   0.678  0.00  0.00    +0.047 C 
ATOM     19  C   UNL     1       4.551   2.089  -2.102  0.00  0.00    +0.161 C 
ATOM     20  C   UNL     1       4.937   2.671   0.163  0.00  0.00    +0.161 C 
ENDBRANCH   4  13
BRANCH  21  23
ATOM     23  C   UNL     1      -3.231  -1.035  -0.472  0.00  0.00    -0.008 A 
ATOM     24  C   UNL     1      -3.504   0.280  -0.855  0.00  0.00    -0.025 A 
ATOM     25  C   UNL     1      -4.281  -1.889  -0.129  0.00  0.00    +0.009 A 
ATOM     27  C   UNL     1      -4.821   0.739  -0.893  0.00  0.00    +0.005 A 
ATOM     30  C   UNL     1      -5.598  -1.431  -0.167  0.00  0.00    +0.001 A 
ATOM     31  C   UNL     1      -5.867  -0.117  -0.549  0.00  0.00    +0.000 A 
BRANCH  24  26
ATOM     26  C   UNL     1      -2.407   1.224  -1.230  0.00  0.00    +0.120 C 
BRANCH  26   6
ATOM      3  O   UNL     1      -1.401   4.349   1.386  0.00  0.00    -0.377 OA
ATOM      6  N   UNL     1      -1.924   1.952  -0.058  0.00  0.00    -0.294 NA
ATOM     28  C   UNL     1      -3.009   2.732   0.555  0.00  0.00    +0.113 C 
ATOM     29  C   UNL     1      -0.808   2.838  -0.417  0.00  0.00    +0.113 C 
ATOM     32  C   UNL     1      -2.478   3.492   1.768  0.00  0.00    +0.175 C 
ATOM     33  C   UNL     1      -0.330   3.594   0.819  0.00  0.00    +0.175 C 
ENDBRANCH  26   6
ENDBRANCH  24  26
ENDBRANCH  21  23
TORSDOF 4
