REMARK  Name = 56775298
REMARK  5 active torsions:
REMARK  status: ('A' for Active; 'I' for Inactive)
REMARK    1  A    between atoms: O_4  and  C_23
REMARK    2  A    between atoms: O_4  and  C_24
REMARK    3  A    between atoms: N_6  and  C_17
REMARK    4  A    between atoms: C_8  and  C_14
REMARK    5  A    between atoms: C_17  and  C_18
REMARK                            x       y       z     vdW  Elec       q    Type
REMARK                         _______ _______ _______ _____ _____    ______ ____
ROOT
ATOM      1  O   UNL     1      -1.890   2.568   1.009  0.00  0.00    -0.364 OA
ATOM      2  O   UNL     1      -4.595  -1.354   1.330  0.00  0.00    -0.275 OA
ATOM      3  O   UNL     1       0.492   3.806  -1.326  0.00  0.00    -0.273 OA
ATOM      5  N   UNL     1      -2.696  -0.282   0.555  0.00  0.00    -0.297 N 
ATOM      6  N   UNL     1       0.197   1.626  -0.567  0.00  0.00    -0.288 N 
ATOM      7  C   UNL     1      -0.567   0.702   0.262  0.00  0.00    +0.124 C 
ATOM      9  C   UNL     1      -1.264   1.365   1.448  0.00  0.00    +0.158 C 
ATOM     10  C   UNL     1      -1.730   0.047  -0.489  0.00  0.00    +0.133 C 
ATOM     13  C   UNL     1      -2.349   0.362   1.817  0.00  0.00    +0.141 C 
ATOM     14  C   UNL     1      -3.805  -1.101   0.425  0.00  0.00    +0.219 C 
ATOM     15  C   UNL     1      -0.030   3.000  -0.554  0.00  0.00    +0.242 C 
ATOM     16  C   UNL     1      -0.928   3.498   0.565  0.00  0.00    +0.256 C 
ENDROOT
BRANCH  14   8
ATOM      8  C   UNL     1      -4.018  -1.732  -0.912  0.00  0.00    +0.075 C 
ATOM     11  C   UNL     1      -4.773  -3.026  -0.998  0.00  0.00    +0.013 C 
ATOM     12  C   UNL     1      -3.293  -3.004  -1.244  0.00  0.00    +0.013 C 
ENDBRANCH  14   8
BRANCH   6  17
ATOM     17  C   UNL     1       1.107   1.040  -1.542  0.00  0.00    +0.143 C 
BRANCH  17  18
ATOM     18  C   UNL     1       2.225   0.286  -0.883  0.00  0.00    -0.030 A 
ATOM     19  C   UNL     1       3.279   0.980  -0.287  0.00  0.00    +0.009 A 
ATOM     20  C   UNL     1       2.211  -1.109  -0.868  0.00  0.00    +0.009 A 
ATOM     21  C   UNL     1       4.318   0.278   0.325  0.00  0.00    +0.046 A 
ATOM     22  C   UNL     1       3.251  -1.810  -0.257  0.00  0.00    +0.046 A 
ATOM     23  C   UNL     1       4.304  -1.116   0.340  0.00  0.00    +0.120 A 
BRANCH  23   4
ATOM      4  O   UNL     1       5.317  -1.800   0.937  0.00  0.00    -0.495 OA
ATOM     24  C   UNL     1       5.240  -3.225   0.916  0.00  0.00    +0.277 C 
ENDBRANCH  23   4
ENDBRANCH  17  18
ENDBRANCH   6  17
TORSDOF 4
