REMARK  Name = 45361548
REMARK  10 active torsions:
REMARK  status: ('A' for Active; 'I' for Inactive)
REMARK    1  A    between atoms: O_1  and  C_12
REMARK    2  A    between atoms: N_4  and  C_16
REMARK    3  A    between atoms: N_5  and  C_26
REMARK    4  A    between atoms: C_9  and  C_19
REMARK    5  A    between atoms: C_11  and  C_21
REMARK    6  A    between atoms: C_15  and  C_20
REMARK    7  A    between atoms: C_20  and  C_22
REMARK    8  A    between atoms: C_20  and  C_23
REMARK    9  A    between atoms: C_24  and  C_25
REMARK   10  A    between atoms: C_26  and  C_28
REMARK                            x       y       z     vdW  Elec       q    Type
REMARK                         _______ _______ _______ _____ _____    ______ ____
ROOT
ATOM      9  C   UNL     1      -0.020   0.404   1.203  0.00  0.00    -0.027 C 
ATOM     10  C   UNL     1      -0.360  -0.465  -0.053  0.00  0.00    +0.028 C 
ATOM     11  C   UNL     1      -1.888  -0.826  -0.086  0.00  0.00    +0.012 C 
ATOM     12  C   UNL     1       0.615  -1.670  -0.186  0.00  0.00    +0.122 C 
ATOM     13  C   UNL     1       1.464   0.836   1.145  0.00  0.00    +0.007 C 
ATOM     14  C   UNL     1      -0.884   1.685   1.180  0.00  0.00    +0.009 C 
ATOM     15  C   UNL     1       2.100  -1.242  -0.139  0.00  0.00    +0.029 C 
ATOM     16  C   UNL     1      -2.749   0.467  -0.033  0.00  0.00    +0.076 C 
ATOM     17  C   UNL     1       2.424  -0.343   1.055  0.00  0.00    +0.007 C 
ATOM     18  C   UNL     1      -2.378   1.398   1.121  0.00  0.00    +0.023 C 
ATOM     19  C   UNL     1      -0.266  -0.353   2.533  0.00  0.00    +0.011 C 
ATOM     21  C   UNL     1      -2.299  -1.657  -1.313  0.00  0.00    +0.010 C 
ENDROOT
BRANCH  16   4
ATOM      3  O   UNL     1      -4.903   2.022  -1.123  0.00  0.00    -0.268 OA
ATOM      4  N   UNL     1      -4.163   0.168   0.056  0.00  0.00    -0.307 N 
ATOM     24  C   UNL     1      -5.129   0.984  -0.506  0.00  0.00    +0.264 C 
ATOM     35  H   UNL     1      -4.451  -0.641   0.599  0.00  0.00    +0.149 HD
BRANCH  24  25
ATOM      6  N   UNL     1      -6.724  -0.584   0.397  0.00  0.00    -0.247 NA
ATOM      7  N   UNL     1      -8.871   0.895  -0.638  0.00  0.00    -0.259 NA
ATOM     25  C   UNL     1      -6.536   0.552  -0.304  0.00  0.00    +0.143 A 
ATOM     27  C   UNL     1      -7.590   1.278  -0.813  0.00  0.00    +0.143 A 
ATOM     29  C   UNL     1      -8.004  -0.967   0.571  0.00  0.00    +0.131 A 
ATOM     32  C   UNL     1      -9.059  -0.241   0.063  0.00  0.00    +0.130 A 
ENDBRANCH  24  25
ENDBRANCH  16   4
BRANCH  12   1
ATOM      1  O   UNL     1       0.414  -2.309  -1.448  0.00  0.00    -0.391 OA
ATOM     36  H   UNL     1       0.586  -1.656  -2.148  0.00  0.00    +0.210 HD
ENDBRANCH  12   1
BRANCH  15  20
ATOM     20  C   UNL     1       3.042  -2.452  -0.140  0.00  0.00    +0.077 C 
ATOM     22  C   UNL     1       2.757  -3.339   1.067  0.00  0.00    +0.017 C 
BRANCH  20  23
ATOM      2  O   UNL     1       5.299  -2.285   0.724  0.00  0.00    -0.276 OA
ATOM      5  N   UNL     1       4.783  -1.186  -1.253  0.00  0.00    -0.311 N 
ATOM     23  C   UNL     1       4.493  -1.982  -0.154  0.00  0.00    +0.216 C 
ATOM     37  H   UNL     1       4.076  -1.024  -1.962  0.00  0.00    +0.149 HD
BRANCH   5  26
ATOM     26  C   UNL     1       6.092  -0.620  -1.484  0.00  0.00    +0.141 C 
BRANCH  26  28
ATOM      8  N   UNL     1       7.141   2.088   0.938  0.00  0.00    -0.263 NA
ATOM     28  C   UNL     1       6.239   0.733  -0.849  0.00  0.00    -0.012 A 
ATOM     30  C   UNL     1       5.644   1.857  -1.411  0.00  0.00    +0.008 A 
ATOM     31  C   UNL     1       6.971   0.900   0.316  0.00  0.00    +0.115 A 
ATOM     33  C   UNL     1       5.796   3.096  -0.799  0.00  0.00    +0.020 A 
ATOM     34  C   UNL     1       6.548   3.158   0.363  0.00  0.00    +0.111 A 
ENDBRANCH  26  28
ENDBRANCH   5  26
ENDBRANCH  20  23
ENDBRANCH  15  20
TORSDOF 7
