REMARK  Name = 11943282
REMARK  4 active torsions:
REMARK  status: ('A' for Active; 'I' for Inactive)
REMARK    1  A    between atoms: N_4  and  C_14
REMARK    2  A    between atoms: C_7  and  C_13
REMARK    3  A    between atoms: C_8  and  C_14
REMARK    4  A    between atoms: C_13  and  C_15
REMARK                            x       y       z     vdW  Elec       q    Type
REMARK                         _______ _______ _______ _____ _____    ______ ____
ROOT
ATOM     14  C   UNL     1      -0.388  -0.113  -1.172  0.00  0.00    +0.124 C 
ENDROOT
BRANCH  14   4
ATOM      1  O   UNL     1       1.904  -1.744  -1.084  0.00  0.00    -0.253 OA
ATOM      2  O   UNL     1       5.718   0.888   0.602  0.00  0.00    -0.377 OA
ATOM      4  N   UNL     1       0.887   0.255  -0.598  0.00  0.00    -0.298 N 
ATOM      5  N   UNL     1       3.143  -0.114   0.006  0.00  0.00    -0.281 N 
ATOM     16  C   UNL     1       1.974  -0.612  -0.595  0.00  0.00    +0.302 C 
ATOM     17  C   UNL     1       3.309   1.216   0.609  0.00  0.00    +0.137 C 
ATOM     18  C   UNL     1       4.281  -1.014   0.207  0.00  0.00    +0.137 C 
ATOM     19  C   UNL     1       4.673   1.802   0.264  0.00  0.00    +0.179 C 
ATOM     20  C   UNL     1       5.590  -0.325  -0.143  0.00  0.00    +0.179 C 
ATOM     21  H   UNL     1       0.926   1.148  -0.127  0.00  0.00    +0.150 HD
ENDBRANCH  14   4
BRANCH  14   8
ATOM      3  N   UNL     1      -2.557  -1.284  -0.709  0.00  0.00    -0.298 NA
ATOM      6  C   UNL     1      -3.057   0.088   1.444  0.00  0.00    -0.004 C 
ATOM      7  C   UNL     1      -3.911   0.592   0.259  0.00  0.00    +0.006 C 
ATOM      8  C   UNL     1      -1.288  -0.773  -0.125  0.00  0.00    +0.074 C 
ATOM      9  C   UNL     1      -1.565   0.169   1.068  0.00  0.00    +0.024 C 
ATOM     10  C   UNL     1      -3.471  -0.157  -1.019  0.00  0.00    +0.088 C 
ATOM     11  C   UNL     1      -3.398  -1.401   1.640  0.00  0.00    +0.019 C 
ATOM     12  C   UNL     1      -3.213  -2.144   0.305  0.00  0.00    +0.085 C 
BRANCH   7  13
ATOM     13  C   UNL     1      -3.850   2.106   0.073  0.00  0.00    +0.002 C 
ATOM     15  C   UNL     1      -4.782   2.566  -1.032  0.00  0.00    +0.004 C 
ENDBRANCH   7  13
ENDBRANCH  14   8
TORSDOF 3
