REMARK  Name = 75537036
REMARK  4 active torsions:
REMARK  status: ('A' for Active; 'I' for Inactive)
REMARK    1  A    between atoms: O_2  and  C_16
REMARK    2  A    between atoms: O_2  and  C_19
REMARK    3  A    between atoms: N_4  and  C_12
REMARK    4  A    between atoms: C_12  and  C_13
REMARK                            x       y       z     vdW  Elec       q    Type
REMARK                         _______ _______ _______ _____ _____    ______ ____
ROOT
ATOM      1  O   UNL     1       5.568   0.075   0.005  0.00  0.00    -0.253 OA
ATOM      3  N   UNL     1       3.236  -0.145   0.230  0.00  0.00    -0.279 N 
ATOM      4  N   UNL     1       0.622  -1.062  -0.253  0.00  0.00    -0.295 NA
ATOM      5  N   UNL     1       4.128   1.916   0.219  0.00  0.00    -0.297 N 
ATOM      6  C   UNL     1       2.121   0.737   0.504  0.00  0.00    +0.109 C 
ATOM      7  C   UNL     1       0.929   0.377  -0.382  0.00  0.00    +0.109 C 
ATOM      8  C   UNL     1       3.014  -1.575   0.185  0.00  0.00    +0.125 C 
ATOM      9  C   UNL     1       2.699   2.130   0.269  0.00  0.00    +0.129 C 
ATOM     10  C   UNL     1       1.777  -1.886  -0.661  0.00  0.00    +0.104 C 
ATOM     11  C   UNL     1       4.447   0.547   0.139  0.00  0.00    +0.303 C 
ATOM     20  H   UNL     1       4.817   2.660   0.162  0.00  0.00    +0.150 HD
ENDROOT
BRANCH   4  12
ATOM     12  C   UNL     1      -0.555  -1.405  -1.051  0.00  0.00    +0.119 C 
BRANCH  12  13
ATOM     13  C   UNL     1      -1.832  -0.971  -0.382  0.00  0.00    -0.030 A 
ATOM     14  C   UNL     1      -2.506   0.163  -0.835  0.00  0.00    +0.050 A 
ATOM     15  C   UNL     1      -2.341  -1.702   0.692  0.00  0.00    +0.005 A 
ATOM     16  C   UNL     1      -3.689   0.565  -0.215  0.00  0.00    +0.120 A 
ATOM     17  C   UNL     1      -3.523  -1.300   1.312  0.00  0.00    +0.004 A 
ATOM     18  C   UNL     1      -4.198  -0.166   0.859  0.00  0.00    +0.045 A 
BRANCH  16   2
ATOM      2  O   UNL     1      -4.346   1.673  -0.656  0.00  0.00    -0.495 OA
ATOM     19  C   UNL     1      -5.549   2.028   0.024  0.00  0.00    +0.277 C 
ENDBRANCH  16   2
ENDBRANCH  12  13
ENDBRANCH   4  12
TORSDOF 3
