REMARK  Name = 11883385
REMARK  6 active torsions:
REMARK  status: ('A' for Active; 'I' for Inactive)
REMARK    1  A    between atoms: O_6  and  C_14
REMARK    2  A    between atoms: O_6  and  C_18
REMARK    3  A    between atoms: N_9  and  C_13
REMARK    4  A    between atoms: N_10  and  C_22
REMARK    5  A    between atoms: C_17  and  C_19
REMARK    6  A    between atoms: C_28  and  C_31
REMARK                            x       y       z     vdW  Elec       q    Type
REMARK                         _______ _______ _______ _____ _____    ______ ____
ROOT
ATOM      4  O   UNL     1       0.941  -1.598   0.892  0.00  0.00    -0.368 OA
ATOM      5  O   UNL     1       2.073  -3.640  -1.095  0.00  0.00    -0.368 OA
ATOM     11  C   UNL     1       2.227  -2.208  -1.004  0.00  0.00    +0.173 C 
ATOM     12  C   UNL     1       0.894  -1.652  -0.543  0.00  0.00    +0.192 C 
ATOM     13  C   UNL     1       3.174  -1.858   0.120  0.00  0.00    +0.130 C 
ATOM     14  C   UNL     1      -0.082  -2.695  -1.032  0.00  0.00    +0.235 C 
ATOM     15  C   UNL     1       2.267  -1.922   1.337  0.00  0.00    +0.185 C 
ATOM     16  C   UNL     1       0.700  -3.976  -0.846  0.00  0.00    +0.207 C 
ENDROOT
BRANCH  13   9
ATOM      7  O   UNL     1       5.668  -0.891   1.165  0.00  0.00    -0.270 OA
ATOM      9  N   UNL     1       3.727  -0.537  -0.054  0.00  0.00    -0.304 N 
ATOM     17  C   UNL     1       4.946  -0.161   0.491  0.00  0.00    +0.244 C 
ATOM     32  H   UNL     1       3.133   0.153  -0.502  0.00  0.00    +0.149 HD
BRANCH  17  19
ATOM     19  C   UNL     1       5.364   1.243   0.243  0.00  0.00    +0.037 A 
ATOM     20  C   UNL     1       6.201   1.859   1.150  0.00  0.00    +0.013 A 
ATOM     21  C   UNL     1       4.901   1.886  -0.886  0.00  0.00    +0.013 A 
ATOM     23  C   UNL     1       6.594   3.177   0.917  0.00  0.00    +0.001 A 
ATOM     24  C   UNL     1       5.294   3.204  -1.119  0.00  0.00    +0.001 A 
ATOM     27  C   UNL     1       6.141   3.849  -0.217  0.00  0.00    +0.000 A 
ENDBRANCH  17  19
ENDBRANCH  13   9
BRANCH  14   6
ATOM      6  O   UNL     1      -1.297  -2.707  -0.319  0.00  0.00    -0.442 OA
BRANCH   6  18
ATOM      8  O   UNL     1      -1.741  -0.580  -1.032  0.00  0.00    -0.226 OA
ATOM     10  N   UNL     1      -3.220  -1.743   0.361  0.00  0.00    -0.251 N 
ATOM     18  C   UNL     1      -2.072  -1.568  -0.388  0.00  0.00    +0.405 C 
ATOM     33  H   UNL     1      -3.318  -2.642   0.828  0.00  0.00    +0.158 HD
BRANCH  10  22
ATOM     22  C   UNL     1      -4.279  -0.828   0.559  0.00  0.00    +0.037 A 
ATOM     25  C   UNL     1      -4.221   0.419  -0.043  0.00  0.00    +0.035 A 
ATOM     26  C   UNL     1      -5.354  -1.195   1.352  0.00  0.00    +0.023 A 
ATOM     28  C   UNL     1      -5.266   1.322   0.153  0.00  0.00    +0.057 A 
ATOM     29  C   UNL     1      -6.399  -0.293   1.548  0.00  0.00    +0.002 A 
ATOM     30  C   UNL     1      -6.355   0.966   0.949  0.00  0.00    +0.012 A 
BRANCH  28  31
ATOM      1  F   UNL     1      -4.142   3.417  -0.110  0.00  0.00    -0.166 F 
ATOM      2  F   UNL     1      -6.308   3.445  -0.210  0.00  0.00    -0.166 F 
ATOM      3  F   UNL     1      -5.158   2.599  -1.850  0.00  0.00    -0.166 F 
ATOM     31  C   UNL     1      -5.220   2.668  -0.488  0.00  0.00    +0.417 C 
ENDBRANCH  28  31
ENDBRANCH  10  22
ENDBRANCH   6  18
ENDBRANCH  14   6
TORSDOF 6
