REMARK  Name = 38027105
REMARK  13 active torsions:
REMARK  status: ('A' for Active; 'I' for Inactive)
REMARK    1  A    between atoms: N_4  and  C_15
REMARK    2  A    between atoms: N_5  and  C_22
REMARK    3  A    between atoms: N_6  and  C_23
REMARK    4  A    between atoms: C_8  and  C_12
REMARK    5  A    between atoms: C_9  and  C_15
REMARK    6  A    between atoms: C_11  and  C_16
REMARK    7  A    between atoms: C_12  and  C_17
REMARK    8  A    between atoms: C_12  and  C_18
REMARK    9  A    between atoms: C_13  and  C_19
REMARK   10  A    between atoms: C_16  and  C_20
REMARK   11  A    between atoms: C_21  and  C_24
REMARK   12  A    between atoms: C_22  and  C_23
REMARK   13  A    between atoms: C_33  and  C_34
REMARK                            x       y       z     vdW  Elec       q    Type
REMARK                         _______ _______ _______ _____ _____    ______ ____
ROOT
ATOM      8  C   UNL     1       1.412   2.652  -0.753  0.00  0.00    +0.000 C 
ATOM      9  C   UNL     1       2.783   3.038  -0.144  0.00  0.00    +0.032 C 
ATOM     10  C   UNL     1       0.268   3.181   0.126  0.00  0.00    +0.012 C 
ATOM     11  C   UNL     1       0.336   2.632   1.563  0.00  0.00    +0.023 C 
ATOM     13  C   UNL     1       1.734   2.733   2.139  0.00  0.00    -0.073 C 
ATOM     14  C   UNL     1       2.814   2.929   1.362  0.00  0.00    -0.022 C 
ATOM     19  C   UNL     1       1.857   2.651   3.635  0.00  0.00    +0.039 C 
ENDROOT
BRANCH   8  12
ATOM     12  C   UNL     1       1.255   3.181  -2.182  0.00  0.00    -0.013 C 
ATOM     17  C   UNL     1       0.245   2.337  -2.953  0.00  0.00    +0.007 C 
ATOM     18  C   UNL     1       0.833   4.646  -2.164  0.00  0.00    +0.007 C 
ENDBRANCH   8  12
BRANCH   9  15
ATOM     15  C   UNL     1       3.912   2.189  -0.741  0.00  0.00    +0.112 C 
BRANCH  15   4
ATOM      2  O   UNL     1       3.583  -0.038  -2.523  0.00  0.00    -0.270 OA
ATOM      4  N   UNL     1       3.763   0.817  -0.373  0.00  0.00    -0.311 N 
ATOM     21  C   UNL     1       3.608  -0.207  -1.307  0.00  0.00    +0.244 C 
ATOM     35  H   UNL     1       3.866   0.588   0.611  0.00  0.00    +0.149 HD
BRANCH  21  24
ATOM     24  C   UNL     1       3.439  -1.579  -0.761  0.00  0.00    +0.037 A 
ATOM     29  C   UNL     1       3.831  -2.683  -1.518  0.00  0.00    +0.014 A 
ATOM     30  C   UNL     1       2.890  -1.762   0.508  0.00  0.00    +0.014 A 
ATOM     31  C   UNL     1       3.672  -3.971  -1.006  0.00  0.00    +0.019 A 
ATOM     32  C   UNL     1       2.731  -3.050   1.020  0.00  0.00    +0.019 A 
ATOM     33  C   UNL     1       3.123  -4.154   0.263  0.00  0.00    +0.052 A 
BRANCH  33  34
ATOM      7  N   UNL     1       2.828  -6.545   1.214  0.00  0.00    -0.191 NA
ATOM     34  C   UNL     1       2.960  -5.473   0.788  0.00  0.00    +0.099 C 
ENDBRANCH  33  34
ENDBRANCH  21  24
ENDBRANCH  15   4
ENDBRANCH   9  15
BRANCH  11  16
ATOM     16  C   UNL     1      -0.181   1.190   1.629  0.00  0.00    +0.103 C 
BRANCH  16  20
ATOM      1  O   UNL     1      -2.407   2.108   1.389  0.00  0.00    -0.276 OA
ATOM      5  N   UNL     1      -2.129  -0.193   1.557  0.00  0.00    -0.314 N 
ATOM     20  C   UNL     1      -1.687   1.120   1.510  0.00  0.00    +0.214 C 
ATOM     36  H   UNL     1      -1.450  -0.943   1.651  0.00  0.00    +0.149 HD
BRANCH   5  22
ATOM     22  C   UNL     1      -3.524  -0.560   1.468  0.00  0.00    +0.119 C 
BRANCH  22  23
ATOM     23  C   UNL     1      -3.942  -0.789   0.023  0.00  0.00    +0.103 C 
BRANCH  23   6
ATOM      3  O   UNL     1      -7.950  -0.979  -1.206  0.00  0.00    -0.377 OA
ATOM      6  N   UNL     1      -5.356  -1.149  -0.046  0.00  0.00    -0.297 NA
ATOM     25  C   UNL     1      -5.669  -1.795  -1.329  0.00  0.00    +0.112 C 
ATOM     26  C   UNL     1      -6.205   0.036   0.140  0.00  0.00    +0.112 C 
ATOM     27  C   UNL     1      -7.152  -2.150  -1.382  0.00  0.00    +0.175 C 
ATOM     28  C   UNL     1      -7.676  -0.362   0.053  0.00  0.00    +0.175 C 
ENDBRANCH  23   6
ENDBRANCH  22  23
ENDBRANCH   5  22
ENDBRANCH  16  20
ENDBRANCH  11  16
TORSDOF 10
