REMARK  Name = 51137608
REMARK  6 active torsions:
REMARK  status: ('A' for Active; 'I' for Inactive)
REMARK    1  A    between atoms: O_3  and  C_17
REMARK    2  A    between atoms: O_3  and  C_20
REMARK    3  A    between atoms: N_4  and  C_13
REMARK    4  A    between atoms: C_9  and  C_14
REMARK    5  A    between atoms: C_13  and  C_15
REMARK    6  A    between atoms: C_16  and  C_17
REMARK                            x       y       z     vdW  Elec       q    Type
REMARK                         _______ _______ _______ _____ _____    ______ ____
ROOT
ATOM      2  O   UNL     1       0.741  -0.122   0.344  0.00  0.00    -0.421 OA
ATOM      5  N   UNL     1      -0.253  -1.910  -0.560  0.00  0.00    -0.112 NA
ATOM      8  N   UNL     1       1.087  -2.206  -0.392  0.00  0.00    -0.109 NA
ATOM     14  C   UNL     1      -0.409  -0.685  -0.117  0.00  0.00    +0.222 A 
ATOM     16  C   UNL     1       1.628  -1.134   0.138  0.00  0.00    +0.254 A 
ENDROOT
BRANCH  14   9
ATOM      4  N   UNL     1      -3.987   0.041   0.195  0.00  0.00    -0.294 NA
ATOM      9  C   UNL     1      -1.658   0.164  -0.049  0.00  0.00    +0.092 C 
ATOM     10  C   UNL     1      -2.332   0.430  -1.406  0.00  0.00    +0.029 C 
ATOM     11  C   UNL     1      -2.760  -0.462   0.816  0.00  0.00    +0.097 C 
ATOM     12  C   UNL     1      -3.758  -0.081  -1.245  0.00  0.00    +0.085 C 
BRANCH   4  13
ATOM     13  C   UNL     1      -5.170  -0.686   0.632  0.00  0.00    +0.158 C 
BRANCH  13  15
ATOM      6  N   UNL     1      -6.810   1.140   1.134  0.00  0.00    -0.347 N 
ATOM      7  N   UNL     1      -7.298  -0.144  -0.611  0.00  0.00    -0.239 NA
ATOM     15  C   UNL     1      -6.435   0.082   0.354  0.00  0.00    +0.121 A 
ATOM     18  C   UNL     1      -7.988   1.620   0.633  0.00  0.00    +0.104 A 
ATOM     19  C   UNL     1      -8.268   0.812  -0.443  0.00  0.00    +0.130 A 
ATOM     26  H   UNL     1      -6.309   1.504   1.934  0.00  0.00    +0.167 HD
ENDBRANCH  13  15
ENDBRANCH   4  13
ENDBRANCH  14   9
BRANCH  16  17
ATOM     17  C   UNL     1       3.021  -0.886   0.531  0.00  0.00    +0.326 C 
BRANCH  17   3
ATOM      3  O   UNL     1       3.658  -0.026  -0.417  0.00  0.00    -0.483 OA
BRANCH   3  20
ATOM      1  F   UNL     1       8.985   1.030   0.426  0.00  0.00    -0.205 F 
ATOM     20  C   UNL     1       4.982   0.236  -0.208  0.00  0.00    +0.121 A 
ATOM     21  C   UNL     1       5.640  -0.326   0.887  0.00  0.00    +0.048 A 
ATOM     22  C   UNL     1       5.677   1.066  -1.088  0.00  0.00    +0.048 A 
ATOM     23  C   UNL     1       6.992  -0.058   1.101  0.00  0.00    +0.042 A 
ATOM     24  C   UNL     1       7.029   1.334  -0.874  0.00  0.00    +0.042 A 
ATOM     25  C   UNL     1       7.686   0.772   0.220  0.00  0.00    +0.124 A 
ENDBRANCH   3  20
ENDBRANCH  17   3
ENDBRANCH  16  17
TORSDOF 6
