REMARK  Name = 75536312
REMARK  10 active torsions:
REMARK  status: ('A' for Active; 'I' for Inactive)
REMARK    1  A    between atoms: O_2  and  C_8
REMARK    2  A    between atoms: O_4  and  C_24
REMARK    3  A    between atoms: O_4  and  C_30
REMARK    4  A    between atoms: N_5  and  C_12
REMARK    5  A    between atoms: N_5  and  C_15
REMARK    6  A    between atoms: C_7  and  C_12
REMARK    7  A    between atoms: C_9  and  C_13
REMARK    8  A    between atoms: C_13  and  C_14
REMARK    9  A    between atoms: C_15  and  C_17
REMARK   10  A    between atoms: C_18  and  C_19
REMARK                            x       y       z     vdW  Elec       q    Type
REMARK                         _______ _______ _______ _____ _____    ______ ____
ROOT
ATOM      1  O   UNL     1       3.285   0.003   0.861  0.00  0.00    -0.369 OA
ATOM      7  C   UNL     1       3.656   1.385   0.770  0.00  0.00    +0.161 C 
ATOM      8  C   UNL     1       5.163   1.545   0.534  0.00  0.00    +0.145 C 
ATOM      9  C   UNL     1       3.666  -0.803  -0.256  0.00  0.00    +0.125 C 
ATOM     10  C   UNL     1       5.668   0.671  -0.611  0.00  0.00    +0.036 C 
ATOM     11  C   UNL     1       5.181  -0.767  -0.456  0.00  0.00    +0.034 C 
ENDROOT
BRANCH   8   2
ATOM      2  O   UNL     1       5.859   1.154   1.720  0.00  0.00    -0.389 OA
ATOM     32  H   UNL     1       6.808   1.307   1.569  0.00  0.00    +0.210 HD
ENDBRANCH   8   2
BRANCH   7  12
ATOM     12  C   UNL     1       2.809   2.114  -0.271  0.00  0.00    +0.115 C 
BRANCH  12   5
ATOM      5  N   UNL     1       1.390   1.953   0.009  0.00  0.00    -0.309 NA
ATOM     31  H   UNL     1       1.157   0.960   0.004  0.00  0.00    +0.122 HD
BRANCH   5  15
ATOM     15  C   UNL     1       0.579   2.656  -0.976  0.00  0.00    +0.116 C 
BRANCH  15  17
ATOM     17  C   UNL     1      -0.893   2.513  -0.696  0.00  0.00    -0.033 A 
ATOM     20  C   UNL     1      -1.548   1.320  -1.001  0.00  0.00    +0.008 A 
ATOM     21  C   UNL     1      -1.601   3.573  -0.129  0.00  0.00    +0.008 A 
ATOM     22  C   UNL     1      -2.912   1.187  -0.739  0.00  0.00    +0.046 A 
ATOM     23  C   UNL     1      -2.965   3.439   0.133  0.00  0.00    +0.046 A 
ATOM     24  C   UNL     1      -3.620   2.246  -0.172  0.00  0.00    +0.120 A 
BRANCH  24   4
ATOM      4  O   UNL     1      -4.950   2.115   0.085  0.00  0.00    -0.495 OA
ATOM     30  C   UNL     1      -5.613   3.238   0.665  0.00  0.00    +0.277 C 
ENDBRANCH  24   4
ENDBRANCH  15  17
ENDBRANCH   5  15
ENDBRANCH  12   5
ENDBRANCH   7  12
BRANCH   9  13
ATOM     13  C   UNL     1       3.190  -2.224   0.021  0.00  0.00    +0.090 C 
BRANCH  13  14
ATOM      3  O   UNL     1      -0.107  -2.777  -1.328  0.00  0.00    -0.354 OA
ATOM      6  N   UNL     1       1.277  -2.731  -1.444  0.00  0.00    -0.083 NA
ATOM     14  C   UNL     1       1.714  -2.376  -0.232  0.00  0.00    +0.087 A 
ATOM     16  C   UNL     1       0.661  -2.187   0.680  0.00  0.00    +0.076 A 
ATOM     18  C   UNL     1      -0.462  -2.452  -0.059  0.00  0.00    +0.167 A 
BRANCH  18  19
ATOM     19  C   UNL     1      -1.869  -2.459   0.215  0.00  0.00    +0.020 A 
ATOM     25  C   UNL     1      -2.333  -2.140   1.492  0.00  0.00    +0.011 A 
ATOM     26  C   UNL     1      -2.775  -2.784  -0.794  0.00  0.00    +0.011 A 
ATOM     27  C   UNL     1      -3.702  -2.147   1.758  0.00  0.00    +0.001 A 
ATOM     28  C   UNL     1      -4.144  -2.791  -0.528  0.00  0.00    +0.001 A 
ATOM     29  C   UNL     1      -4.607  -2.473   0.749  0.00  0.00    +0.000 A 
ENDBRANCH  18  19
ENDBRANCH  13  14
ENDBRANCH   9  13
TORSDOF 9
