REMARK  Name = 11884504
REMARK  6 active torsions:
REMARK  status: ('A' for Active; 'I' for Inactive)
REMARK    1  A    between atoms: N_7  and  C_16
REMARK    2  A    between atoms: N_8  and  C_18
REMARK    3  A    between atoms: N_9  and  C_20
REMARK    4  A    between atoms: C_16  and  C_19
REMARK    5  A    between atoms: C_20  and  C_24
REMARK    6  A    between atoms: C_24  and  C_30
REMARK                            x       y       z     vdW  Elec       q    Type
REMARK                         _______ _______ _______ _____ _____    ______ ____
ROOT
ATOM      3  O   UNL     1       1.352   1.694   0.101  0.00  0.00    -0.273 OA
ATOM      4  O   UNL     1      -2.879   0.206  -1.278  0.00  0.00    -0.252 OA
ATOM      5  O   UNL     1       3.806   0.635  -1.478  0.00  0.00    -0.253 OA
ATOM      6  N   UNL     1       2.372  -0.769  -0.334  0.00  0.00    -0.272 N 
ATOM      7  N   UNL     1      -1.136  -1.288  -1.134  0.00  0.00    -0.275 N 
ATOM      8  N   UNL     1      -0.801   1.008  -0.548  0.00  0.00    -0.192 N 
ATOM      9  N   UNL     1       4.675  -0.803   0.099  0.00  0.00    -0.299 N 
ATOM     10  C   UNL     1       0.255  -1.577  -0.870  0.00  0.00    +0.109 C 
ATOM     11  C   UNL     1       1.167  -0.386  -1.073  0.00  0.00    +0.185 C 
ATOM     12  C   UNL     1       0.561  -2.006   0.567  0.00  0.00    +0.044 C 
ATOM     13  C   UNL     1       2.072  -1.814   0.648  0.00  0.00    +0.112 C 
ATOM     14  C   UNL     1       0.604   0.875  -0.439  0.00  0.00    +0.250 C 
ATOM     15  C   UNL     1      -1.696  -0.013  -0.991  0.00  0.00    +0.316 C 
ATOM     17  C   UNL     1       3.632  -0.248  -0.635  0.00  0.00    +0.303 C 
ATOM     31  H   UNL     1       4.487  -1.524   0.787  0.00  0.00    +0.150 HD
ENDROOT
BRANCH   8  18
ATOM      2  F   UNL     1      -4.469   3.604   1.197  0.00  0.00    -0.205 F 
ATOM     18  C   UNL     1      -1.380   2.284  -0.172  0.00  0.00    +0.048 A 
ATOM     21  C   UNL     1      -2.669   2.325   0.341  0.00  0.00    +0.062 A 
ATOM     22  C   UNL     1      -0.637   3.445  -0.332  0.00  0.00    +0.024 A 
ATOM     26  C   UNL     1      -3.226   3.552   0.701  0.00  0.00    +0.125 A 
ATOM     27  C   UNL     1      -1.194   4.672   0.028  0.00  0.00    +0.005 A 
ATOM     29  C   UNL     1      -2.488   4.725   0.545  0.00  0.00    +0.038 A 
ENDBRANCH   8  18
BRANCH   7  16
ATOM     16  C   UNL     1      -1.970  -2.420  -1.523  0.00  0.00    +0.152 C 
BRANCH  16  19
ATOM      1  S   UNL     1      -2.138  -4.710   0.007  0.00  0.00    -0.100 S 
ATOM     19  C   UNL     1      -2.523  -3.079  -0.297  0.00  0.00    +0.007 A 
ATOM     23  C   UNL     1      -3.332  -2.531   0.657  0.00  0.00    +0.013 A 
ATOM     25  C   UNL     1      -3.651  -3.475   1.675  0.00  0.00    +0.008 A 
ATOM     28  C   UNL     1      -3.066  -4.701   1.445  0.00  0.00    +0.045 A 
ENDBRANCH  16  19
ENDBRANCH   7  16
BRANCH   9  20
ATOM     20  C   UNL     1       6.046  -0.383  -0.076  0.00  0.00    +0.105 C 
BRANCH  20  24
ATOM     24  C   UNL     1       6.422   0.769   0.848  0.00  0.00    +0.015 C 
ATOM     30  C   UNL     1       6.290   0.409   2.321  0.00  0.00    +0.005 C 
ENDBRANCH  20  24
ENDBRANCH   9  20
TORSDOF 5
