REMARK  Name = 51137107
REMARK  4 active torsions:
REMARK  status: ('A' for Active; 'I' for Inactive)
REMARK    1  A    between atoms: N_5  and  C_13
REMARK    2  A    between atoms: C_8  and  C_12
REMARK    3  A    between atoms: C_13  and  C_14
REMARK    4  A    between atoms: C_23  and  C_26
REMARK                            x       y       z     vdW  Elec       q    Type
REMARK                         _______ _______ _______ _____ _____    ______ ____
ROOT
ATOM      5  N   UNL     1      -0.671  -0.201  -0.281  0.00  0.00    -0.297 NA
ATOM      8  C   UNL     1       1.500  -0.812   0.360  0.00  0.00    +0.070 C 
ATOM      9  C   UNL     1       0.762  -0.201   1.563  0.00  0.00    +0.028 C 
ATOM     10  C   UNL     1       0.658  -0.409  -0.858  0.00  0.00    +0.096 C 
ATOM     11  C   UNL     1      -0.432   0.531   0.963  0.00  0.00    +0.085 C 
ENDROOT
BRANCH   8  12
ATOM      1  F   UNL     1       8.742  -0.502  -0.117  0.00  0.00    -0.205 F 
ATOM      6  N   UNL     1       3.953  -1.337   0.256  0.00  0.00    -0.341 N 
ATOM      7  N   UNL     1       3.417   0.814   0.092  0.00  0.00    -0.232 NA
ATOM     12  C   UNL     1       2.951  -0.407   0.233  0.00  0.00    +0.113 A 
ATOM     15  C   UNL     1       5.144  -0.671   0.121  0.00  0.00    +0.069 A 
ATOM     16  C   UNL     1       4.783   0.669   0.021  0.00  0.00    +0.089 A 
ATOM     19  C   UNL     1       6.467  -1.114   0.080  0.00  0.00    +0.066 A 
ATOM     20  C   UNL     1       5.788   1.640  -0.130  0.00  0.00    +0.032 A 
ATOM     24  C   UNL     1       7.454  -0.135  -0.071  0.00  0.00    +0.125 A 
ATOM     25  C   UNL     1       7.123   1.218  -0.174  0.00  0.00    +0.040 A 
ATOM     27  H   UNL     1       3.840  -2.337   0.355  0.00  0.00    +0.167 HD
ENDBRANCH   8  12
BRANCH   5  13
ATOM     13  C   UNL     1      -1.563   0.514  -1.182  0.00  0.00    +0.119 C 
BRANCH  13  14
ATOM     14  C   UNL     1      -3.007   0.346  -0.792  0.00  0.00    -0.033 A 
ATOM     17  C   UNL     1      -3.671  -0.848  -1.074  0.00  0.00    +0.005 A 
ATOM     18  C   UNL     1      -3.682   1.383  -0.147  0.00  0.00    +0.005 A 
ATOM     21  C   UNL     1      -5.009  -1.004  -0.713  0.00  0.00    +0.012 A 
ATOM     22  C   UNL     1      -5.019   1.227   0.214  0.00  0.00    +0.012 A 
ATOM     23  C   UNL     1      -5.683   0.033  -0.068  0.00  0.00    +0.055 A 
BRANCH  23  26
ATOM      2  F   UNL     1      -7.610  -1.359  -0.024  0.00  0.00    -0.166 F 
ATOM      3  F   UNL     1      -7.332  -0.016   1.664  0.00  0.00    -0.166 F 
ATOM      4  F   UNL     1      -7.949   0.776  -0.258  0.00  0.00    -0.166 F 
ATOM     26  C   UNL     1      -7.113  -0.135   0.321  0.00  0.00    +0.417 C 
ENDBRANCH  23  26
ENDBRANCH  13  14
ENDBRANCH   5  13
TORSDOF 4
