REMARK  Name = 45784082
REMARK  4 active torsions:
REMARK  status: ('A' for Active; 'I' for Inactive)
REMARK    1  A    between atoms: N_1  and  C_10
REMARK    2  A    between atoms: C_5  and  C_9
REMARK    3  A    between atoms: C_10  and  C_11
REMARK    4  A    between atoms: C_14  and  C_18
REMARK                            x       y       z     vdW  Elec       q    Type
REMARK                         _______ _______ _______ _____ _____    ______ ____
ROOT
ATOM      1  N   UNL     1      -1.494  -0.164  -0.001  0.00  0.00    -0.297 NA
ATOM      5  C   UNL     1       0.701  -0.638   0.676  0.00  0.00    +0.070 C 
ATOM      6  C   UNL     1       0.041   0.307   1.695  0.00  0.00    +0.028 C 
ATOM      7  C   UNL     1      -0.203  -0.567  -0.563  0.00  0.00    +0.096 C 
ATOM      8  C   UNL     1      -1.173   0.879   0.973  0.00  0.00    +0.085 C 
ENDROOT
BRANCH   5   9
ATOM      2  N   UNL     1       3.134  -1.250   0.603  0.00  0.00    -0.340 N 
ATOM      3  N   UNL     1       2.623   0.789  -0.134  0.00  0.00    -0.213 NA
ATOM      4  N   UNL     1       4.883   1.475  -0.694  0.00  0.00    -0.234 NA
ATOM      9  C   UNL     1       2.148  -0.330   0.368  0.00  0.00    +0.114 A 
ATOM     12  C   UNL     1       4.323  -0.686   0.228  0.00  0.00    +0.085 A 
ATOM     13  C   UNL     1       3.977   0.582  -0.226  0.00  0.00    +0.178 A 
ATOM     16  C   UNL     1       5.640  -1.132   0.233  0.00  0.00    +0.031 A 
ATOM     21  C   UNL     1       6.583  -0.225  -0.245  0.00  0.00    +0.022 A 
ATOM     22  C   UNL     1       6.161   1.026  -0.682  0.00  0.00    +0.113 A 
ATOM     23  H   UNL     1       3.009  -2.179   0.984  0.00  0.00    +0.167 HD
ENDBRANCH   5   9
BRANCH   1  10
ATOM     10  C   UNL     1      -2.424   0.298  -1.021  0.00  0.00    +0.119 C 
BRANCH  10  11
ATOM     11  C   UNL     1      -3.846   0.291  -0.528  0.00  0.00    -0.030 A 
ATOM     14  C   UNL     1      -4.563  -0.901  -0.422  0.00  0.00    -0.046 A 
ATOM     15  C   UNL     1      -4.446   1.499  -0.175  0.00  0.00    +0.005 A 
ATOM     17  C   UNL     1      -5.880  -0.884   0.037  0.00  0.00    +0.003 A 
ATOM     18  C   UNL     1      -3.942  -2.207  -0.794  0.00  0.00    +0.044 C 
ATOM     19  C   UNL     1      -5.763   1.516   0.284  0.00  0.00    +0.000 A 
ATOM     20  C   UNL     1      -6.480   0.325   0.390  0.00  0.00    +0.000 A 
ENDBRANCH  10  11
ENDBRANCH   1  10
TORSDOF 3
