REMARK  Name = 7134533
REMARK  11 active torsions:
REMARK  status: ('A' for Active; 'I' for Inactive)
REMARK    1  A    between atoms: O_1  and  C_12
REMARK    2  A    between atoms: O_2  and  C_15
REMARK    3  A    between atoms: O_3  and  C_17
REMARK    4  A    between atoms: O_7  and  C_34
REMARK    5  A    between atoms: N_8  and  C_13
REMARK    6  A    between atoms: N_9  and  C_19
REMARK    7  A    between atoms: N_10  and  C_26
REMARK    8  A    between atoms: C_12  and  C_18
REMARK    9  A    between atoms: C_26  and  C_27
REMARK   10  A    between atoms: C_26  and  C_28
REMARK   11  A    between atoms: C_27  and  C_29
REMARK                            x       y       z     vdW  Elec       q    Type
REMARK                         _______ _______ _______ _____ _____    ______ ____
ROOT
ATOM     12  C   UNL     1       1.872  -1.818  -0.852  0.00  0.00    +0.146 C 
ATOM     13  C   UNL     1      -0.504  -2.378  -0.146  0.00  0.00    +0.109 C 
ATOM     14  C   UNL     1       0.491  -1.266  -0.493  0.00  0.00    +0.069 C 
ATOM     15  C   UNL     1       0.039  -3.310   0.945  0.00  0.00    +0.163 C 
ATOM     16  C   UNL     1       2.409  -2.727   0.251  0.00  0.00    +0.078 C 
ATOM     17  C   UNL     1       1.429  -3.849   0.601  0.00  0.00    +0.148 C 
ENDROOT
BRANCH  13   8
ATOM      5  O   UNL     1      -2.696  -1.650  -1.858  0.00  0.00    -0.253 OA
ATOM      8  N   UNL     1      -1.765  -1.797   0.262  0.00  0.00    -0.294 N 
ATOM      9  N   UNL     1      -3.876  -0.933   0.008  0.00  0.00    -0.297 N 
ATOM     25  C   UNL     1      -2.772  -1.476  -0.643  0.00  0.00    +0.300 C 
ATOM     35  H   UNL     1      -1.892  -1.545   1.237  0.00  0.00    +0.151 HD
ATOM     39  H   UNL     1      -3.805  -0.766   1.007  0.00  0.00    +0.151 HD
BRANCH   9  19
ATOM     19  C   UNL     1      -5.072  -0.507  -0.685  0.00  0.00    +0.074 C 
ATOM     20  C   UNL     1      -6.316  -0.711   0.187  0.00  0.00    +0.022 C 
ATOM     21  C   UNL     1      -4.952   0.949  -1.149  0.00  0.00    +0.022 C 
ATOM     22  C   UNL     1      -6.387   0.284   1.346  0.00  0.00    +0.002 C 
ATOM     23  C   UNL     1      -5.025   1.940   0.012  0.00  0.00    +0.002 C 
ATOM     24  C   UNL     1      -6.276   1.725   0.858  0.00  0.00    +0.000 C 
ENDBRANCH   9  19
ENDBRANCH  13   8
BRANCH  12  18
ATOM      4  O   UNL     1       3.413  -0.581  -2.193  0.00  0.00    -0.273 OA
ATOM     10  N   UNL     1       2.993   0.128  -0.016  0.00  0.00    -0.301 N 
ATOM     18  C   UNL     1       2.836  -0.699  -1.115  0.00  0.00    +0.246 C 
ATOM     40  H   UNL     1       2.540  -0.107   0.861  0.00  0.00    +0.150 HD
BRANCH  10  26
ATOM     26  C   UNL     1       3.883   1.266  -0.004  0.00  0.00    +0.163 C 
BRANCH  26  28
ATOM      6  O   UNL     1       5.437  -0.154   1.211  0.00  0.00    -0.274 OA
ATOM     11  N   UNL     1       6.283   1.387  -0.267  0.00  0.00    -0.328 N 
ATOM     28  C   UNL     1       5.258   0.755   0.404  0.00  0.00    +0.231 C 
ATOM     41  H   UNL     1       7.250   1.130  -0.100  0.00  0.00    +0.145 HD
ATOM     42  H   UNL     1       6.120   2.134  -0.934  0.00  0.00    +0.145 HD
ENDBRANCH  26  28
BRANCH  26  27
ATOM     27  C   UNL     1       3.411   2.363   0.959  0.00  0.00    +0.067 C 
BRANCH  27  29
ATOM     29  C   UNL     1       2.045   2.890   0.627  0.00  0.00    -0.045 A 
ATOM     30  C   UNL     1       1.917   3.971  -0.237  0.00  0.00    +0.007 A 
ATOM     31  C   UNL     1       0.923   2.291   1.187  0.00  0.00    +0.007 A 
ATOM     32  C   UNL     1       0.648   4.461  -0.545  0.00  0.00    +0.045 A 
ATOM     33  C   UNL     1      -0.346   2.781   0.879  0.00  0.00    +0.045 A 
ATOM     34  C   UNL     1      -0.484   3.866   0.013  0.00  0.00    +0.117 A 
BRANCH  34   7
ATOM      7  O   UNL     1      -1.722   4.344  -0.289  0.00  0.00    -0.507 OA
ATOM     43  H   UNL     1      -2.388   3.813   0.181  0.00  0.00    +0.292 HD
ENDBRANCH  34   7
ENDBRANCH  27  29
ENDBRANCH  26  27
ENDBRANCH  10  26
ENDBRANCH  12  18
BRANCH  12   1
ATOM      1  O   UNL     1       1.814  -2.549  -2.071  0.00  0.00    -0.379 OA
ATOM     36  H   UNL     1       1.372  -1.996  -2.738  0.00  0.00    +0.211 HD
ENDBRANCH  12   1
BRANCH  15   2
ATOM      2  O   UNL     1      -0.838  -4.432   1.080  0.00  0.00    -0.387 OA
ATOM     37  H   UNL     1      -0.578  -4.916   1.882  0.00  0.00    +0.210 HD
ENDBRANCH  15   2
BRANCH  17   3
ATOM      3  O   UNL     1       1.931  -4.563   1.731  0.00  0.00    -0.389 OA
ATOM     38  H   UNL     1       1.390  -5.364   1.838  0.00  0.00    +0.210 HD
ENDBRANCH  17   3
TORSDOF 11
