REMARK  Name = 25314818
REMARK  7 active torsions:
REMARK  status: ('A' for Active; 'I' for Inactive)
REMARK    1  A    between atoms: O_3  and  C_11
REMARK    2  A    between atoms: O_5  and  C_28
REMARK    3  A    between atoms: O_5  and  C_33
REMARK    4  A    between atoms: N_6  and  C_10
REMARK    5  A    between atoms: N_7  and  C_12
REMARK    6  A    between atoms: N_8  and  C_24
REMARK    7  A    between atoms: N_9  and  C_21
REMARK                            x       y       z     vdW  Elec       q    Type
REMARK                         _______ _______ _______ _____ _____    ______ ____
ROOT
ATOM      1  O   UNL     1       1.403  -2.739  -1.629  0.00  0.00    -0.342 OA
ATOM      2  O   UNL     1       1.557  -4.645  -0.316  0.00  0.00    -0.347 OA
ATOM     10  C   UNL     1       0.542  -2.660   0.623  0.00  0.00    +0.144 C 
ATOM     11  C   UNL     1       1.914  -2.183   1.151  0.00  0.00    +0.159 C 
ATOM     12  C   UNL     1       2.947  -1.921   0.033  0.00  0.00    +0.136 C 
ATOM     13  C   UNL     1       2.761  -2.840  -1.192  0.00  0.00    +0.170 C 
ATOM     14  C   UNL     1       0.720  -3.522  -0.641  0.00  0.00    +0.270 C 
ATOM     15  C   UNL     1       2.840  -4.322  -0.874  0.00  0.00    +0.196 C 
ENDROOT
BRANCH  12   7
ATOM      4  O   UNL     1       4.409   0.275   1.175  0.00  0.00    -0.253 OA
ATOM      7  N   UNL     1       2.892  -0.535  -0.382  0.00  0.00    -0.291 N 
ATOM      9  N   UNL     1       3.402   1.702  -0.355  0.00  0.00    -0.297 N 
ATOM     20  C   UNL     1       3.639   0.463   0.234  0.00  0.00    +0.300 C 
ATOM     34  H   UNL     1       2.224  -0.271  -1.100  0.00  0.00    +0.151 HD
ATOM     36  H   UNL     1       2.692   1.756  -1.078  0.00  0.00    +0.151 HD
BRANCH   9  21
ATOM     21  C   UNL     1       4.045   2.921   0.082  0.00  0.00    +0.074 C 
ATOM     22  C   UNL     1       4.261   3.881  -1.093  0.00  0.00    +0.022 C 
ATOM     23  C   UNL     1       3.248   3.591   1.207  0.00  0.00    +0.022 C 
ATOM     25  C   UNL     1       2.955   4.505  -1.586  0.00  0.00    +0.002 C 
ATOM     26  C   UNL     1       1.945   4.215   0.710  0.00  0.00    +0.002 C 
ATOM     27  C   UNL     1       2.187   5.175  -0.451  0.00  0.00    +0.000 C 
ENDBRANCH   9  21
ENDBRANCH  12   7
BRANCH  10   6
ATOM      6  N   UNL     1      -0.310  -1.509   0.320  0.00  0.00    -0.290 NA
ATOM      8  N   UNL     1      -2.748  -0.023   0.224  0.00  0.00    -0.325 N 
ATOM     16  C   UNL     1      -0.900  -0.968   1.551  0.00  0.00    +0.104 C 
ATOM     17  C   UNL     1      -1.373  -1.887  -0.619  0.00  0.00    +0.104 C 
ATOM     18  C   UNL     1      -1.749   0.271   1.256  0.00  0.00    +0.120 C 
ATOM     19  C   UNL     1      -2.237  -0.679  -0.987  0.00  0.00    +0.120 C 
BRANCH   8  24
ATOM     24  C   UNL     1      -3.881   0.789   0.103  0.00  0.00    +0.072 A 
ATOM     28  C   UNL     1      -5.086   0.262  -0.362  0.00  0.00    +0.141 A 
ATOM     29  C   UNL     1      -3.799   2.136   0.455  0.00  0.00    +0.027 A 
ATOM     30  C   UNL     1      -6.208   1.082  -0.476  0.00  0.00    +0.047 A 
ATOM     31  C   UNL     1      -4.921   2.956   0.342  0.00  0.00    +0.002 A 
ATOM     32  C   UNL     1      -6.126   2.430  -0.124  0.00  0.00    +0.004 A 
BRANCH  28   5
ATOM      5  O   UNL     1      -5.187  -1.051  -0.712  0.00  0.00    -0.493 OA
ATOM     33  C   UNL     1      -5.568  -1.967   0.313  0.00  0.00    +0.277 C 
ENDBRANCH  28   5
ENDBRANCH   8  24
ENDBRANCH  10   6
BRANCH  11   3
ATOM      3  O   UNL     1       2.426  -3.202   2.021  0.00  0.00    -0.388 OA
ATOM     35  H   UNL     1       3.259  -2.873   2.400  0.00  0.00    +0.210 HD
ENDBRANCH  11   3
TORSDOF 6
