REMARK  Name = 75536931
REMARK  5 active torsions:
REMARK  status: ('A' for Active; 'I' for Inactive)
REMARK    1  A    between atoms: O_5  and  C_10
REMARK    2  A    between atoms: O_5  and  C_19
REMARK    3  A    between atoms: N_6  and  C_12
REMARK    4  A    between atoms: C_12  and  C_15
REMARK    5  A    between atoms: C_18  and  C_22
REMARK                            x       y       z     vdW  Elec       q    Type
REMARK                         _______ _______ _______ _____ _____    ______ ____
ROOT
ATOM      4  O   UNL     1       2.895   3.371  -0.526  0.00  0.00    -0.375 OA
ATOM      6  N   UNL     1       0.205   2.205   0.535  0.00  0.00    -0.292 NA
ATOM      9  C   UNL     1       0.852   0.952   0.131  0.00  0.00    +0.131 C 
ATOM     10  C   UNL     1       2.284   1.031  -0.422  0.00  0.00    +0.215 C 
ATOM     11  C   UNL     1       1.104   3.173   1.164  0.00  0.00    +0.113 C 
ATOM     13  C   UNL     1       2.547   2.237  -1.314  0.00  0.00    +0.205 C 
ATOM     14  C   UNL     1       1.792   4.019   0.092  0.00  0.00    +0.175 C 
ENDROOT
BRANCH  10   5
ATOM      5  O   UNL     1       2.529  -0.148  -1.191  0.00  0.00    -0.468 OA
BRANCH   5  19
ATOM      7  N   UNL     1       3.208  -1.105   0.816  0.00  0.00    -0.219 NA
ATOM      8  N   UNL     1       3.743  -3.500  -0.541  0.00  0.00    -0.256 NA
ATOM     19  C   UNL     1       3.008  -1.233  -0.510  0.00  0.00    +0.234 A 
ATOM     23  C   UNL     1       3.270  -2.410  -1.177  0.00  0.00    +0.177 A 
ATOM     24  C   UNL     1       3.680  -2.195   1.452  0.00  0.00    +0.134 A 
ATOM     25  C   UNL     1       3.943  -3.371   0.786  0.00  0.00    +0.130 A 
ENDBRANCH   5  19
ENDBRANCH  10   5
BRANCH   6  12
ATOM     12  C   UNL     1      -0.955   1.921   1.382  0.00  0.00    +0.119 C 
BRANCH  12  15
ATOM     15  C   UNL     1      -2.095   1.336   0.593  0.00  0.00    -0.033 A 
ATOM     16  C   UNL     1      -2.368  -0.030   0.669  0.00  0.00    +0.017 A 
ATOM     17  C   UNL     1      -2.880   2.160  -0.214  0.00  0.00    +0.005 A 
ATOM     18  C   UNL     1      -3.425  -0.572  -0.063  0.00  0.00    +0.055 A 
ATOM     20  C   UNL     1      -3.937   1.619  -0.945  0.00  0.00    +0.001 A 
ATOM     21  C   UNL     1      -4.210   0.253  -0.869  0.00  0.00    +0.012 A 
BRANCH  18  22
ATOM      1  F   UNL     1      -2.678  -2.821  -0.389  0.00  0.00    -0.166 F 
ATOM      2  F   UNL     1      -4.017  -2.462   1.279  0.00  0.00    -0.166 F 
ATOM      3  F   UNL     1      -4.779  -2.399  -0.756  0.00  0.00    -0.166 F 
ATOM     22  C   UNL     1      -3.717  -2.032   0.018  0.00  0.00    +0.417 C 
ENDBRANCH  18  22
ENDBRANCH  12  15
ENDBRANCH   6  12
TORSDOF 5
