REMARK  Name = 75536900
REMARK  4 active torsions:
REMARK  status: ('A' for Active; 'I' for Inactive)
REMARK    1  A    between atoms: S_1  and  N_7
REMARK    2  A    between atoms: S_1  and  C_15
REMARK    3  A    between atoms: O_4  and  C_11
REMARK    4  A    between atoms: O_4  and  C_18
REMARK                            x       y       z     vdW  Elec       q    Type
REMARK                         _______ _______ _______ _____ _____    ______ ____
ROOT
ATOM      3  O   UNL     1      -0.884  -2.759   1.107  0.00  0.00    -0.375 OA
ATOM      7  N   UNL     1       0.568  -0.848  -0.573  0.00  0.00    -0.171 NA
ATOM     10  C   UNL     1      -0.133  -0.046   0.477  0.00  0.00    +0.156 C 
ATOM     11  C   UNL     1      -1.598  -0.463   0.589  0.00  0.00    +0.216 C 
ATOM     12  C   UNL     1       1.191  -2.085  -0.011  0.00  0.00    +0.137 C 
ATOM     13  C   UNL     1      -1.884  -1.959   0.485  0.00  0.00    +0.205 C 
ATOM     14  C   UNL     1       0.140  -3.165   0.199  0.00  0.00    +0.177 C 
ENDROOT
BRANCH   7   1
ATOM      1  S   UNL     1       1.545   0.044  -1.663  0.00  0.00    +0.061 S 
ATOM      5  O   UNL     1       0.875   1.284  -1.984  0.00  0.00    -0.153 OA
ATOM      6  O   UNL     1       2.014  -0.846  -2.701  0.00  0.00    -0.153 OA
BRANCH   1  15
ATOM      2  F   UNL     1       6.101   1.302   1.858  0.00  0.00    -0.205 F 
ATOM     15  C   UNL     1       2.910   0.420  -0.609  0.00  0.00    +0.106 A 
ATOM     16  C   UNL     1       3.997  -0.451  -0.537  0.00  0.00    +0.031 A 
ATOM     17  C   UNL     1       2.901   1.590   0.151  0.00  0.00    +0.031 A 
ATOM     19  C   UNL     1       5.075  -0.153   0.296  0.00  0.00    +0.040 A 
ATOM     20  C   UNL     1       3.979   1.887   0.985  0.00  0.00    +0.040 A 
ATOM     21  C   UNL     1       5.066   1.016   1.057  0.00  0.00    +0.124 A 
ENDBRANCH   1  15
ENDBRANCH   7   1
BRANCH  11   4
ATOM      4  O   UNL     1      -2.368   0.196  -0.417  0.00  0.00    -0.468 OA
BRANCH   4  18
ATOM      8  N   UNL     1      -4.091   0.191   1.145  0.00  0.00    -0.219 NA
ATOM      9  N   UNL     1      -5.741   1.488  -0.715  0.00  0.00    -0.256 NA
ATOM     18  C   UNL     1      -3.656   0.518  -0.088  0.00  0.00    +0.234 A 
ATOM     22  C   UNL     1      -4.467   1.155  -1.002  0.00  0.00    +0.177 A 
ATOM     23  C   UNL     1      -5.365   0.523   1.432  0.00  0.00    +0.134 A 
ATOM     24  C   UNL     1      -6.176   1.161   0.519  0.00  0.00    +0.130 A 
ENDBRANCH   4  18
ENDBRANCH  11   4
TORSDOF 4
