REMARK  Name = 45784189
REMARK  4 active torsions:
REMARK  status: ('A' for Active; 'I' for Inactive)
REMARK    1  A    between atoms: N_3  and  C_9
REMARK    2  A    between atoms: C_5  and  C_10
REMARK    3  A    between atoms: C_9  and  C_11
REMARK    4  A    between atoms: C_18  and  C_23
REMARK                            x       y       z     vdW  Elec       q    Type
REMARK                         _______ _______ _______ _____ _____    ______ ____
ROOT
ATOM      3  N   UNL     1      -1.829  -0.147  -0.019  0.00  0.00    -0.297 NA
ATOM      5  C   UNL     1       0.353  -0.722   0.621  0.00  0.00    +0.090 C 
ATOM      6  C   UNL     1      -0.309   0.107   1.736  0.00  0.00    +0.029 C 
ATOM      7  C   UNL     1      -0.535  -0.496  -0.610  0.00  0.00    +0.097 C 
ATOM      8  C   UNL     1      -1.508   0.772   1.073  0.00  0.00    +0.085 C 
ENDROOT
BRANCH   5  10
ATOM      2  O   UNL     1       2.685  -1.424   0.535  0.00  0.00    -0.439 OA
ATOM      4  N   UNL     1       2.336   0.751   0.003  0.00  0.00    -0.213 NA
ATOM     10  C   UNL     1       1.807  -0.396   0.366  0.00  0.00    +0.201 A 
ATOM     12  C   UNL     1       3.678   0.469  -0.078  0.00  0.00    +0.110 A 
ATOM     13  C   UNL     1       3.896  -0.862   0.246  0.00  0.00    +0.155 A 
ATOM     16  C   UNL     1       4.777   1.272  -0.417  0.00  0.00    +0.035 A 
ATOM     17  C   UNL     1       5.140  -1.480   0.264  0.00  0.00    +0.049 A 
ATOM     18  C   UNL     1       6.050   0.684  -0.410  0.00  0.00    -0.048 A 
ATOM     19  C   UNL     1       6.225  -0.665  -0.076  0.00  0.00    +0.007 A 
ATOM     23  C   UNL     1       7.240   1.513  -0.766  0.00  0.00    +0.044 C 
ENDBRANCH   5  10
BRANCH   3   9
ATOM      9  C   UNL     1      -2.741   0.441  -0.989  0.00  0.00    +0.122 C 
BRANCH   9  11
ATOM      1  F   UNL     1      -4.306  -1.921  -1.030  0.00  0.00    -0.205 F 
ATOM     11  C   UNL     1      -4.170   0.393  -0.515  0.00  0.00    +0.002 A 
ATOM     14  C   UNL     1      -4.883  -0.805  -0.563  0.00  0.00    +0.128 A 
ATOM     15  C   UNL     1      -4.779   1.548  -0.027  0.00  0.00    +0.008 A 
ATOM     20  C   UNL     1      -6.206  -0.847  -0.123  0.00  0.00    +0.038 A 
ATOM     21  C   UNL     1      -6.102   1.506   0.413  0.00  0.00    +0.000 A 
ATOM     22  C   UNL     1      -6.816   0.309   0.365  0.00  0.00    +0.003 A 
ENDBRANCH   9  11
ENDBRANCH   3   9
TORSDOF 3
