REMARK  Name = 7161677
REMARK  8 active torsions:
REMARK  status: ('A' for Active; 'I' for Inactive)
REMARK    1  A    between atoms: S_1  and  N_8
REMARK    2  A    between atoms: S_1  and  C_16
REMARK    3  A    between atoms: O_2  and  C_14
REMARK    4  A    between atoms: O_2  and  C_18
REMARK    5  A    between atoms: O_7  and  C_17
REMARK    6  A    between atoms: O_7  and  C_19
REMARK    7  A    between atoms: C_10  and  C_14
REMARK    8  A    between atoms: C_15  and  C_17
REMARK                            x       y       z     vdW  Elec       q    Type
REMARK                         _______ _______ _______ _____ _____    ______ ____
ROOT
ATOM      6  O   UNL     1       2.993  -1.024   1.600  0.00  0.00    -0.273 OA
ATOM      8  N   UNL     1      -1.437   0.655  -0.042  0.00  0.00    -0.165 NA
ATOM      9  N   UNL     1       1.281   0.352   0.834  0.00  0.00    -0.296 N 
ATOM     10  C   UNL     1      -1.022  -0.587   0.669  0.00  0.00    +0.205 C 
ATOM     11  C   UNL     1       0.231  -0.402   1.520  0.00  0.00    +0.140 C 
ATOM     12  C   UNL     1      -0.619   1.855   0.272  0.00  0.00    +0.129 C 
ATOM     13  C   UNL     1       0.853   1.524   0.065  0.00  0.00    +0.125 C 
ATOM     15  C   UNL     1       2.615  -0.042   0.958  0.00  0.00    +0.241 C 
ENDROOT
BRANCH   8   1
ATOM      1  S   UNL     1      -3.119   0.915  -0.217  0.00  0.00    +0.030 S 
ATOM      3  O   UNL     1      -3.777  -0.366  -0.347  0.00  0.00    -0.158 OA
ATOM      4  O   UNL     1      -3.329   1.979  -1.175  0.00  0.00    -0.158 OA
ATOM     16  C   UNL     1      -3.477   1.554   1.399  0.00  0.00    +0.215 C 
ENDBRANCH   8   1
BRANCH  10  14
ATOM      5  O   UNL     1      -0.902  -1.327  -1.616  0.00  0.00    -0.249 OA
ATOM     14  C   UNL     1      -0.793  -1.581  -0.424  0.00  0.00    +0.327 C 
BRANCH  14   2
ATOM      2  O   UNL     1      -0.453  -2.785   0.119  0.00  0.00    -0.467 OA
ATOM     18  C   UNL     1      -0.205  -3.835  -0.821  0.00  0.00    +0.280 C 
ENDBRANCH  14   2
ENDBRANCH  10  14
BRANCH  15  17
ATOM     17  C   UNL     1       3.629   0.820   0.245  0.00  0.00    +0.255 C 
BRANCH  17   7
ATOM      7  O   UNL     1       3.318   0.757  -1.126  0.00  0.00    -0.374 OA
ATOM     19  C   UNL     1       4.213   1.538  -1.915  0.00  0.00    +0.194 C 
ENDBRANCH  17   7
ENDBRANCH  15  17
TORSDOF 5
