REMARK  Name = 56774898
REMARK  6 active torsions:
REMARK  status: ('A' for Active; 'I' for Inactive)
REMARK    1  A    between atoms: O_2  and  C_10
REMARK    2  A    between atoms: N_5  and  C_15
REMARK    3  A    between atoms: N_6  and  C_20
REMARK    4  A    between atoms: C_9  and  C_10
REMARK    5  A    between atoms: C_10  and  C_12
REMARK    6  A    between atoms: C_21  and  C_22
REMARK                            x       y       z     vdW  Elec       q    Type
REMARK                         _______ _______ _______ _____ _____    ______ ____
ROOT
ATOM     12  C   UNL     1      -1.486   0.465   0.539  0.00  0.00    -0.017 A 
ATOM     16  C   UNL     1      -0.713  -0.565   1.075  0.00  0.00    +0.008 A 
ATOM     17  C   UNL     1      -0.877   1.488  -0.188  0.00  0.00    +0.008 A 
ATOM     18  C   UNL     1       0.668  -0.572   0.885  0.00  0.00    +0.023 A 
ATOM     19  C   UNL     1       0.504   1.481  -0.379  0.00  0.00    +0.023 A 
ATOM     20  C   UNL     1       1.277   0.451   0.158  0.00  0.00    +0.034 A 
ENDROOT
BRANCH  20   6
ATOM      4  O   UNL     1       3.352  -1.503   1.089  0.00  0.00    -0.268 OA
ATOM      6  N   UNL     1       2.659   0.444  -0.033  0.00  0.00    -0.280 N 
ATOM     21  C   UNL     1       3.589  -0.498   0.426  0.00  0.00    +0.268 C 
ATOM     27  H   UNL     1       3.028   1.222  -0.577  0.00  0.00    +0.155 HD
BRANCH  21  22
ATOM      7  N   UNL     1       5.231   0.851  -0.716  0.00  0.00    -0.247 NA
ATOM      8  N   UNL     1       7.299  -0.874   0.066  0.00  0.00    -0.259 NA
ATOM     22  C   UNL     1       5.000  -0.245   0.034  0.00  0.00    +0.144 A 
ATOM     23  C   UNL     1       6.016  -1.092   0.417  0.00  0.00    +0.143 A 
ATOM     24  C   UNL     1       6.513   1.069  -1.068  0.00  0.00    +0.131 A 
ATOM     25  C   UNL     1       7.529   0.222  -0.684  0.00  0.00    +0.130 A 
ENDBRANCH  21  22
ENDBRANCH  20   6
BRANCH  12  10
ATOM     10  C   UNL     1      -2.979   0.472   0.746  0.00  0.00    +0.167 C 
BRANCH  10   9
ATOM      1  O   UNL     1      -3.835  -1.924  -0.714  0.00  0.00    -0.369 OA
ATOM      3  O   UNL     1      -7.120  -0.693   0.145  0.00  0.00    -0.273 OA
ATOM      5  N   UNL     1      -5.188   0.505  -0.353  0.00  0.00    -0.295 N 
ATOM      9  C   UNL     1      -3.738   0.460  -0.584  0.00  0.00    +0.134 C 
ATOM     11  C   UNL     1      -3.380  -0.770  -1.409  0.00  0.00    +0.185 C 
ATOM     13  C   UNL     1      -5.942  -0.659  -0.217  0.00  0.00    +0.241 C 
ATOM     14  C   UNL     1      -5.243  -1.946  -0.639  0.00  0.00    +0.255 C 
ATOM     15  C   UNL     1      -5.787   1.806  -0.086  0.00  0.00    +0.132 C 
ENDBRANCH  10   9
BRANCH  10   2
ATOM      2  O   UNL     1      -3.350   1.629   1.489  0.00  0.00    -0.385 OA
ATOM     26  H   UNL     1      -3.186   2.416   0.942  0.00  0.00    +0.210 HD
ENDBRANCH  10   2
ENDBRANCH  12  10
TORSDOF 5
