REMARK  Name = 28961449
REMARK  14 active torsions:
REMARK  status: ('A' for Active; 'I' for Inactive)
REMARK    1  A    between atoms: O_5  and  C_13
REMARK    2  A    between atoms: O_6  and  C_16
REMARK    3  A    between atoms: N_8  and  C_11
REMARK    4  A    between atoms: N_8  and  C_17
REMARK    5  A    between atoms: N_8  and  C_18
REMARK    6  A    between atoms: N_9  and  C_15
REMARK    7  A    between atoms: N_10  and  C_19
REMARK    8  A    between atoms: N_10  and  C_21
REMARK    9  A    between atoms: N_10  and  C_22
REMARK   10  A    between atoms: C_12  and  C_15
REMARK   11  A    between atoms: C_14  and  C_16
REMARK   12  A    between atoms: C_17  and  C_19
REMARK   13  A    between atoms: C_20  and  C_23
REMARK   14  A    between atoms: C_28  and  C_29
REMARK                            x       y       z     vdW  Elec       q    Type
REMARK                         _______ _______ _______ _____ _____    ______ ____
ROOT
ATOM      4  O   UNL     1      -1.389  -2.260  -0.644  0.00  0.00    -0.365 OA
ATOM     11  C   UNL     1      -3.408  -1.006  -0.507  0.00  0.00    +0.118 C 
ATOM     12  C   UNL     1      -1.877  -0.910  -0.475  0.00  0.00    +0.155 C 
ATOM     13  C   UNL     1      -3.672  -2.429  -0.041  0.00  0.00    +0.165 C 
ATOM     14  C   UNL     1      -2.511  -3.162  -0.703  0.00  0.00    +0.174 C 
ENDROOT
BRANCH  13   5
ATOM      5  O   UNL     1      -3.585  -2.539   1.374  0.00  0.00    -0.388 OA
ATOM     30  H   UNL     1      -3.865  -3.438   1.617  0.00  0.00    +0.210 HD
ENDBRANCH  13   5
BRANCH  11   8
ATOM      8  N   UNL     1      -4.130   0.026   0.215  0.00  0.00    -0.296 NA
ATOM     18  C   UNL     1      -5.503  -0.401   0.502  0.00  0.00    +0.105 C 
BRANCH   8  17
ATOM     17  C   UNL     1      -4.143   1.282  -0.543  0.00  0.00    +0.100 C 
BRANCH  17  19
ATOM     19  C   UNL     1      -4.472   2.451   0.381  0.00  0.00    +0.099 C 
BRANCH  19  10
ATOM     10  N   UNL     1      -4.467   3.701  -0.370  0.00  0.00    -0.307 NA
ATOM     21  C   UNL     1      -3.096   4.161  -0.596  0.00  0.00    +0.104 C 
ATOM     22  C   UNL     1      -5.238   4.728   0.335  0.00  0.00    +0.104 C 
ENDBRANCH  19  10
ENDBRANCH  17  19
ENDBRANCH   8  17
ENDBRANCH  11   8
BRANCH  12  15
ATOM     15  C   UNL     1      -1.252  -0.360   0.802  0.00  0.00    +0.137 C 
BRANCH  15   9
ATOM      7  O   UNL     1       0.349   1.812  -0.180  0.00  0.00    -0.270 OA
ATOM      9  N   UNL     1       0.176  -0.327   0.705  0.00  0.00    -0.309 N 
ATOM     20  C   UNL     1       0.875   0.774   0.214  0.00  0.00    +0.244 C 
ATOM     31  H   UNL     1       0.668  -1.180   0.948  0.00  0.00    +0.149 HD
BRANCH  20  23
ATOM     23  C   UNL     1       2.353   0.641   0.152  0.00  0.00    +0.037 A 
ATOM     24  C   UNL     1       3.081   1.373  -0.786  0.00  0.00    +0.013 A 
ATOM     25  C   UNL     1       3.014  -0.215   1.033  0.00  0.00    +0.013 A 
ATOM     26  C   UNL     1       4.469   1.248  -0.844  0.00  0.00    +0.013 A 
ATOM     27  C   UNL     1       4.402  -0.341   0.975  0.00  0.00    +0.013 A 
ATOM     28  C   UNL     1       5.129   0.391   0.036  0.00  0.00    +0.055 A 
BRANCH  28  29
ATOM      1  F   UNL     1       7.242   0.609   1.136  0.00  0.00    -0.166 F 
ATOM      2  F   UNL     1       7.171   1.040  -0.995  0.00  0.00    -0.166 F 
ATOM      3  F   UNL     1       7.038  -1.013  -0.290  0.00  0.00    -0.166 F 
ATOM     29  C   UNL     1       6.614   0.258  -0.025  0.00  0.00    +0.417 C 
ENDBRANCH  28  29
ENDBRANCH  20  23
ENDBRANCH  15   9
ENDBRANCH  12  15
BRANCH  14  16
ATOM     16  C   UNL     1      -2.124  -4.484  -0.066  0.00  0.00    +0.190 C 
BRANCH  16   6
ATOM      6  O   UNL     1      -1.045  -5.046  -0.794  0.00  0.00    -0.392 OA
ATOM     32  H   UNL     1      -0.821  -5.891  -0.369  0.00  0.00    +0.210 HD
ENDBRANCH  16   6
ENDBRANCH  14  16
TORSDOF 11
