REMARK  Name = 45784266
REMARK  6 active torsions:
REMARK  status: ('A' for Active; 'I' for Inactive)
REMARK    1  A    between atoms: O_4  and  C_17
REMARK    2  A    between atoms: O_4  and  C_27
REMARK    3  A    between atoms: N_5  and  C_13
REMARK    4  A    between atoms: C_8  and  C_12
REMARK    5  A    between atoms: C_13  and  C_14
REMARK    6  A    between atoms: C_21  and  C_26
REMARK                            x       y       z     vdW  Elec       q    Type
REMARK                         _______ _______ _______ _____ _____    ______ ____
ROOT
ATOM      5  N   UNL     1      -2.578   0.065   0.036  0.00  0.00    -0.297 NA
ATOM      8  C   UNL     1      -0.382  -0.314   0.766  0.00  0.00    +0.070 C 
ATOM      9  C   UNL     1      -1.057   0.723   1.681  0.00  0.00    +0.028 C 
ATOM     10  C   UNL     1      -1.280  -0.378  -0.477  0.00  0.00    +0.096 C 
ATOM     11  C   UNL     1      -2.273   1.205   0.900  0.00  0.00    +0.085 C 
ENDROOT
BRANCH   8  12
ATOM      6  N   UNL     1       2.058  -0.901   0.764  0.00  0.00    -0.342 N 
ATOM      7  N   UNL     1       1.530   1.043  -0.175  0.00  0.00    -0.232 NA
ATOM     12  C   UNL     1       1.063  -0.023   0.435  0.00  0.00    +0.113 A 
ATOM     15  C   UNL     1       3.247  -0.365   0.338  0.00  0.00    +0.067 A 
ATOM     16  C   UNL     1       2.891   0.848  -0.245  0.00  0.00    +0.089 A 
ATOM     18  C   UNL     1       4.562  -0.824   0.410  0.00  0.00    +0.040 A 
ATOM     20  C   UNL     1       3.894   1.665  -0.793  0.00  0.00    +0.030 A 
ATOM     21  C   UNL     1       5.548   0.002  -0.141  0.00  0.00    +0.057 A 
ATOM     22  C   UNL     1       5.222   1.225  -0.732  0.00  0.00    +0.014 A 
ATOM     28  H   UNL     1       1.943  -1.787   1.237  0.00  0.00    +0.167 HD
BRANCH  21  26
ATOM      1  F   UNL     1       7.818   0.472  -0.670  0.00  0.00    -0.166 F 
ATOM      2  F   UNL     1       7.448  -0.624   1.171  0.00  0.00    -0.166 F 
ATOM      3  F   UNL     1       7.206  -1.613  -0.744  0.00  0.00    -0.166 F 
ATOM     26  C   UNL     1       6.976  -0.434  -0.096  0.00  0.00    +0.417 C 
ENDBRANCH  21  26
ENDBRANCH   8  12
BRANCH   5  13
ATOM     13  C   UNL     1      -3.507   0.411  -1.030  0.00  0.00    +0.123 C 
BRANCH  13  14
ATOM     14  C   UNL     1      -4.932   0.438  -0.544  0.00  0.00    +0.008 A 
ATOM     17  C   UNL     1      -5.632  -0.747  -0.323  0.00  0.00    +0.124 A 
ATOM     19  C   UNL     1      -5.551   1.667  -0.317  0.00  0.00    +0.008 A 
ATOM     23  C   UNL     1      -6.952  -0.704   0.127  0.00  0.00    +0.046 A 
ATOM     24  C   UNL     1      -6.871   1.711   0.132  0.00  0.00    +0.001 A 
ATOM     25  C   UNL     1      -7.572   0.525   0.354  0.00  0.00    +0.004 A 
BRANCH  17   4
ATOM      4  O   UNL     1      -5.043  -1.956  -0.541  0.00  0.00    -0.495 OA
ATOM     27  C   UNL     1      -5.833  -3.117  -0.288  0.00  0.00    +0.277 C 
ENDBRANCH  17   4
ENDBRANCH  13  14
ENDBRANCH   5  13
TORSDOF 5
