REMARK  Name = 11912136
REMARK  7 active torsions:
REMARK  status: ('A' for Active; 'I' for Inactive)
REMARK    1  A    between atoms: S_1  and  N_6
REMARK    2  A    between atoms: S_1  and  C_24
REMARK    3  A    between atoms: N_7  and  C_17
REMARK    4  A    between atoms: C_10  and  C_13
REMARK    5  A    between atoms: C_13  and  C_17
REMARK    6  A    between atoms: C_17  and  C_23
REMARK    7  A    between atoms: C_18  and  C_21
REMARK                            x       y       z     vdW  Elec       q    Type
REMARK                         _______ _______ _______ _____ _____    ______ ____
ROOT
ATOM      2  O   UNL     1       0.536  -0.311   1.319  0.00  0.00    -0.274 OA
ATOM      7  N   UNL     1       1.318   0.648  -0.652  0.00  0.00    -0.303 N 
ATOM     21  C   UNL     1       0.574  -0.250   0.093  0.00  0.00    +0.234 C 
ATOM     30  H   UNL     1       1.251   0.637  -1.665  0.00  0.00    +0.149 HD
ENDROOT
BRANCH  21  18
ATOM      6  N   UNL     1      -1.683  -0.955  -0.460  0.00  0.00    -0.162 NA
ATOM      8  N   UNL     1      -0.671  -3.565  -1.166  0.00  0.00    -0.313 NA
ATOM     18  C   UNL     1      -0.235  -1.163  -0.766  0.00  0.00    +0.179 C 
ATOM     19  C   UNL     1       0.166  -2.605  -0.447  0.00  0.00    +0.111 C 
ATOM     20  C   UNL     1      -2.536  -1.961  -1.168  0.00  0.00    +0.125 C 
ATOM     22  C   UNL     1      -2.079  -3.372  -0.818  0.00  0.00    +0.098 C 
ATOM     31  H   UNL     1      -0.389  -4.512  -0.916  0.00  0.00    +0.122 HD
BRANCH   6   1
ATOM      1  S   UNL     1      -2.280   0.658  -0.568  0.00  0.00    +0.062 S 
ATOM      3  O   UNL     1      -2.499   0.977  -1.959  0.00  0.00    -0.153 OA
ATOM      4  O   UNL     1      -1.474   1.504   0.281  0.00  0.00    -0.153 OA
BRANCH   1  24
ATOM     24  C   UNL     1      -3.853   0.446   0.199  0.00  0.00    +0.106 A 
ATOM     25  C   UNL     1      -5.018   0.525  -0.564  0.00  0.00    +0.028 A 
ATOM     26  C   UNL     1      -3.933   0.200   1.570  0.00  0.00    +0.028 A 
ATOM     27  C   UNL     1      -6.263   0.358   0.043  0.00  0.00    +0.002 A 
ATOM     28  C   UNL     1      -5.178   0.033   2.177  0.00  0.00    +0.002 A 
ATOM     29  C   UNL     1      -6.343   0.112   1.414  0.00  0.00    +0.000 A 
ENDBRANCH   1  24
ENDBRANCH   6   1
ENDBRANCH  21  18
BRANCH   7  17
ATOM     17  C   UNL     1       2.169   1.655  -0.058  0.00  0.00    +0.159 C 
BRANCH  17  23
ATOM      5  O   UNL     1       1.096   3.293  -1.497  0.00  0.00    -0.274 OA
ATOM      9  N   UNL     1       1.809   3.961   0.582  0.00  0.00    -0.328 N 
ATOM     23  C   UNL     1       1.622   3.030  -0.418  0.00  0.00    +0.231 C 
ATOM     32  H   UNL     1       1.497   4.919   0.465  0.00  0.00    +0.145 HD
ATOM     33  H   UNL     1       2.263   3.735   1.462  0.00  0.00    +0.145 HD
ENDBRANCH  17  23
BRANCH  17  13
ATOM     13  C   UNL     1       3.638   1.478  -0.453  0.00  0.00    +0.035 C 
BRANCH  13  10
ATOM     10  C   UNL     1       4.210   0.097  -0.137  0.00  0.00    -0.009 C 
ATOM     11  C   UNL     1       4.096  -0.206   1.363  0.00  0.00    +0.003 C 
ATOM     12  C   UNL     1       5.668  -0.006  -0.606  0.00  0.00    +0.003 C 
ATOM     14  C   UNL     1       4.710  -1.560   1.712  0.00  0.00    +0.000 C 
ATOM     15  C   UNL     1       6.279  -1.360  -0.253  0.00  0.00    +0.000 C 
ATOM     16  C   UNL     1       6.155  -1.662   1.237  0.00  0.00    +0.000 C 
ENDBRANCH  13  10
ENDBRANCH  17  13
ENDBRANCH   7  17
TORSDOF 7
