REMARK  Name = 11913359
REMARK  5 active torsions:
REMARK  status: ('A' for Active; 'I' for Inactive)
REMARK    1  A    between atoms: N_5  and  C_12
REMARK    2  A    between atoms: N_6  and  C_13
REMARK    3  A    between atoms: N_7  and  C_18
REMARK    4  A    between atoms: C_18  and  C_22
REMARK    5  A    between atoms: C_19  and  C_23
REMARK                            x       y       z     vdW  Elec       q    Type
REMARK                         _______ _______ _______ _____ _____    ______ ____
ROOT
ATOM      2  O   UNL     1      -0.830   3.216  -1.598  0.00  0.00    -0.370 OA
ATOM      3  O   UNL     1       0.542   2.406   1.085  0.00  0.00    -0.370 OA
ATOM     10  C   UNL     1       0.307   1.709  -0.150  0.00  0.00    +0.171 C 
ATOM     11  C   UNL     1      -1.051   2.148  -0.663  0.00  0.00    +0.171 C 
ATOM     12  C   UNL     1       1.273   2.181  -1.211  0.00  0.00    +0.130 C 
ATOM     13  C   UNL     1      -1.760   2.665   0.568  0.00  0.00    +0.131 C 
ATOM     14  C   UNL     1       0.582   3.413  -1.766  0.00  0.00    +0.185 C 
ATOM     15  C   UNL     1      -0.611   3.200   1.404  0.00  0.00    +0.185 C 
ENDROOT
BRANCH  12   5
ATOM      5  N   UNL     1       1.406   1.175  -2.242  0.00  0.00    -0.306 N 
ATOM      8  N   UNL     1       3.058   0.012  -1.048  0.00  0.00    -0.214 NA
ATOM      9  N   UNL     1       2.307  -0.767  -3.201  0.00  0.00    -0.223 NA
ATOM     16  C   UNL     1       2.283   0.108  -2.162  0.00  0.00    +0.216 A 
ATOM     19  C   UNL     1       3.901  -1.040  -1.003  0.00  0.00    +0.076 A 
ATOM     20  C   UNL     1       3.174  -1.796  -3.090  0.00  0.00    +0.116 A 
ATOM     21  C   UNL     1       4.003  -1.985  -2.004  0.00  0.00    +0.048 A 
ATOM     34  H   UNL     1       0.797   1.208  -3.052  0.00  0.00    +0.149 HD
BRANCH  19  23
ATOM      1  F   UNL     1       4.556  -0.221   3.711  0.00  0.00    -0.205 F 
ATOM     23  C   UNL     1       4.713  -1.124   0.188  0.00  0.00    +0.003 A 
ATOM     26  C   UNL     1       4.234  -0.622   1.400  0.00  0.00    +0.048 A 
ATOM     27  C   UNL     1       5.981  -1.706   0.132  0.00  0.00    +0.010 A 
ATOM     30  C   UNL     1       5.018  -0.703   2.550  0.00  0.00    +0.124 A 
ATOM     31  C   UNL     1       6.765  -1.787   1.282  0.00  0.00    +0.003 A 
ATOM     33  C   UNL     1       6.284  -1.286   2.491  0.00  0.00    +0.038 A 
ENDBRANCH  19  23
ENDBRANCH  12   5
BRANCH  13   6
ATOM      4  O   UNL     1      -4.535   1.929   0.272  0.00  0.00    -0.253 OA
ATOM      6  N   UNL     1      -2.456   1.604   1.254  0.00  0.00    -0.292 N 
ATOM      7  N   UNL     1      -4.220   0.246   1.838  0.00  0.00    -0.295 N 
ATOM     17  C   UNL     1      -3.804   1.316   1.050  0.00  0.00    +0.300 C 
ATOM     35  H   UNL     1      -1.924   0.995   1.870  0.00  0.00    +0.151 HD
ATOM     36  H   UNL     1      -3.539  -0.213   2.436  0.00  0.00    +0.151 HD
BRANCH   7  18
ATOM     18  C   UNL     1      -5.572  -0.259   1.822  0.00  0.00    +0.141 C 
BRANCH  18  22
ATOM     22  C   UNL     1      -5.755  -1.340   0.796  0.00  0.00    -0.030 A 
ATOM     24  C   UNL     1      -6.140  -1.004  -0.496  0.00  0.00    +0.005 A 
ATOM     25  C   UNL     1      -5.538  -2.667   1.149  0.00  0.00    +0.005 A 
ATOM     28  C   UNL     1      -6.310  -2.008  -1.450  0.00  0.00    +0.000 A 
ATOM     29  C   UNL     1      -5.709  -3.671   0.196  0.00  0.00    +0.000 A 
ATOM     32  C   UNL     1      -6.095  -3.342  -1.103  0.00  0.00    +0.000 A 
ENDBRANCH  18  22
ENDBRANCH   7  18
ENDBRANCH  13   6
TORSDOF 5
