REMARK  Name = 40778188
REMARK  9 active torsions:
REMARK  status: ('A' for Active; 'I' for Inactive)
REMARK    1  A    between atoms: O_3  and  C_11
REMARK    2  A    between atoms: O_4  and  C_12
REMARK    3  A    between atoms: N_8  and  C_21
REMARK    4  A    between atoms: N_9  and  C_15
REMARK    5  A    between atoms: C_10  and  C_14
REMARK    6  A    between atoms: C_13  and  C_15
REMARK    7  A    between atoms: C_14  and  C_16
REMARK    8  A    between atoms: C_22  and  C_25
REMARK    9  A    between atoms: C_33  and  C_34
REMARK                            x       y       z     vdW  Elec       q    Type
REMARK                         _______ _______ _______ _____ _____    ______ ____
ROOT
ATOM      2  O   UNL     1      -4.063   0.833   0.873  0.00  0.00    -0.366 OA
ATOM     10  C   UNL     1      -3.683   1.829  -0.103  0.00  0.00    +0.159 C 
ATOM     11  C   UNL     1      -4.663   1.690  -1.263  0.00  0.00    +0.175 C 
ATOM     12  C   UNL     1      -5.035   0.224  -1.187  0.00  0.00    +0.176 C 
ATOM     13  C   UNL     1      -5.097   0.003   0.315  0.00  0.00    +0.167 C 
ENDROOT
BRANCH  11   3
ATOM      3  O   UNL     1      -5.801   2.505  -0.982  0.00  0.00    -0.387 OA
ATOM     35  H   UNL     1      -5.510   3.432  -1.017  0.00  0.00    +0.210 HD
ENDBRANCH  11   3
BRANCH  12   4
ATOM      4  O   UNL     1      -6.262  -0.075  -1.818  0.00  0.00    -0.387 OA
ATOM     36  H   UNL     1      -6.190   0.208  -2.745  0.00  0.00    +0.210 HD
ENDBRANCH  12   4
BRANCH  10  14
ATOM     14  C   UNL     1      -2.240   1.560  -0.506  0.00  0.00    +0.130 C 
BRANCH  14  16
ATOM      5  O   UNL     1      -1.765   2.619   1.565  0.00  0.00    -0.276 OA
ATOM      7  N   UNL     1       0.057   1.850   0.345  0.00  0.00    -0.298 N 
ATOM      8  N   UNL     1       2.883   1.274   0.089  0.00  0.00    -0.327 N 
ATOM     16  C   UNL     1      -1.304   2.060   0.567  0.00  0.00    +0.218 C 
ATOM     17  C   UNL     1       0.602   1.184  -0.841  0.00  0.00    +0.126 C 
ATOM     18  C   UNL     1       1.027   2.299   1.341  0.00  0.00    +0.126 C 
ATOM     19  C   UNL     1       2.067   1.539  -1.098  0.00  0.00    +0.124 C 
ATOM     20  C   UNL     1       2.246   1.382   1.405  0.00  0.00    +0.124 C 
BRANCH   8  21
ATOM      1  F   UNL     1       8.246   0.038  -0.355  0.00  0.00    -0.205 F 
ATOM     21  C   UNL     1       4.235   0.962  -0.023  0.00  0.00    +0.030 A 
ATOM     23  C   UNL     1       4.983   1.473  -1.084  0.00  0.00    +0.026 A 
ATOM     24  C   UNL     1       4.843   0.139   0.926  0.00  0.00    +0.026 A 
ATOM     26  C   UNL     1       6.338   1.161  -1.196  0.00  0.00    +0.040 A 
ATOM     27  C   UNL     1       6.198  -0.173   0.813  0.00  0.00    +0.040 A 
ATOM     28  C   UNL     1       6.945   0.339  -0.248  0.00  0.00    +0.124 A 
ENDBRANCH   8  21
ENDBRANCH  14  16
ENDBRANCH  10  14
BRANCH  13  15
ATOM     15  C   UNL     1      -4.867  -1.442   0.720  0.00  0.00    +0.138 C 
BRANCH  15   9
ATOM      6  O   UNL     1      -2.409  -1.288   2.196  0.00  0.00    -0.270 OA
ATOM      9  N   UNL     1      -3.580  -1.903   0.290  0.00  0.00    -0.309 N 
ATOM     22  C   UNL     1      -2.436  -1.787   1.074  0.00  0.00    +0.244 C 
ATOM     37  H   UNL     1      -3.541  -2.376  -0.607  0.00  0.00    +0.149 HD
BRANCH  22  25
ATOM     25  C   UNL     1      -1.173  -2.289   0.473  0.00  0.00    +0.037 A 
ATOM     29  C   UNL     1      -0.141  -2.742   1.294  0.00  0.00    +0.013 A 
ATOM     30  C   UNL     1      -1.021  -2.308  -0.913  0.00  0.00    +0.013 A 
ATOM     31  C   UNL     1       1.044  -3.212   0.729  0.00  0.00    +0.004 A 
ATOM     32  C   UNL     1       0.165  -2.778  -1.479  0.00  0.00    +0.004 A 
ATOM     33  C   UNL     1       1.197  -3.231  -0.657  0.00  0.00    -0.050 A 
ATOM     34  C   UNL     1       2.465  -3.734  -1.261  0.00  0.00    +0.044 C 
ENDBRANCH  22  25
ENDBRANCH  15   9
ENDBRANCH  13  15
TORSDOF 8
