REMARK  Name = 75537049
REMARK  5 active torsions:
REMARK  status: ('A' for Active; 'I' for Inactive)
REMARK    1  A    between atoms: O_2  and  C_21
REMARK    2  A    between atoms: O_2  and  C_25
REMARK    3  A    between atoms: N_4  and  C_12
REMARK    4  A    between atoms: N_5  and  C_13
REMARK    5  A    between atoms: C_12  and  C_14
REMARK                            x       y       z     vdW  Elec       q    Type
REMARK                         _______ _______ _______ _____ _____    ______ ____
ROOT
ATOM      1  O   UNL     1      -3.547  -2.317  -0.014  0.00  0.00    -0.252 OA
ATOM      3  N   UNL     1      -1.318  -1.661  -0.198  0.00  0.00    -0.278 N 
ATOM      4  N   UNL     1       1.462  -1.652   0.237  0.00  0.00    -0.295 NA
ATOM      5  N   UNL     1      -2.880  -0.022  -0.143  0.00  0.00    -0.254 N 
ATOM      6  C   UNL     1      -0.575  -0.450  -0.442  0.00  0.00    +0.109 C 
ATOM      7  C   UNL     1       0.685  -0.409   0.422  0.00  0.00    +0.109 C 
ATOM      8  C   UNL     1      -1.587   0.652  -0.153  0.00  0.00    +0.139 C 
ATOM      9  C   UNL     1      -0.622  -2.931  -0.205  0.00  0.00    +0.125 C 
ATOM     10  C   UNL     1       0.662  -2.832   0.622  0.00  0.00    +0.104 C 
ATOM     11  C   UNL     1      -2.702  -1.438  -0.112  0.00  0.00    +0.309 C 
ENDROOT
BRANCH   5  13
ATOM     13  C   UNL     1      -4.113   0.690  -0.086  0.00  0.00    +0.038 A 
ATOM     15  C   UNL     1      -5.317  -0.008   0.011  0.00  0.00    +0.023 A 
ATOM     16  C   UNL     1      -4.117   2.084  -0.128  0.00  0.00    +0.023 A 
ATOM     19  C   UNL     1      -6.525   0.688   0.066  0.00  0.00    +0.002 A 
ATOM     20  C   UNL     1      -5.324   2.780  -0.073  0.00  0.00    +0.002 A 
ATOM     23  C   UNL     1      -6.528   2.082   0.024  0.00  0.00    +0.000 A 
ENDBRANCH   5  13
BRANCH   4  12
ATOM     12  C   UNL     1       2.700  -1.599   1.013  0.00  0.00    +0.119 C 
BRANCH  12  14
ATOM     14  C   UNL     1       3.741  -0.736   0.351  0.00  0.00    -0.030 A 
ATOM     17  C   UNL     1       3.998   0.545   0.841  0.00  0.00    +0.050 A 
ATOM     18  C   UNL     1       4.447  -1.216  -0.752  0.00  0.00    +0.005 A 
ATOM     21  C   UNL     1       4.962   1.345   0.227  0.00  0.00    +0.120 A 
ATOM     22  C   UNL     1       5.410  -0.415  -1.366  0.00  0.00    +0.004 A 
ATOM     24  C   UNL     1       5.668   0.865  -0.876  0.00  0.00    +0.045 A 
BRANCH  21   2
ATOM      2  O   UNL     1       5.212   2.595   0.704  0.00  0.00    -0.495 OA
ATOM     25  C   UNL     1       6.209   3.361   0.029  0.00  0.00    +0.277 C 
ENDBRANCH  21   2
ENDBRANCH  12  14
ENDBRANCH   4  12
TORSDOF 4
