REMARK  Name = 7673042
REMARK  3 active torsions:
REMARK  status: ('A' for Active; 'I' for Inactive)
REMARK    1  A    between atoms: N_4  and  C_12
REMARK    2  A    between atoms: C_21  and  C_24
REMARK    3  A    between atoms: C_23  and  C_25
REMARK                            x       y       z     vdW  Elec       q    Type
REMARK                         _______ _______ _______ _____ _____    ______ ____
ROOT
ATOM      2  O   UNL     1      -1.760  -1.069   1.862  0.00  0.00    -0.267 OA
ATOM      4  N   UNL     1       2.899  -1.301   0.025  0.00  0.00    -0.298 NA
ATOM      5  N   UNL     1      -0.175  -2.037   0.449  0.00  0.00    -0.311 N 
ATOM      7  C   UNL     1       1.927  -3.212   1.325  0.00  0.00    +0.024 C 
ATOM      8  C   UNL     1       1.530  -3.071  -1.087  0.00  0.00    +0.050 C 
ATOM      9  C   UNL     1       1.812  -4.044   0.056  0.00  0.00    +0.017 C 
ATOM     10  C   UNL     1       3.071  -2.185   1.184  0.00  0.00    +0.090 C 
ATOM     11  C   UNL     1       2.701  -2.070  -1.213  0.00  0.00    +0.094 C 
ATOM     13  C   UNL     1       0.572  -2.548   1.607  0.00  0.00    +0.130 C 
ATOM     14  C   UNL     1       0.224  -2.334  -0.857  0.00  0.00    +0.026 A 
ATOM     19  C   UNL     1      -0.534  -1.954  -1.897  0.00  0.00    +0.022 A 
ATOM     20  C   UNL     1      -1.360  -1.325   0.725  0.00  0.00    +0.260 A 
ATOM     21  C   UNL     1      -2.167  -0.884  -0.465  0.00  0.00    +0.053 A 
ATOM     22  C   UNL     1      -1.747  -1.213  -1.696  0.00  0.00    +0.016 A 
ENDROOT
BRANCH  21  24
ATOM      1  S   UNL     1      -3.299   1.577  -0.259  0.00  0.00    -0.088 S 
ATOM     24  C   UNL     1      -3.368  -0.130  -0.292  0.00  0.00    +0.026 A 
ATOM     26  C   UNL     1      -4.660  -0.587  -0.136  0.00  0.00    +0.024 A 
ATOM     27  C   UNL     1      -5.620   0.470   0.014  0.00  0.00    -0.010 A 
ATOM     28  C   UNL     1      -5.002   1.724  -0.036  0.00  0.00    +0.020 A 
ATOM     29  C   UNL     1      -7.023   0.422   0.194  0.00  0.00    +0.009 A 
ATOM     30  C   UNL     1      -5.744   2.916   0.089  0.00  0.00    +0.015 A 
ATOM     31  C   UNL     1      -7.761   1.602   0.318  0.00  0.00    +0.001 A 
ATOM     32  C   UNL     1      -7.126   2.834   0.265  0.00  0.00    +0.001 A 
ENDBRANCH  21  24
BRANCH   4  12
ATOM      3  O   UNL     1       5.263   4.230   1.238  0.00  0.00    -0.276 OA
ATOM      6  N   UNL     1       5.096   2.308  -0.057  0.00  0.00    -0.302 N 
ATOM     12  C   UNL     1       4.027  -0.382  -0.105  0.00  0.00    +0.060 C 
ATOM     15  C   UNL     1       3.772   0.605  -1.252  0.00  0.00    +0.038 C 
ATOM     16  C   UNL     1       4.245   0.374   1.212  0.00  0.00    +0.038 C 
ATOM     17  C   UNL     1       4.896   1.637  -1.347  0.00  0.00    +0.109 C 
ATOM     18  C   UNL     1       5.359   1.410   1.069  0.00  0.00    +0.109 C 
ATOM     23  C   UNL     1       5.092   3.688   0.143  0.00  0.00    +0.212 C 
ATOM     25  C   UNL     1       4.859   4.547  -1.074  0.00  0.00    +0.109 C 
ENDBRANCH   4  12
TORSDOF 2
