REMARK  Name = 45784038
REMARK  13 active torsions:
REMARK  status: ('A' for Active; 'I' for Inactive)
REMARK    1  A    between atoms: O_3  and  C_26
REMARK    2  A    between atoms: O_3  and  C_29
REMARK    3  A    between atoms: N_4  and  C_15
REMARK    4  A    between atoms: N_4  and  C_21
REMARK    5  A    between atoms: C_8  and  C_12
REMARK    6  A    between atoms: C_9  and  C_15
REMARK    7  A    between atoms: C_11  and  C_16
REMARK    8  A    between atoms: C_12  and  C_17
REMARK    9  A    between atoms: C_12  and  C_18
REMARK   10  A    between atoms: C_13  and  C_19
REMARK   11  A    between atoms: C_16  and  C_20
REMARK   12  A    between atoms: C_21  and  C_22
REMARK   13  A    between atoms: C_23  and  C_26
REMARK                            x       y       z     vdW  Elec       q    Type
REMARK                         _______ _______ _______ _____ _____    ______ ____
ROOT
ATOM      8  C   UNL     1       1.271   1.370  -1.509  0.00  0.00    +0.000 C 
ATOM      9  C   UNL     1       2.725   1.639  -1.972  0.00  0.00    +0.029 C 
ATOM     10  C   UNL     1       0.713   2.589  -0.759  0.00  0.00    +0.012 C 
ATOM     11  C   UNL     1       1.560   2.950   0.477  0.00  0.00    +0.024 C 
ATOM     13  C   UNL     1       3.041   2.971   0.158  0.00  0.00    -0.073 C 
ATOM     14  C   UNL     1       3.542   2.391  -0.948  0.00  0.00    -0.023 C 
ATOM     19  C   UNL     1       3.929   3.714   1.116  0.00  0.00    +0.039 C 
ENDROOT
BRANCH   8  12
ATOM     12  C   UNL     1       0.354   1.023  -2.687  0.00  0.00    -0.013 C 
ATOM     17  C   UNL     1      -0.842   0.206  -2.207  0.00  0.00    +0.007 C 
ATOM     18  C   UNL     1      -0.107   2.292  -3.395  0.00  0.00    +0.007 C 
ENDBRANCH   8  12
BRANCH   9  15
ATOM     15  C   UNL     1       3.440   0.332  -2.336  0.00  0.00    +0.089 C 
BRANCH  15   4
ATOM      4  N   UNL     1       3.586  -0.515  -1.165  0.00  0.00    -0.311 NA
ATOM     35  H   UNL     1       4.122  -0.031  -0.447  0.00  0.00    +0.122 HD
BRANCH   4  21
ATOM     21  C   UNL     1       4.256  -1.766  -1.503  0.00  0.00    +0.117 C 
BRANCH  21  22
ATOM      7  N   UNL     1       3.655  -4.612   0.920  0.00  0.00    -0.263 NA
ATOM     22  C   UNL     1       4.401  -2.665  -0.304  0.00  0.00    -0.016 A 
ATOM     24  C   UNL     1       5.366  -2.417   0.665  0.00  0.00    +0.008 A 
ATOM     25  C   UNL     1       3.578  -3.766  -0.132  0.00  0.00    +0.115 A 
ATOM     27  C   UNL     1       5.477  -3.264   1.762  0.00  0.00    +0.020 A 
ATOM     28  C   UNL     1       4.605  -4.338   1.842  0.00  0.00    +0.111 A 
ENDBRANCH  21  22
ENDBRANCH   4  21
ENDBRANCH  15   4
ENDBRANCH   9  15
BRANCH  11  16
ATOM     16  C   UNL     1       1.264   2.003   1.645  0.00  0.00    +0.105 C 
BRANCH  16  20
ATOM      2  O   UNL     1      -0.925   0.926   1.583  0.00  0.00    -0.421 OA
ATOM      5  N   UNL     1      -0.903   2.894   2.647  0.00  0.00    -0.112 NA
ATOM      6  N   UNL     1      -2.194   2.400   2.688  0.00  0.00    -0.109 NA
ATOM     20  C   UNL     1      -0.197   2.001   1.993  0.00  0.00    +0.218 A 
ATOM     23  C   UNL     1      -2.159   1.251   2.055  0.00  0.00    +0.254 A 
BRANCH  23  26
ATOM     26  C   UNL     1      -3.242   0.293   1.797  0.00  0.00    +0.326 C 
BRANCH  26   3
ATOM      3  O   UNL     1      -3.656   0.369   0.430  0.00  0.00    -0.483 OA
BRANCH   3  29
ATOM      1  F   UNL     1      -7.877  -2.832  -1.033  0.00  0.00    -0.205 F 
ATOM     29  C   UNL     1      -4.705  -0.427   0.067  0.00  0.00    +0.121 A 
ATOM     30  C   UNL     1      -5.312  -1.256   1.010  0.00  0.00    +0.048 A 
ATOM     31  C   UNL     1      -5.170  -0.411  -1.249  0.00  0.00    +0.048 A 
ATOM     32  C   UNL     1      -6.384  -2.068   0.639  0.00  0.00    +0.042 A 
ATOM     33  C   UNL     1      -6.241  -1.224  -1.620  0.00  0.00    +0.042 A 
ATOM     34  C   UNL     1      -6.848  -2.052  -0.676  0.00  0.00    +0.124 A 
ENDBRANCH   3  29
ENDBRANCH  26   3
ENDBRANCH  23  26
ENDBRANCH  16  20
ENDBRANCH  11  16
TORSDOF 10
