REMARK  Name = 25390244
REMARK  7 active torsions:
REMARK  status: ('A' for Active; 'I' for Inactive)
REMARK    1  A    between atoms: O_2  and  C_11
REMARK    2  A    between atoms: O_3  and  C_12
REMARK    3  A    between atoms: N_8  and  C_20
REMARK    4  A    between atoms: C_10  and  C_14
REMARK    5  A    between atoms: C_13  and  C_20
REMARK    6  A    between atoms: C_14  and  C_21
REMARK    7  A    between atoms: C_15  and  C_22
REMARK                            x       y       z     vdW  Elec       q    Type
REMARK                         _______ _______ _______ _____ _____    ______ ____
ROOT
ATOM      1  O   UNL     1      -0.733  -1.620  -0.564  0.00  0.00    -0.366 OA
ATOM     10  C   UNL     1       0.561  -2.202  -0.330  0.00  0.00    +0.159 C 
ATOM     11  C   UNL     1       0.311  -3.432   0.526  0.00  0.00    +0.175 C 
ATOM     12  C   UNL     1      -1.013  -3.920  -0.025  0.00  0.00    +0.176 C 
ATOM     13  C   UNL     1      -1.750  -2.611  -0.288  0.00  0.00    +0.167 C 
ENDROOT
BRANCH  11   2
ATOM      2  O   UNL     1       1.349  -4.380   0.408  0.00  0.00    -0.387 OA
ATOM     28  H   UNL     1       1.069  -5.180   0.885  0.00  0.00    +0.210 HD
ENDBRANCH  11   2
BRANCH  12   3
ATOM      3  O   UNL     1      -0.816  -4.577  -1.276  0.00  0.00    -0.387 OA
ATOM     29  H   UNL     1      -1.692  -4.839  -1.608  0.00  0.00    +0.210 HD
ENDBRANCH  12   3
BRANCH  10  14
ATOM     14  C   UNL     1       1.468  -1.181   0.333  0.00  0.00    +0.130 C 
BRANCH  14  21
ATOM      4  O   UNL     1       1.655  -0.344  -1.875  0.00  0.00    -0.276 OA
ATOM      7  N   UNL     1       2.804   0.821  -0.226  0.00  0.00    -0.301 N 
ATOM     15  C   UNL     1       5.306   2.169   0.356  0.00  0.00    -0.011 C 
ATOM     16  C   UNL     1       4.728   1.096   1.292  0.00  0.00    +0.022 C 
ATOM     17  C   UNL     1       4.830   1.929  -1.085  0.00  0.00    +0.022 C 
ATOM     18  C   UNL     1       3.207   1.016   1.172  0.00  0.00    +0.108 C 
ATOM     19  C   UNL     1       3.308   1.833  -1.155  0.00  0.00    +0.108 C 
ATOM     21  C   UNL     1       1.979  -0.202  -0.693  0.00  0.00    +0.218 C 
ATOM     22  C   UNL     1       6.831   2.188   0.429  0.00  0.00    +0.007 C 
ENDBRANCH  14  21
ENDBRANCH  10  14
BRANCH  13  20
ATOM     20  C   UNL     1      -2.557  -2.130   0.909  0.00  0.00    +0.140 C 
BRANCH  20   8
ATOM      5  O   UNL     1      -4.620   3.742  -0.656  0.00  0.00    -0.377 OA
ATOM      6  O   UNL     1      -1.510   0.448   1.333  0.00  0.00    -0.253 OA
ATOM      8  N   UNL     1      -3.234  -0.886   0.617  0.00  0.00    -0.297 N 
ATOM      9  N   UNL     1      -3.432   1.468   0.527  0.00  0.00    -0.281 N 
ATOM     23  C   UNL     1      -2.646   0.350   0.857  0.00  0.00    +0.302 C 
ATOM     24  C   UNL     1      -2.893   2.811   0.753  0.00  0.00    +0.137 C 
ATOM     25  C   UNL     1      -4.839   1.443   0.102  0.00  0.00    +0.137 C 
ATOM     26  C   UNL     1      -3.212   3.730  -0.415  0.00  0.00    +0.179 C 
ATOM     27  C   UNL     1      -5.082   2.442  -1.024  0.00  0.00    +0.179 C 
ATOM     30  H   UNL     1      -4.151  -0.968   0.202  0.00  0.00    +0.150 HD
ENDBRANCH  20   8
ENDBRANCH  13  20
TORSDOF 6
