REMARK  Name = 75536875
REMARK  4 active torsions:
REMARK  status: ('A' for Active; 'I' for Inactive)
REMARK    1  A    between atoms: O_6  and  C_15
REMARK    2  A    between atoms: O_6  and  C_18
REMARK    3  A    between atoms: C_8  and  C_12
REMARK    4  A    between atoms: C_23  and  C_24
REMARK                            x       y       z     vdW  Elec       q    Type
REMARK                         _______ _______ _______ _____ _____    ______ ____
ROOT
ATOM      4  O   UNL     1      -1.434   3.298  -0.180  0.00  0.00    -0.375 OA
ATOM      5  O   UNL     1      -5.142   0.397   1.183  0.00  0.00    -0.275 OA
ATOM      7  N   UNL     1      -2.925   0.610   0.508  0.00  0.00    -0.295 N 
ATOM     12  C   UNL     1      -4.180  -0.034   0.529  0.00  0.00    +0.219 C 
ATOM     13  C   UNL     1      -1.796   0.077  -0.258  0.00  0.00    +0.154 C 
ATOM     14  C   UNL     1      -2.736   1.837   1.285  0.00  0.00    +0.136 C 
ATOM     15  C   UNL     1      -0.615   1.020  -0.507  0.00  0.00    +0.216 C 
ATOM     16  C   UNL     1      -2.720   3.064   0.384  0.00  0.00    +0.179 C 
ATOM     17  C   UNL     1      -1.028   2.340  -1.152  0.00  0.00    +0.206 C 
ENDROOT
BRANCH  12   8
ATOM      8  C   UNL     1      -4.313  -1.319  -0.293  0.00  0.00    +0.075 C 
ATOM      9  C   UNL     1      -5.602  -2.160  -0.104  0.00  0.00    +0.013 C 
ATOM     10  C   UNL     1      -3.534  -2.572   0.187  0.00  0.00    +0.013 C 
ATOM     11  C   UNL     1      -4.731  -3.418  -0.287  0.00  0.00    +0.001 C 
ENDBRANCH  12   8
BRANCH  15   6
ATOM      6  O   UNL     1       0.287   0.363  -1.399  0.00  0.00    -0.485 OA
BRANCH   6  18
ATOM     18  C   UNL     1       1.547   0.123  -0.926  0.00  0.00    +0.121 A 
ATOM     19  C   UNL     1       2.356   1.187  -0.525  0.00  0.00    +0.046 A 
ATOM     20  C   UNL     1       2.025  -1.185  -0.845  0.00  0.00    +0.046 A 
ATOM     21  C   UNL     1       3.642   0.943  -0.043  0.00  0.00    +0.016 A 
ATOM     22  C   UNL     1       3.311  -1.429  -0.363  0.00  0.00    +0.016 A 
ATOM     23  C   UNL     1       4.119  -0.365   0.037  0.00  0.00    +0.055 A 
BRANCH  23  24
ATOM      1  F   UNL     1       6.306  -1.255  -0.349  0.00  0.00    -0.166 F 
ATOM      2  F   UNL     1       5.521  -1.417   1.666  0.00  0.00    -0.166 F 
ATOM      3  F   UNL     1       6.151   0.518   0.900  0.00  0.00    -0.166 F 
ATOM     24  C   UNL     1       5.494  -0.626   0.552  0.00  0.00    +0.417 C 
ENDBRANCH  23  24
ENDBRANCH   6  18
ENDBRANCH  15   6
TORSDOF 4
