REMARK  Name = 25314526
REMARK  7 active torsions:
REMARK  status: ('A' for Active; 'I' for Inactive)
REMARK    1  A    between atoms: O_3  and  C_9
REMARK    2  A    between atoms: N_5  and  C_8
REMARK    3  A    between atoms: N_6  and  C_10
REMARK    4  A    between atoms: N_7  and  C_26
REMARK    5  A    between atoms: C_15  and  C_19
REMARK    6  A    between atoms: C_19  and  C_20
REMARK    7  A    between atoms: C_26  and  C_28
REMARK                            x       y       z     vdW  Elec       q    Type
REMARK                         _______ _______ _______ _____ _____    ______ ____
ROOT
ATOM      1  O   UNL     1       2.231  -2.239  -1.402  0.00  0.00    -0.342 OA
ATOM      2  O   UNL     1       2.560  -3.878   0.206  0.00  0.00    -0.347 OA
ATOM      8  C   UNL     1       0.976  -2.106   0.653  0.00  0.00    +0.143 C 
ATOM      9  C   UNL     1       2.086  -1.246   1.299  0.00  0.00    +0.159 C 
ATOM     10  C   UNL     1       3.222  -0.874   0.321  0.00  0.00    +0.136 C 
ATOM     11  C   UNL     1       1.569  -3.042  -0.415  0.00  0.00    +0.270 C 
ATOM     12  C   UNL     1       3.474  -1.950  -0.756  0.00  0.00    +0.170 C 
ATOM     16  C   UNL     1       3.819  -3.317  -0.197  0.00  0.00    +0.196 C 
ENDROOT
BRANCH  10   6
ATOM      4  O   UNL     1       3.922   1.750   1.296  0.00  0.00    -0.253 OA
ATOM      6  N   UNL     1       2.938   0.396  -0.313  0.00  0.00    -0.291 N 
ATOM      7  N   UNL     1       2.918   2.676  -0.580  0.00  0.00    -0.296 N 
ATOM     21  C   UNL     1       3.316   1.618   0.233  0.00  0.00    +0.300 C 
ATOM     30  H   UNL     1       2.371   0.398  -1.155  0.00  0.00    +0.151 HD
ATOM     32  H   UNL     1       2.440   2.469  -1.452  0.00  0.00    +0.151 HD
BRANCH   7  26
ATOM     26  C   UNL     1       3.182   4.057  -0.252  0.00  0.00    +0.132 C 
BRANCH  26  28
ATOM     28  C   UNL     1       4.498   4.454  -0.833  0.00  0.00    -0.016 C 
ATOM     29  C   UNL     1       5.525   4.912  -0.108  0.00  0.00    +0.005 C 
ENDBRANCH  26  28
ENDBRANCH   7  26
ENDBRANCH  10   6
BRANCH   8   5
ATOM      5  N   UNL     1      -0.041  -1.244   0.047  0.00  0.00    -0.293 NA
ATOM     13  C   UNL     1      -0.777  -1.972  -0.995  0.00  0.00    +0.085 C 
ATOM     14  C   UNL     1      -0.952  -0.722   1.074  0.00  0.00    +0.085 C 
ATOM     15  C   UNL     1      -2.777  -0.461  -0.657  0.00  0.00    -0.004 C 
ATOM     17  C   UNL     1      -1.807  -1.068  -1.676  0.00  0.00    +0.019 C 
ATOM     18  C   UNL     1      -1.988   0.224   0.464  0.00  0.00    +0.019 C 
BRANCH  15  19
ATOM     19  C   UNL     1      -3.738   0.516  -1.328  0.00  0.00    +0.038 C 
BRANCH  19  20
ATOM     20  C   UNL     1      -4.981   0.725  -0.506  0.00  0.00    -0.047 A 
ATOM     22  C   UNL     1      -6.091  -0.098  -0.699  0.00  0.00    +0.003 A 
ATOM     23  C   UNL     1      -5.023   1.741   0.448  0.00  0.00    +0.003 A 
ATOM     24  C   UNL     1      -7.243   0.096   0.062  0.00  0.00    +0.000 A 
ATOM     25  C   UNL     1      -6.176   1.935   1.210  0.00  0.00    +0.000 A 
ATOM     27  C   UNL     1      -7.286   1.112   1.017  0.00  0.00    +0.000 A 
ENDBRANCH  19  20
ENDBRANCH  15  19
ENDBRANCH   8   5
BRANCH   9   3
ATOM      3  O   UNL     1       2.642  -1.996   2.387  0.00  0.00    -0.388 OA
ATOM     31  H   UNL     1       3.297  -1.430   2.829  0.00  0.00    +0.210 HD
ENDBRANCH   9   3
TORSDOF 7
