REMARK  Name = 75536427
REMARK  10 active torsions:
REMARK  status: ('A' for Active; 'I' for Inactive)
REMARK    1  A    between atoms: O_2  and  C_13
REMARK    2  A    between atoms: O_6  and  C_32
REMARK    3  A    between atoms: O_6  and  C_33
REMARK    4  A    between atoms: N_7  and  C_17
REMARK    5  A    between atoms: N_8  and  C_20
REMARK    6  A    between atoms: N_10  and  C_27
REMARK    7  A    between atoms: C_11  and  C_16
REMARK    8  A    between atoms: C_12  and  C_17
REMARK    9  A    between atoms: C_16  and  C_18
REMARK   10  A    between atoms: C_20  and  C_21
REMARK                            x       y       z     vdW  Elec       q    Type
REMARK                         _______ _______ _______ _____ _____    ______ ____
ROOT
ATOM      1  O   UNL     1       3.639  -0.752   0.477  0.00  0.00    -0.369 OA
ATOM     11  C   UNL     1       3.716  -0.787  -0.950  0.00  0.00    +0.125 C 
ATOM     12  C   UNL     1       4.471   0.229   1.109  0.00  0.00    +0.164 C 
ATOM     13  C   UNL     1       5.939   0.065   0.695  0.00  0.00    +0.145 C 
ATOM     14  C   UNL     1       5.147  -1.067  -1.406  0.00  0.00    +0.034 C 
ATOM     15  C   UNL     1       6.110  -0.038  -0.818  0.00  0.00    +0.036 C 
ENDROOT
BRANCH  13   2
ATOM      2  O   UNL     1       6.450  -1.138   1.275  0.00  0.00    -0.389 OA
ATOM     34  H   UNL     1       7.392  -1.200   1.042  0.00  0.00    +0.210 HD
ENDBRANCH  13   2
BRANCH  11  16
ATOM     16  C   UNL     1       2.770  -1.879  -1.434  0.00  0.00    +0.090 C 
BRANCH  16  18
ATOM      3  O   UNL     1      -0.673  -0.893  -1.033  0.00  0.00    -0.358 OA
ATOM      9  N   UNL     1       0.524  -0.921  -1.738  0.00  0.00    -0.083 NA
ATOM     18  C   UNL     1       1.357  -1.636  -0.976  0.00  0.00    +0.086 A 
ATOM     19  C   UNL     1       0.747  -2.080   0.210  0.00  0.00    +0.072 A 
ATOM     21  C   UNL     1      -0.528  -1.586   0.125  0.00  0.00    +0.151 A 
BRANCH  21  20
ATOM     20  C   UNL     1      -1.706  -1.658   0.997  0.00  0.00    +0.161 C 
BRANCH  20   8
ATOM      4  O   UNL     1      -5.148  -3.967   0.335  0.00  0.00    -0.377 OA
ATOM      8  N   UNL     1      -2.868  -2.263   0.349  0.00  0.00    -0.291 NA
ATOM     22  C   UNL     1      -2.734  -3.725   0.298  0.00  0.00    +0.113 C 
ATOM     23  C   UNL     1      -4.107  -1.895   1.048  0.00  0.00    +0.113 C 
ATOM     24  C   UNL     1      -3.963  -4.335  -0.372  0.00  0.00    +0.175 C 
ATOM     25  C   UNL     1      -5.303  -2.547   0.362  0.00  0.00    +0.175 C 
ENDBRANCH  20   8
ENDBRANCH  21  20
ENDBRANCH  16  18
ENDBRANCH  11  16
BRANCH  12  17
ATOM     17  C   UNL     1       3.938   1.640   0.868  0.00  0.00    +0.140 C 
BRANCH  17   7
ATOM      5  O   UNL     1       1.722   2.342  -0.805  0.00  0.00    -0.253 OA
ATOM      7  N   UNL     1       2.566   1.744   1.264  0.00  0.00    -0.297 N 
ATOM     10  N   UNL     1       0.300   2.117   1.049  0.00  0.00    -0.269 N 
ATOM     26  C   UNL     1       1.529   2.096   0.383  0.00  0.00    +0.304 C 
ATOM     35  H   UNL     1       2.338   1.600   2.243  0.00  0.00    +0.150 HD
ATOM     36  H   UNL     1       0.314   1.885   2.039  0.00  0.00    +0.156 HD
BRANCH  10  27
ATOM     27  C   UNL     1      -0.973   2.423   0.513  0.00  0.00    +0.035 A 
ATOM     28  C   UNL     1      -2.100   2.395   1.334  0.00  0.00    +0.027 A 
ATOM     29  C   UNL     1      -1.101   2.752  -0.836  0.00  0.00    +0.027 A 
ATOM     30  C   UNL     1      -3.355   2.696   0.806  0.00  0.00    +0.047 A 
ATOM     31  C   UNL     1      -2.356   3.053  -1.365  0.00  0.00    +0.047 A 
ATOM     32  C   UNL     1      -3.483   3.025  -0.543  0.00  0.00    +0.120 A 
BRANCH  32   6
ATOM      6  O   UNL     1      -4.709   3.319  -1.059  0.00  0.00    -0.495 OA
ATOM     33  C   UNL     1      -5.818   3.272  -0.162  0.00  0.00    +0.277 C 
ENDBRANCH  32   6
ENDBRANCH  10  27
ENDBRANCH  17   7
ENDBRANCH  12  17
TORSDOF 9
