REMARK  Name = 11865733
REMARK  11 active torsions:
REMARK  status: ('A' for Active; 'I' for Inactive)
REMARK    1  A    between atoms: S_1  and  C_18
REMARK    2  A    between atoms: S_1  and  C_26
REMARK    3  A    between atoms: N_7  and  C_11
REMARK    4  A    between atoms: N_8  and  C_17
REMARK    5  A    between atoms: N_9  and  C_23
REMARK    6  A    between atoms: C_12  and  C_15
REMARK    7  A    between atoms: C_16  and  C_18
REMARK    8  A    between atoms: C_17  and  C_20
REMARK    9  A    between atoms: C_17  and  C_21
REMARK   10  A    between atoms: C_20  and  C_22
REMARK   11  A    between atoms: C_23  and  C_29
REMARK                            x       y       z     vdW  Elec       q    Type
REMARK                         _______ _______ _______ _____ _____    ______ ____
ROOT
ATOM      3  O   UNL     1       4.380   0.236  -0.148  0.00  0.00    -0.275 OA
ATOM      6  N   UNL     1       2.598  -1.099  -0.780  0.00  0.00    -0.287 N 
ATOM     11  C   UNL     1       0.547  -2.099  -1.439  0.00  0.00    +0.094 C 
ATOM     12  C   UNL     1       1.793  -0.031  -1.353  0.00  0.00    +0.164 C 
ATOM     13  C   UNL     1       0.687  -0.741  -2.131  0.00  0.00    +0.055 C 
ATOM     14  C   UNL     1       1.965  -2.404  -0.966  0.00  0.00    +0.131 C 
ATOM     16  C   UNL     1       3.877  -0.879  -0.291  0.00  0.00    +0.226 C 
ENDROOT
BRANCH  11   7
ATOM      4  O   UNL     1      -2.281  -2.667  -1.531  0.00  0.00    -0.253 OA
ATOM      7  N   UNL     1      -0.385  -2.049  -0.341  0.00  0.00    -0.295 N 
ATOM      9  N   UNL     1      -2.411  -2.213   0.741  0.00  0.00    -0.296 N 
ATOM     19  C   UNL     1      -1.742  -2.340  -0.474  0.00  0.00    +0.300 C 
ATOM     32  H   UNL     1      -0.052  -1.727   0.563  0.00  0.00    +0.151 HD
ATOM     34  H   UNL     1      -1.879  -1.955   1.566  0.00  0.00    +0.151 HD
BRANCH   9  23
ATOM     23  C   UNL     1      -3.827  -2.457   0.884  0.00  0.00    +0.132 C 
BRANCH  23  29
ATOM     29  C   UNL     1      -4.042  -3.896   1.219  0.00  0.00    -0.016 C 
ATOM     31  C   UNL     1      -4.780  -4.731   0.478  0.00  0.00    +0.005 C 
ENDBRANCH  23  29
ENDBRANCH   9  23
ENDBRANCH  11   7
BRANCH  12  15
ATOM      2  O   UNL     1       0.991   0.326   0.867  0.00  0.00    -0.274 OA
ATOM      8  N   UNL     1       1.018   2.114  -0.622  0.00  0.00    -0.302 N 
ATOM     15  C   UNL     1       1.234   0.802  -0.238  0.00  0.00    +0.234 C 
ATOM     33  H   UNL     1       1.277   2.406  -1.561  0.00  0.00    +0.150 HD
BRANCH   8  17
ATOM     17  C   UNL     1       0.464   3.115   0.261  0.00  0.00    +0.163 C 
BRANCH  17  21
ATOM      5  O   UNL     1       2.321   4.527  -0.421  0.00  0.00    -0.274 OA
ATOM     10  N   UNL     1       1.489   4.758   1.707  0.00  0.00    -0.328 N 
ATOM     21  C   UNL     1       1.532   4.182   0.455  0.00  0.00    +0.231 C 
ATOM     35  H   UNL     1       2.139   5.494   1.964  0.00  0.00    +0.145 HD
ATOM     36  H   UNL     1       0.816   4.480   2.414  0.00  0.00    +0.145 HD
ENDBRANCH  17  21
BRANCH  17  20
ATOM     20  C   UNL     1      -0.817   3.740  -0.303  0.00  0.00    +0.067 C 
BRANCH  20  22
ATOM     22  C   UNL     1      -2.031   2.866  -0.100  0.00  0.00    -0.045 A 
ATOM     24  C   UNL     1      -2.384   1.927  -1.070  0.00  0.00    +0.004 A 
ATOM     25  C   UNL     1      -2.799   2.996   1.057  0.00  0.00    +0.004 A 
ATOM     27  C   UNL     1      -3.506   1.119  -0.882  0.00  0.00    +0.000 A 
ATOM     28  C   UNL     1      -3.921   2.188   1.244  0.00  0.00    +0.000 A 
ATOM     30  C   UNL     1      -4.274   1.250   0.275  0.00  0.00    +0.000 A 
ENDBRANCH  20  22
ENDBRANCH  17  20
ENDBRANCH   8  17
ENDBRANCH  12  15
BRANCH  16  18
ATOM     18  C   UNL     1       4.652  -2.118   0.084  0.00  0.00    +0.164 C 
BRANCH  18   1
ATOM      1  S   UNL     1       4.316  -2.469   1.816  0.00  0.00    -0.155 S 
ATOM     26  C   UNL     1       5.334  -3.953   2.003  0.00  0.00    +0.085 C 
ENDBRANCH  18   1
ENDBRANCH  16  18
TORSDOF 10
