REMARK  Name = 45784238
REMARK  2 active torsions:
REMARK  status: ('A' for Active; 'I' for Inactive)
REMARK    1  A    between atoms: N_3  and  C_6
REMARK    2  A    between atoms: C_7  and  C_13
REMARK                            x       y       z     vdW  Elec       q    Type
REMARK                         _______ _______ _______ _____ _____    ______ ____
ROOT
ATOM      3  N   UNL     1      -2.515   0.723   0.286  0.00  0.00    -0.299 NA
ATOM      7  C   UNL     1      -0.236   1.093   0.692  0.00  0.00    +0.070 C 
ATOM      8  C   UNL     1      -1.296  -0.014   0.626  0.00  0.00    +0.096 C 
ATOM      9  C   UNL     1      -2.105   1.676  -0.745  0.00  0.00    +0.085 C 
ATOM     10  C   UNL     1      -0.788   2.216  -0.203  0.00  0.00    +0.028 C 
ENDROOT
BRANCH   7  13
ATOM      1  F   UNL     1       6.787  -0.749   0.460  0.00  0.00    -0.205 F 
ATOM      4  N   UNL     1       2.187   0.684   1.207  0.00  0.00    -0.341 N 
ATOM      5  N   UNL     1       1.514   0.080  -0.824  0.00  0.00    -0.232 NA
ATOM     13  C   UNL     1       1.147   0.607   0.323  0.00  0.00    +0.113 A 
ATOM     16  C   UNL     1       3.299   0.172   0.590  0.00  0.00    +0.069 A 
ATOM     17  C   UNL     1       2.853  -0.198  -0.676  0.00  0.00    +0.089 A 
ATOM     18  C   UNL     1       4.617   0.005   1.018  0.00  0.00    +0.066 A 
ATOM     19  C   UNL     1       3.763  -0.770  -1.582  0.00  0.00    +0.032 A 
ATOM     20  C   UNL     1       5.508  -0.565   0.103  0.00  0.00    +0.125 A 
ATOM     21  C   UNL     1       5.091  -0.947  -1.174  0.00  0.00    +0.040 A 
ATOM     22  H   UNL     1       2.147   1.052   2.148  0.00  0.00    +0.167 HD
ENDBRANCH   7  13
BRANCH   3   6
ATOM      2  O   UNL     1      -6.282  -1.127   0.158  0.00  0.00    -0.380 OA
ATOM      6  C   UNL     1      -3.591  -0.157  -0.165  0.00  0.00    +0.061 C 
ATOM     11  C   UNL     1      -3.983  -1.132   0.948  0.00  0.00    +0.047 C 
ATOM     12  C   UNL     1      -4.814   0.651  -0.610  0.00  0.00    +0.047 C 
ATOM     14  C   UNL     1      -5.186  -1.967   0.521  0.00  0.00    +0.161 C 
ATOM     15  C   UNL     1      -5.971  -0.282  -0.950  0.00  0.00    +0.161 C 
ENDBRANCH   3   6
TORSDOF 2
