REMARK  Name = 75536497
REMARK  6 active torsions:
REMARK  status: ('A' for Active; 'I' for Inactive)
REMARK    1  A    between atoms: O_2  and  C_8
REMARK    2  A    between atoms: N_5  and  C_7
REMARK    3  A    between atoms: N_5  and  C_10
REMARK    4  A    between atoms: N_6  and  C_14
REMARK    5  A    between atoms: C_9  and  C_14
REMARK    6  A    between atoms: C_17  and  C_18
REMARK                            x       y       z     vdW  Elec       q    Type
REMARK                         _______ _______ _______ _____ _____    ______ ____
ROOT
ATOM      1  O   UNL     1       1.425   1.301   0.278  0.00  0.00    -0.371 OA
ATOM      7  C   UNL     1      -0.515   0.016  -0.202  0.00  0.00    +0.111 C 
ATOM      8  C   UNL     1       0.656  -0.542  -0.989  0.00  0.00    +0.164 C 
ATOM      9  C   UNL     1       1.833   0.006  -0.194  0.00  0.00    +0.165 C 
ATOM     11  C   UNL     1      -0.005   1.404   0.152  0.00  0.00    +0.181 C 
ENDROOT
BRANCH   8   2
ATOM      2  O   UNL     1       0.661  -1.956  -1.031  0.00  0.00    -0.388 OA
ATOM     20  H   UNL     1       0.655  -2.289  -0.118  0.00  0.00    +0.210 HD
ENDBRANCH   8   2
BRANCH   7   5
ATOM      5  N   UNL     1      -1.761   0.045  -0.950  0.00  0.00    -0.306 NA
ATOM     19  H   UNL     1      -1.883  -0.829  -1.461  0.00  0.00    +0.123 HD
BRANCH   5  10
ATOM      3  O   UNL     1      -5.622  -0.351   0.649  0.00  0.00    -0.380 OA
ATOM     10  C   UNL     1      -2.901   0.264  -0.064  0.00  0.00    +0.058 C 
ATOM     12  C   UNL     1      -4.098   0.795  -0.858  0.00  0.00    +0.047 C 
ATOM     13  C   UNL     1      -3.288  -1.027   0.665  0.00  0.00    +0.047 C 
ATOM     15  C   UNL     1      -5.324   0.906   0.042  0.00  0.00    +0.161 C 
ATOM     16  C   UNL     1      -4.559  -0.815   1.481  0.00  0.00    +0.161 C 
ENDBRANCH   5  10
ENDBRANCH   7   5
BRANCH   9  14
ATOM     14  C   UNL     1       3.104   0.136  -1.014  0.00  0.00    +0.138 C 
BRANCH  14   6
ATOM      4  O   UNL     1       5.034  -1.365   0.552  0.00  0.00    -0.276 OA
ATOM      6  N   UNL     1       4.182   0.659  -0.226  0.00  0.00    -0.313 N 
ATOM     17  C   UNL     1       5.063  -0.139   0.496  0.00  0.00    +0.210 C 
ATOM     18  C   UNL     1       6.115   0.664   1.214  0.00  0.00    +0.109 C 
ATOM     21  H   UNL     1       4.299   1.668  -0.198  0.00  0.00    +0.149 HD
ENDBRANCH  14   6
ENDBRANCH   9  14
TORSDOF 5
