REMARK  Name = 11885878
REMARK  3 active torsions:
REMARK  status: ('A' for Active; 'I' for Inactive)
REMARK    1  A    between atoms: N_8  and  C_19
REMARK    2  A    between atoms: C_18  and  C_21
REMARK    3  A    between atoms: C_24  and  C_28
REMARK                            x       y       z     vdW  Elec       q    Type
REMARK                         _______ _______ _______ _____ _____    ______ ____
ROOT
ATOM      3  O   UNL     1       0.680   2.545   1.228  0.00  0.00    -0.266 OA
ATOM      4  O   UNL     1      -3.430  -0.259   2.649  0.00  0.00    -0.270 OA
ATOM      6  N   UNL     1      -3.890   0.660   0.547  0.00  0.00    -0.297 N 
ATOM      7  N   UNL     1      -1.175   2.151  -0.138  0.00  0.00    -0.310 N 
ATOM      9  C   UNL     1      -3.496   3.111   0.369  0.00  0.00    +0.027 C 
ATOM     10  C   UNL     1      -3.168   1.673  -1.603  0.00  0.00    +0.054 C 
ATOM     11  C   UNL     1      -3.703   3.027  -1.140  0.00  0.00    +0.018 C 
ATOM     12  C   UNL     1      -4.252   1.974   1.079  0.00  0.00    +0.113 C 
ATOM     13  C   UNL     1      -1.991   3.075   0.663  0.00  0.00    +0.130 C 
ATOM     14  C   UNL     1      -3.962   0.542  -0.918  0.00  0.00    +0.117 C 
ATOM     15  C   UNL     1      -1.693   1.530  -1.278  0.00  0.00    +0.027 A 
ATOM     16  C   UNL     1      -0.898   0.780  -2.061  0.00  0.00    +0.024 A 
ATOM     17  C   UNL     1       0.174   2.005   0.243  0.00  0.00    +0.273 A 
ATOM     18  C   UNL     1      -3.493  -0.352   1.424  0.00  0.00    +0.247 C 
ATOM     19  C   UNL     1       1.020   1.139  -0.639  0.00  0.00    +0.099 A 
ATOM     20  C   UNL     1       0.485   0.583  -1.731  0.00  0.00    +0.030 A 
ENDROOT
BRANCH  18  21
ATOM      1  F   UNL     1      -1.971  -5.267  -0.763  0.00  0.00    -0.205 F 
ATOM     21  C   UNL     1      -3.094  -1.641   0.850  0.00  0.00    +0.037 A 
ATOM     22  C   UNL     1      -1.763  -1.864   0.507  0.00  0.00    +0.016 A 
ATOM     23  C   UNL     1      -4.048  -2.636   0.652  0.00  0.00    +0.016 A 
ATOM     25  C   UNL     1      -1.383  -3.091  -0.038  0.00  0.00    +0.039 A 
ATOM     26  C   UNL     1      -3.668  -3.862   0.106  0.00  0.00    +0.039 A 
ATOM     27  C   UNL     1      -2.336  -4.090  -0.239  0.00  0.00    +0.123 A 
ENDBRANCH  18  21
BRANCH  19   8
ATOM      5  O   UNL     1       2.621  -1.143  -1.250  0.00  0.00    -0.270 OA
ATOM      8  N   UNL     1       2.327   0.958  -0.295  0.00  0.00    -0.277 N 
ATOM     24  C   UNL     1       3.053  -0.179  -0.623  0.00  0.00    +0.248 C 
ATOM     34  H   UNL     1       2.702   1.645   0.350  0.00  0.00    +0.155 HD
BRANCH  24  28
ATOM      2  F   UNL     1       8.384  -0.207   1.039  0.00  0.00    -0.205 F 
ATOM     28  C   UNL     1       4.472  -0.187  -0.180  0.00  0.00    +0.037 A 
ATOM     29  C   UNL     1       5.387  -0.933  -0.892  0.00  0.00    +0.016 A 
ATOM     30  C   UNL     1       4.828   0.554   0.928  0.00  0.00    +0.016 A 
ATOM     31  C   UNL     1       6.719  -0.941  -0.477  0.00  0.00    +0.039 A 
ATOM     32  C   UNL     1       6.159   0.547   1.343  0.00  0.00    +0.039 A 
ATOM     33  C   UNL     1       7.105  -0.200   0.640  0.00  0.00    +0.123 A 
ENDBRANCH  24  28
ENDBRANCH  19   8
TORSDOF 3
