REMARK  Name = 11913347
REMARK  4 active torsions:
REMARK  status: ('A' for Active; 'I' for Inactive)
REMARK    1  A    between atoms: N_5  and  C_11
REMARK    2  A    between atoms: N_6  and  C_12
REMARK    3  A    between atoms: C_16  and  C_17
REMARK    4  A    between atoms: C_18  and  C_23
REMARK                            x       y       z     vdW  Elec       q    Type
REMARK                         _______ _______ _______ _____ _____    ______ ____
ROOT
ATOM      2  O   UNL     1      -1.177   3.640   0.745  0.00  0.00    -0.370 OA
ATOM      3  O   UNL     1      -0.544   0.780   1.835  0.00  0.00    -0.370 OA
ATOM      9  C   UNL     1      -0.274   1.443   0.589  0.00  0.00    +0.171 C 
ATOM     10  C   UNL     1      -1.474   2.315   0.273  0.00  0.00    +0.171 C 
ATOM     11  C   UNL     1       0.863   2.424   0.753  0.00  0.00    +0.130 C 
ATOM     12  C   UNL     1      -2.594   1.711   1.085  0.00  0.00    +0.130 C 
ATOM     13  C   UNL     1       0.159   3.666   1.268  0.00  0.00    +0.185 C 
ATOM     14  C   UNL     1      -1.865   1.126   2.278  0.00  0.00    +0.185 C 
ENDROOT
BRANCH  11   5
ATOM      5  N   UNL     1       1.475   2.692  -0.530  0.00  0.00    -0.306 N 
ATOM      7  N   UNL     1       2.877   0.816  -0.376  0.00  0.00    -0.214 NA
ATOM      8  N   UNL     1       2.954   2.264  -2.301  0.00  0.00    -0.223 NA
ATOM     15  C   UNL     1       2.465   1.901  -1.086  0.00  0.00    +0.216 A 
ATOM     18  C   UNL     1       3.843   0.068  -0.947  0.00  0.00    +0.076 A 
ATOM     21  C   UNL     1       3.918   1.471  -2.813  0.00  0.00    +0.116 A 
ATOM     22  C   UNL     1       4.406   0.349  -2.175  0.00  0.00    +0.048 A 
ATOM     32  H   UNL     1       1.139   3.466  -1.090  0.00  0.00    +0.149 HD
BRANCH  18  23
ATOM      1  F   UNL     1       2.908  -3.441   2.237  0.00  0.00    -0.205 F 
ATOM     23  C   UNL     1       4.266  -1.079  -0.178  0.00  0.00    +0.003 A 
ATOM     27  C   UNL     1       3.365  -1.720   0.675  0.00  0.00    +0.048 A 
ATOM     28  C   UNL     1       5.576  -1.550  -0.285  0.00  0.00    +0.010 A 
ATOM     29  C   UNL     1       3.773  -2.828   1.419  0.00  0.00    +0.124 A 
ATOM     30  C   UNL     1       5.984  -2.658   0.458  0.00  0.00    +0.003 A 
ATOM     31  C   UNL     1       5.082  -3.297   1.310  0.00  0.00    +0.038 A 
ENDBRANCH  18  23
ENDBRANCH  11   5
BRANCH  12   6
ATOM      4  O   UNL     1      -5.295   0.709   1.378  0.00  0.00    -0.270 OA
ATOM      6  N   UNL     1      -3.237   0.620   0.312  0.00  0.00    -0.304 N 
ATOM     16  C   UNL     1      -4.546   0.219   0.537  0.00  0.00    +0.244 C 
ATOM     33  H   UNL     1      -2.640   0.096  -0.318  0.00  0.00    +0.149 HD
BRANCH  16  17
ATOM     17  C   UNL     1      -5.034  -0.906  -0.302  0.00  0.00    +0.037 A 
ATOM     19  C   UNL     1      -6.037  -1.717   0.187  0.00  0.00    +0.013 A 
ATOM     20  C   UNL     1      -4.471  -1.101  -1.546  0.00  0.00    +0.013 A 
ATOM     24  C   UNL     1      -6.496  -2.771  -0.602  0.00  0.00    +0.001 A 
ATOM     25  C   UNL     1      -4.930  -2.155  -2.336  0.00  0.00    +0.001 A 
ATOM     26  C   UNL     1      -5.942  -2.990  -1.864  0.00  0.00    +0.000 A 
ENDBRANCH  16  17
ENDBRANCH  12   6
TORSDOF 4
