REMARK  Name = 25313771
REMARK  8 active torsions:
REMARK  status: ('A' for Active; 'I' for Inactive)
REMARK    1  A    between atoms: C_6  and  C_9
REMARK    2  A    between atoms: C_7  and  C_11
REMARK    3  A    between atoms: C_9  and  C_17
REMARK    4  A    between atoms: C_11  and  C_22
REMARK    5  A    between atoms: C_13  and  C_26
REMARK    6  A    between atoms: C_14  and  C_23
REMARK    7  A    between atoms: C_23  and  C_28
REMARK    8  A    between atoms: C_26  and  C_30
REMARK                            x       y       z     vdW  Elec       q    Type
REMARK                         _______ _______ _______ _____ _____    ______ ____
ROOT
ATOM      4  N   UNL     1       4.981   3.955   0.936  0.00  0.00    -0.316 NA
ATOM      6  C   UNL     1       3.158   1.645   0.709  0.00  0.00    +0.004 C 
ATOM      7  C   UNL     1       4.273   1.936  -0.325  0.00  0.00    +0.012 C 
ATOM      8  C   UNL     1       3.540   2.288   2.053  0.00  0.00    +0.019 C 
ATOM     10  C   UNL     1       4.617   3.434  -0.382  0.00  0.00    +0.085 C 
ATOM     12  C   UNL     1       3.908   3.764   1.910  0.00  0.00    +0.081 C 
ATOM     36  H   UNL     1       5.194   4.949   0.859  0.00  0.00    +0.122 HD
ENDROOT
BRANCH   6   9
ATOM      9  C   UNL     1       1.762   2.099   0.265  0.00  0.00    +0.100 C 
BRANCH   9  17
ATOM      2  O   UNL     1       1.054   0.502   1.865  0.00  0.00    -0.276 OA
ATOM      3  N   UNL     1      -0.620   1.683   0.769  0.00  0.00    -0.301 N 
ATOM     13  C   UNL     1      -3.232   1.413  -0.462  0.00  0.00    -0.004 C 
ATOM     15  C   UNL     1      -2.059   2.086  -1.191  0.00  0.00    +0.023 C 
ATOM     16  C   UNL     1      -2.708   0.392   0.558  0.00  0.00    +0.023 C 
ATOM     17  C   UNL     1       0.707   1.353   1.042  0.00  0.00    +0.216 C 
ATOM     18  C   UNL     1      -1.063   2.689  -0.202  0.00  0.00    +0.108 C 
ATOM     19  C   UNL     1      -1.700   1.031   1.511  0.00  0.00    +0.108 C 
BRANCH  13  26
ATOM     26  C   UNL     1      -4.181   0.749  -1.457  0.00  0.00    +0.038 C 
BRANCH  26  30
ATOM     30  C   UNL     1      -5.550   0.545  -0.867  0.00  0.00    -0.047 A 
ATOM     31  C   UNL     1      -5.848  -0.636  -0.189  0.00  0.00    +0.003 A 
ATOM     32  C   UNL     1      -6.521   1.538  -0.998  0.00  0.00    +0.003 A 
ATOM     33  C   UNL     1      -7.117  -0.826   0.358  0.00  0.00    +0.000 A 
ATOM     34  C   UNL     1      -7.790   1.349  -0.451  0.00  0.00    +0.000 A 
ATOM     35  C   UNL     1      -8.088   0.167   0.227  0.00  0.00    +0.000 A 
ENDBRANCH  26  30
ENDBRANCH  13  26
ENDBRANCH   9  17
ENDBRANCH   6   9
BRANCH   7  11
ATOM     11  C   UNL     1       3.948   1.405  -1.722  0.00  0.00    +0.064 C 
BRANCH  11  22
ATOM      1  O   UNL     1       4.153  -2.188  -1.802  0.00  0.00    -0.359 OA
ATOM      5  N   UNL     1       4.720  -0.921  -1.881  0.00  0.00    -0.083 NA
ATOM     22  C   UNL     1       3.702  -0.075  -1.701  0.00  0.00    +0.084 A 
ATOM     28  C   UNL     1       2.819  -2.069  -1.578  0.00  0.00    +0.138 A 
ATOM     29  C   UNL     1       2.481  -0.744  -1.505  0.00  0.00    +0.071 A 
BRANCH  28  23
ATOM     23  C   UNL     1       2.059  -3.320  -1.466  0.00  0.00    +0.080 C 
BRANCH  23  14
ATOM     14  C   UNL     1       1.708  -3.683  -0.024  0.00  0.00    -0.004 C 
ATOM     20  C   UNL     1       0.516  -2.852   0.470  0.00  0.00    +0.004 C 
ATOM     21  C   UNL     1       1.417  -5.184   0.101  0.00  0.00    +0.004 C 
ATOM     24  C   UNL     1       0.113  -3.235   1.891  0.00  0.00    +0.000 C 
ATOM     25  C   UNL     1       1.011  -5.563   1.523  0.00  0.00    +0.000 C 
ATOM     27  C   UNL     1      -0.168  -4.729   2.014  0.00  0.00    +0.000 C 
ENDBRANCH  23  14
ENDBRANCH  28  23
ENDBRANCH  11  22
ENDBRANCH   7  11
TORSDOF 8
