REMARK  Name = 75536980
REMARK  5 active torsions:
REMARK  status: ('A' for Active; 'I' for Inactive)
REMARK    1  A    between atoms: O_3  and  C_17
REMARK    2  A    between atoms: O_3  and  C_22
REMARK    3  A    between atoms: N_5  and  C_14
REMARK    4  A    between atoms: C_14  and  C_16
REMARK    5  A    between atoms: C_15  and  C_17
REMARK                            x       y       z     vdW  Elec       q    Type
REMARK                         _______ _______ _______ _____ _____    ______ ____
ROOT
ATOM      1  O   UNL     1       1.662  -2.723   0.271  0.00  0.00    -0.252 OA
ATOM      2  O   UNL     1      -4.890  -0.776  -1.042  0.00  0.00    -0.273 OA
ATOM      4  N   UNL     1      -0.311  -1.451   0.346  0.00  0.00    -0.278 N 
ATOM      5  N   UNL     1       1.570  -0.550   1.182  0.00  0.00    -0.278 N 
ATOM      6  N   UNL     1      -2.660  -0.299  -0.602  0.00  0.00    -0.296 N 
ATOM      8  C   UNL     1      -0.735  -0.185   0.920  0.00  0.00    +0.112 C 
ATOM      9  C   UNL     1       0.577   0.504   1.288  0.00  0.00    +0.133 C 
ATOM     10  C   UNL     1      -1.605   0.584  -0.071  0.00  0.00    +0.132 C 
ATOM     11  C   UNL     1      -1.292  -2.328  -0.267  0.00  0.00    +0.128 C 
ATOM     12  C   UNL     1      -2.169  -1.534  -1.232  0.00  0.00    +0.127 C 
ATOM     13  C   UNL     1       1.050  -1.706   0.566  0.00  0.00    +0.306 C 
ATOM     15  C   UNL     1      -4.028  -0.032  -0.569  0.00  0.00    +0.241 C 
ENDROOT
BRANCH   5  14
ATOM     14  C   UNL     1       2.952  -0.341   1.554  0.00  0.00    +0.164 C 
BRANCH  14  16
ATOM      7  N   UNL     1       4.014   1.648   0.649  0.00  0.00    -0.258 NA
ATOM     16  C   UNL     1       3.730   0.339   0.464  0.00  0.00    +0.059 A 
ATOM     18  C   UNL     1       4.111  -0.388  -0.652  0.00  0.00    +0.025 A 
ATOM     19  C   UNL     1       4.831   0.271  -1.643  0.00  0.00    +0.003 A 
ATOM     20  C   UNL     1       4.715   2.255  -0.335  0.00  0.00    +0.111 A 
ATOM     21  C   UNL     1       5.143   1.617  -1.489  0.00  0.00    +0.020 A 
ENDBRANCH  14  16
ENDBRANCH   5  14
BRANCH  15  17
ATOM     17  C   UNL     1      -4.447   1.254   0.098  0.00  0.00    +0.255 C 
BRANCH  17   3
ATOM      3  O   UNL     1      -5.848   1.329  -0.017  0.00  0.00    -0.374 OA
ATOM     22  C   UNL     1      -6.372   2.513   0.581  0.00  0.00    +0.194 C 
ENDBRANCH  17   3
ENDBRANCH  15  17
TORSDOF 4
