REMARK  Name = 75367021
REMARK  8 active torsions:
REMARK  status: ('A' for Active; 'I' for Inactive)
REMARK    1  A    between atoms: O_3  and  C_12
REMARK    2  A    between atoms: N_7  and  C_16
REMARK    3  A    between atoms: N_8  and  C_19
REMARK    4  A    between atoms: C_10  and  C_15
REMARK    5  A    between atoms: C_11  and  C_16
REMARK    6  A    between atoms: C_15  and  C_17
REMARK    7  A    between atoms: C_19  and  C_20
REMARK    8  A    between atoms: C_25  and  C_26
REMARK                            x       y       z     vdW  Elec       q    Type
REMARK                         _______ _______ _______ _____ _____    ______ ____
ROOT
ATOM      2  O   UNL     1       3.161  -0.304   0.570  0.00  0.00    -0.369 OA
ATOM     10  C   UNL     1       3.172  -1.560  -0.114  0.00  0.00    +0.125 C 
ATOM     11  C   UNL     1       3.691   0.800  -0.174  0.00  0.00    +0.164 C 
ATOM     12  C   UNL     1       5.117   0.513  -0.660  0.00  0.00    +0.145 C 
ATOM     13  C   UNL     1       4.596  -1.943  -0.514  0.00  0.00    +0.034 C 
ATOM     14  C   UNL     1       5.233  -0.841  -1.356  0.00  0.00    +0.036 C 
ENDROOT
BRANCH  12   3
ATOM      3  O   UNL     1       5.995   0.499   0.468  0.00  0.00    -0.389 OA
ATOM     32  H   UNL     1       6.899   0.363   0.136  0.00  0.00    +0.210 HD
ENDBRANCH  12   3
BRANCH  10  15
ATOM     15  C   UNL     1       2.574  -2.599   0.827  0.00  0.00    +0.090 C 
BRANCH  15  17
ATOM      4  O   UNL     1      -0.882  -1.872   1.541  0.00  0.00    -0.358 OA
ATOM      9  N   UNL     1       0.480  -1.720   1.771  0.00  0.00    -0.083 NA
ATOM     17  C   UNL     1       1.073  -2.511   0.873  0.00  0.00    +0.086 A 
ATOM     18  C   UNL     1       0.144  -3.182   0.058  0.00  0.00    +0.072 A 
ATOM     20  C   UNL     1      -1.069  -2.745   0.518  0.00  0.00    +0.151 A 
BRANCH  20  19
ATOM     19  C   UNL     1      -2.460  -3.023   0.140  0.00  0.00    +0.161 C 
BRANCH  19   8
ATOM      5  O   UNL     1      -5.034  -0.433  -1.928  0.00  0.00    -0.377 OA
ATOM      8  N   UNL     1      -3.199  -1.826  -0.257  0.00  0.00    -0.291 NA
ATOM     21  C   UNL     1      -4.648  -2.054  -0.165  0.00  0.00    +0.113 C 
ATOM     22  C   UNL     1      -2.840  -1.420  -1.623  0.00  0.00    +0.113 C 
ATOM     23  C   UNL     1      -5.399  -0.797  -0.596  0.00  0.00    +0.175 C 
ATOM     24  C   UNL     1      -3.632  -0.178  -2.019  0.00  0.00    +0.175 C 
ENDBRANCH  19   8
ENDBRANCH  20  19
ENDBRANCH  15  17
ENDBRANCH  10  15
BRANCH  11  16
ATOM     16  C   UNL     1       2.746   1.207  -1.303  0.00  0.00    +0.138 C 
BRANCH  16   7
ATOM      6  O   UNL     1       1.721   3.722  -0.371  0.00  0.00    -0.270 OA
ATOM      7  N   UNL     1       1.429   1.461  -0.804  0.00  0.00    -0.309 N 
ATOM     25  C   UNL     1       1.014   2.718  -0.370  0.00  0.00    +0.244 C 
ATOM     33  H   UNL     1       0.780   0.681  -0.815  0.00  0.00    +0.149 HD
BRANCH  25  26
ATOM      1  F   UNL     1      -2.885   0.700   1.722  0.00  0.00    -0.205 F 
ATOM     26  C   UNL     1      -0.377   2.811   0.145  0.00  0.00    +0.039 A 
ATOM     27  C   UNL     1      -0.990   1.689   0.703  0.00  0.00    +0.051 A 
ATOM     28  C   UNL     1      -1.069   4.019   0.069  0.00  0.00    +0.013 A 
ATOM     29  C   UNL     1      -2.296   1.776   1.185  0.00  0.00    +0.124 A 
ATOM     30  C   UNL     1      -2.375   4.106   0.552  0.00  0.00    +0.004 A 
ATOM     31  C   UNL     1      -2.989   2.985   1.110  0.00  0.00    +0.038 A 
ENDBRANCH  25  26
ENDBRANCH  16   7
ENDBRANCH  11  16
TORSDOF 8
