REMARK  Name = 7673889
REMARK  4 active torsions:
REMARK  status: ('A' for Active; 'I' for Inactive)
REMARK    1  A    between atoms: N_3  and  C_12
REMARK    2  A    between atoms: C_21  and  C_24
REMARK    3  A    between atoms: C_23  and  C_25
REMARK    4  A    between atoms: C_28  and  C_31
REMARK                            x       y       z     vdW  Elec       q    Type
REMARK                         _______ _______ _______ _____ _____    ______ ____
ROOT
ATOM      1  O   UNL     1      -2.204  -1.040   1.921  0.00  0.00    -0.267 OA
ATOM      3  N   UNL     1       2.405  -1.454  -0.011  0.00  0.00    -0.298 NA
ATOM      4  N   UNL     1      -0.692  -2.052   0.463  0.00  0.00    -0.311 N 
ATOM      7  C   UNL     1       1.370  -3.338   1.280  0.00  0.00    +0.024 C 
ATOM      8  C   UNL     1       0.934  -3.140  -1.121  0.00  0.00    +0.050 C 
ATOM      9  C   UNL     1       1.192  -4.143  -0.000  0.00  0.00    +0.017 C 
ATOM     10  C   UNL     1       2.558  -2.364   1.131  0.00  0.00    +0.090 C 
ATOM     11  C   UNL     1       2.148  -2.193  -1.256  0.00  0.00    +0.094 C 
ATOM     13  C   UNL     1       0.053  -2.617   1.598  0.00  0.00    +0.130 C 
ATOM     14  C   UNL     1      -0.332  -2.346  -0.854  0.00  0.00    +0.026 A 
ATOM     19  C   UNL     1      -1.091  -1.913  -1.873  0.00  0.00    +0.022 A 
ATOM     20  C   UNL     1      -1.836  -1.291   0.772  0.00  0.00    +0.259 A 
ATOM     21  C   UNL     1      -2.648  -0.790  -0.392  0.00  0.00    +0.047 A 
ATOM     22  C   UNL     1      -2.262  -1.119  -1.634  0.00  0.00    +0.015 A 
ENDROOT
BRANCH   3  12
ATOM      2  O   UNL     1       5.048   3.940   1.240  0.00  0.00    -0.276 OA
ATOM      5  N   UNL     1       4.767   2.050  -0.081  0.00  0.00    -0.302 N 
ATOM     12  C   UNL     1       3.572  -0.586  -0.149  0.00  0.00    +0.060 C 
ATOM     15  C   UNL     1       3.342   0.429  -1.276  0.00  0.00    +0.038 C 
ATOM     16  C   UNL     1       3.851   0.137   1.175  0.00  0.00    +0.038 C 
ATOM     17  C   UNL     1       4.511   1.409  -1.377  0.00  0.00    +0.109 C 
ATOM     18  C   UNL     1       5.009   1.122   1.025  0.00  0.00    +0.109 C 
ATOM     23  C   UNL     1       4.832   3.425   0.140  0.00  0.00    +0.212 C 
ATOM     25  C   UNL     1       4.616   4.313  -1.059  0.00  0.00    +0.109 C 
ENDBRANCH   3  12
BRANCH  21  24
ATOM     24  C   UNL     1      -3.840   0.051  -0.185  0.00  0.00    -0.011 A 
ATOM     26  C   UNL     1      -3.715   1.440  -0.134  0.00  0.00    +0.027 A 
ATOM     27  C   UNL     1      -5.096  -0.540  -0.041  0.00  0.00    +0.009 A 
ATOM     28  C   UNL     1      -4.844   2.236   0.061  0.00  0.00    +0.052 A 
ATOM     29  C   UNL     1      -6.224   0.256   0.155  0.00  0.00    +0.002 A 
ATOM     30  C   UNL     1      -6.098   1.644   0.206  0.00  0.00    +0.019 A 
BRANCH  28  31
ATOM      6  N   UNL     1      -4.611   4.815   0.158  0.00  0.00    -0.191 NA
ATOM     31  C   UNL     1      -4.715   3.659   0.115  0.00  0.00    +0.099 C 
ENDBRANCH  28  31
ENDBRANCH  21  24
TORSDOF 3
