REMARK  Name = 40777690
REMARK  9 active torsions:
REMARK  status: ('A' for Active; 'I' for Inactive)
REMARK    1  A    between atoms: O_2  and  C_10
REMARK    2  A    between atoms: O_2  and  C_19
REMARK    3  A    between atoms: O_4  and  C_24
REMARK    4  A    between atoms: O_4  and  C_30
REMARK    5  A    between atoms: N_5  and  C_18
REMARK    6  A    between atoms: N_7  and  C_25
REMARK    7  A    between atoms: C_8  and  C_11
REMARK    8  A    between atoms: C_14  and  C_16
REMARK    9  A    between atoms: C_15  and  C_17
REMARK                            x       y       z     vdW  Elec       q    Type
REMARK                         _______ _______ _______ _____ _____    ______ ____
ROOT
ATOM      8  C   UNL     1      -0.552   2.877   0.226  0.00  0.00    +0.049 C 
ATOM      9  C   UNL     1       0.696   2.123  -0.271  0.00  0.00    +0.061 C 
ATOM     10  C   UNL     1       1.756   2.305   0.820  0.00  0.00    +0.202 C 
ATOM     12  C   UNL     1      -0.311   2.968   1.704  0.00  0.00    -0.019 C 
ATOM     13  C   UNL     1       0.947   2.650   2.025  0.00  0.00    +0.013 C 
ENDROOT
BRANCH   8  11
ATOM      5  N   UNL     1      -3.494   0.784  -0.395  0.00  0.00    -0.236 N 
ATOM      6  N   UNL     1      -3.912   1.863  -1.077  0.00  0.00    -0.171 NA
ATOM     11  C   UNL     1      -1.849   2.201  -0.155  0.00  0.00    +0.003 A 
ATOM     14  C   UNL     1      -2.264   0.935   0.177  0.00  0.00    +0.046 A 
ATOM     15  C   UNL     1      -2.903   2.726  -0.928  0.00  0.00    +0.064 A 
ATOM     16  C   UNL     1      -1.606  -0.120   0.975  0.00  0.00    +0.066 C 
ATOM     17  C   UNL     1      -2.992   4.060  -1.548  0.00  0.00    +0.068 C 
BRANCH   5  18
ATOM     18  C   UNL     1      -4.306  -0.349  -0.327  0.00  0.00    +0.066 A 
ATOM     20  C   UNL     1      -4.744  -0.819   0.911  0.00  0.00    +0.031 A 
ATOM     21  C   UNL     1      -4.681  -1.010  -1.497  0.00  0.00    +0.031 A 
ATOM     22  C   UNL     1      -5.557  -1.951   0.979  0.00  0.00    +0.048 A 
ATOM     23  C   UNL     1      -5.494  -2.141  -1.429  0.00  0.00    +0.048 A 
ATOM     24  C   UNL     1      -5.932  -2.611  -0.191  0.00  0.00    +0.120 A 
BRANCH  24   4
ATOM      4  O   UNL     1      -6.724  -3.716  -0.125  0.00  0.00    -0.495 OA
ATOM     30  C   UNL     1      -7.134  -4.144   1.173  0.00  0.00    +0.277 C 
ENDBRANCH  24   4
ENDBRANCH   5  18
ENDBRANCH   8  11
BRANCH  10   2
ATOM      2  O   UNL     1       2.471   1.097   1.010  0.00  0.00    -0.443 OA
BRANCH   2  19
ATOM      3  O   UNL     1       4.037   1.790  -0.505  0.00  0.00    -0.226 OA
ATOM      7  N   UNL     1       4.196  -0.279   0.578  0.00  0.00    -0.251 N 
ATOM     19  C   UNL     1       3.625   0.943   0.277  0.00  0.00    +0.405 C 
ATOM     32  H   UNL     1       3.702  -0.850   1.259  0.00  0.00    +0.158 HD
BRANCH   7  25
ATOM      1  F   UNL     1       7.389  -3.856   0.368  0.00  0.00    -0.205 F 
ATOM     25  C   UNL     1       5.384  -0.836   0.055  0.00  0.00    +0.039 A 
ATOM     26  C   UNL     1       5.809  -2.096   0.479  0.00  0.00    +0.061 A 
ATOM     27  C   UNL     1       6.132  -0.129  -0.887  0.00  0.00    +0.023 A 
ATOM     28  C   UNL     1       6.981  -2.647  -0.039  0.00  0.00    +0.125 A 
ATOM     29  C   UNL     1       7.304  -0.680  -1.404  0.00  0.00    +0.005 A 
ATOM     31  C   UNL     1       7.728  -1.940  -0.980  0.00  0.00    +0.038 A 
ENDBRANCH   7  25
ENDBRANCH   2  19
ENDBRANCH  10   2
TORSDOF 6
