REMARK  Name = 11882886
REMARK  2 active torsions:
REMARK  status: ('A' for Active; 'I' for Inactive)
REMARK    1  A    between atoms: N_5  and  C_8
REMARK    2  A    between atoms: C_17  and  C_20
REMARK                            x       y       z     vdW  Elec       q    Type
REMARK                         _______ _______ _______ _____ _____    ______ ____
ROOT
ATOM      1  O   UNL     1      -0.888   2.063  -1.215  0.00  0.00    -0.273 OA
ATOM      2  O   UNL     1      -3.556  -2.406  -0.889  0.00  0.00    -0.270 OA
ATOM      4  N   UNL     1      -1.762  -0.993  -0.474  0.00  0.00    -0.286 N 
ATOM      6  N   UNL     1      -3.034   1.679  -0.526  0.00  0.00    -0.283 N 
ATOM      8  C   UNL     1       1.099  -0.424  -0.608  0.00  0.00    +0.077 C 
ATOM      9  C   UNL     1      -1.251   0.172   0.239  0.00  0.00    +0.164 C 
ATOM     10  C   UNL     1       0.253   0.130   0.538  0.00  0.00    +0.054 C 
ATOM     11  C   UNL     1       0.537  -1.773  -1.044  0.00  0.00    +0.041 C 
ATOM     12  C   UNL     1      -0.910  -1.628  -1.483  0.00  0.00    +0.111 C 
ATOM     13  C   UNL     1      -1.688   1.370  -0.585  0.00  0.00    +0.238 C 
ATOM     14  C   UNL     1      -3.101  -1.376  -0.391  0.00  0.00    +0.249 C 
ATOM     15  C   UNL     1      -4.065  -0.460   0.276  0.00  0.00    +0.058 A 
ATOM     16  C   UNL     1      -4.064   0.936   0.094  0.00  0.00    +0.046 A 
ATOM     18  C   UNL     1      -5.137  -1.072   0.947  0.00  0.00    +0.015 A 
ATOM     19  C   UNL     1      -5.174   1.677   0.533  0.00  0.00    +0.024 A 
ATOM     21  C   UNL     1      -6.206  -0.313   1.420  0.00  0.00    +0.001 A 
ATOM     22  C   UNL     1      -6.231   1.060   1.201  0.00  0.00    +0.002 A 
ATOM     28  H   UNL     1      -3.293   2.595  -0.883  0.00  0.00    +0.155 HD
ENDROOT
BRANCH   8   5
ATOM      3  O   UNL     1       3.075   1.572  -0.865  0.00  0.00    -0.270 OA
ATOM      5  N   UNL     1       2.481  -0.548  -0.209  0.00  0.00    -0.308 N 
ATOM     17  C   UNL     1       3.398   0.490  -0.371  0.00  0.00    +0.244 C 
ATOM     27  H   UNL     1       2.768  -1.436   0.188  0.00  0.00    +0.149 HD
BRANCH  17  20
ATOM      7  N   UNL     1       7.334  -0.279   1.031  0.00  0.00    -0.263 NA
ATOM     20  C   UNL     1       4.760   0.223   0.113  0.00  0.00    +0.040 A 
ATOM     23  C   UNL     1       5.829   0.885  -0.461  0.00  0.00    +0.033 A 
ATOM     24  C   UNL     1       4.954  -0.684   1.138  0.00  0.00    +0.033 A 
ATOM     25  C   UNL     1       7.092   0.599   0.032  0.00  0.00    +0.111 A 
ATOM     26  C   UNL     1       6.256  -0.899   1.559  0.00  0.00    +0.111 A 
ENDBRANCH  17  20
ENDBRANCH   8   5
TORSDOF 2
