REMARK  Name = 11941657
REMARK  7 active torsions:
REMARK  status: ('A' for Active; 'I' for Inactive)
REMARK    1  A    between atoms: O_4  and  C_32
REMARK    2  A    between atoms: O_4  and  C_34
REMARK    3  A    between atoms: N_5  and  C_12
REMARK    4  A    between atoms: N_6  and  C_13
REMARK    5  A    between atoms: N_7  and  C_18
REMARK    6  A    between atoms: C_18  and  C_22
REMARK    7  A    between atoms: C_19  and  C_23
REMARK                            x       y       z     vdW  Elec       q    Type
REMARK                         _______ _______ _______ _____ _____    ______ ____
ROOT
ATOM      1  O   UNL     1      -1.293   3.647   0.106  0.00  0.00    -0.370 OA
ATOM      2  O   UNL     1       0.288   1.738   2.002  0.00  0.00    -0.370 OA
ATOM     10  C   UNL     1      -0.015   1.701   0.597  0.00  0.00    +0.171 C 
ATOM     11  C   UNL     1      -1.417   2.251   0.424  0.00  0.00    +0.171 C 
ATOM     12  C   UNL     1       0.860   2.677  -0.154  0.00  0.00    +0.130 C 
ATOM     13  C   UNL     1      -2.051   2.077   1.786  0.00  0.00    +0.131 C 
ATOM     14  C   UNL     1       0.098   3.982  -0.016  0.00  0.00    +0.185 C 
ATOM     15  C   UNL     1      -0.861   2.215   2.718  0.00  0.00    +0.185 C 
ENDROOT
BRANCH  12   5
ATOM      5  N   UNL     1       0.948   2.294  -1.546  0.00  0.00    -0.306 N 
ATOM      8  N   UNL     1       2.691   0.819  -1.128  0.00  0.00    -0.214 NA
ATOM      9  N   UNL     1       1.812   1.118  -3.352  0.00  0.00    -0.223 NA
ATOM     16  C   UNL     1       1.857   1.370  -2.030  0.00  0.00    +0.216 A 
ATOM     19  C   UNL     1       3.564  -0.077  -1.634  0.00  0.00    +0.076 A 
ATOM     20  C   UNL     1       2.712   0.212  -3.789  0.00  0.00    +0.116 A 
ATOM     21  C   UNL     1       3.621  -0.423  -2.969  0.00  0.00    +0.048 A 
ATOM     35  H   UNL     1       0.282   2.673  -2.210  0.00  0.00    +0.149 HD
BRANCH  19  23
ATOM     23  C   UNL     1       4.460  -0.671  -0.670  0.00  0.00    +0.001 A 
ATOM     26  C   UNL     1       5.839  -0.517  -0.815  0.00  0.00    +0.013 A 
ATOM     27  C   UNL     1       3.948  -1.400   0.403  0.00  0.00    +0.013 A 
ATOM     30  C   UNL     1       6.706  -1.092   0.115  0.00  0.00    +0.046 A 
ATOM     31  C   UNL     1       4.815  -1.974   1.333  0.00  0.00    +0.046 A 
ATOM     32  C   UNL     1       6.194  -1.820   1.188  0.00  0.00    +0.120 A 
BRANCH  32   4
ATOM      4  O   UNL     1       7.040  -2.379   2.096  0.00  0.00    -0.495 OA
ATOM     34  C   UNL     1       6.450  -3.111   3.170  0.00  0.00    +0.277 C 
ENDBRANCH  32   4
ENDBRANCH  19  23
ENDBRANCH  12   5
BRANCH  13   6
ATOM      3  O   UNL     1      -4.819   1.412   1.313  0.00  0.00    -0.253 OA
ATOM      6  N   UNL     1      -2.667   0.779   1.913  0.00  0.00    -0.292 N 
ATOM      7  N   UNL     1      -4.347  -0.793   1.862  0.00  0.00    -0.295 N 
ATOM     17  C   UNL     1      -4.018   0.546   1.663  0.00  0.00    +0.300 C 
ATOM     36  H   UNL     1      -2.076  -0.018   2.132  0.00  0.00    +0.151 HD
ATOM     37  H   UNL     1      -3.613  -1.441   2.130  0.00  0.00    +0.151 HD
BRANCH   7  18
ATOM     18  C   UNL     1      -5.683  -1.307   1.673  0.00  0.00    +0.141 C 
BRANCH  18  22
ATOM     22  C   UNL     1      -5.910  -1.776   0.265  0.00  0.00    -0.030 A 
ATOM     24  C   UNL     1      -6.398  -0.890  -0.696  0.00  0.00    +0.005 A 
ATOM     25  C   UNL     1      -5.635  -3.098  -0.083  0.00  0.00    +0.005 A 
ATOM     28  C   UNL     1      -6.610  -1.326  -2.003  0.00  0.00    +0.000 A 
ATOM     29  C   UNL     1      -5.846  -3.534  -1.391  0.00  0.00    +0.000 A 
ATOM     33  C   UNL     1      -6.334  -2.648  -2.351  0.00  0.00    +0.000 A 
ENDBRANCH  18  22
ENDBRANCH   7  18
ENDBRANCH  13   6
TORSDOF 6
