REMARK  Name = 75536398
REMARK  10 active torsions:
REMARK  status: ('A' for Active; 'I' for Inactive)
REMARK    1  A    between atoms: O_2  and  C_11
REMARK    2  A    between atoms: O_5  and  C_31
REMARK    3  A    between atoms: O_5  and  C_32
REMARK    4  A    between atoms: N_6  and  C_10
REMARK    5  A    between atoms: N_6  and  C_13
REMARK    6  A    between atoms: C_9  and  C_13
REMARK    7  A    between atoms: C_12  and  C_20
REMARK    8  A    between atoms: C_20  and  C_21
REMARK    9  A    between atoms: C_22  and  C_24
REMARK   10  A    between atoms: C_25  and  C_26
REMARK                            x       y       z     vdW  Elec       q    Type
REMARK                         _______ _______ _______ _____ _____    ______ ____
ROOT
ATOM      1  O   UNL     1       3.312  -1.220   0.783  0.00  0.00    -0.369 OA
ATOM      9  C   UNL     1       3.988  -0.081   1.330  0.00  0.00    +0.161 C 
ATOM     11  C   UNL     1       5.487  -0.112   1.007  0.00  0.00    +0.145 C 
ATOM     12  C   UNL     1       3.477  -1.408  -0.624  0.00  0.00    +0.125 C 
ATOM     14  C   UNL     1       5.757  -0.366  -0.474  0.00  0.00    +0.036 C 
ATOM     15  C   UNL     1       4.956  -1.563  -0.977  0.00  0.00    +0.034 C 
ENDROOT
BRANCH  11   2
ATOM      2  O   UNL     1       6.096  -1.172   1.749  0.00  0.00    -0.389 OA
ATOM     34  H   UNL     1       7.051  -1.146   1.569  0.00  0.00    +0.210 HD
ENDBRANCH  11   2
BRANCH   9  13
ATOM     13  C   UNL     1       3.312   1.219   0.899  0.00  0.00    +0.115 C 
BRANCH  13   6
ATOM      6  N   UNL     1       1.898   1.217   1.245  0.00  0.00    -0.311 NA
ATOM     33  H   UNL     1       1.806   1.080   2.252  0.00  0.00    +0.122 HD
BRANCH   6  10
ATOM      3  O   UNL     1      -3.259   4.279  -0.111  0.00  0.00    -0.276 OA
ATOM      7  N   UNL     1      -0.968   3.926  -0.274  0.00  0.00    -0.302 N 
ATOM     10  C   UNL     1       1.268   2.477   0.859  0.00  0.00    +0.057 C 
ATOM     16  C   UNL     1       1.003   2.492  -0.652  0.00  0.00    +0.037 C 
ATOM     17  C   UNL     1      -0.042   2.670   1.635  0.00  0.00    +0.037 C 
ATOM     18  C   UNL     1       0.258   3.761  -1.065  0.00  0.00    +0.109 C 
ATOM     19  C   UNL     1      -0.765   3.935   1.176  0.00  0.00    +0.109 C 
ATOM     22  C   UNL     1      -2.248   4.106  -0.797  0.00  0.00    +0.212 C 
ATOM     24  C   UNL     1      -2.374   4.081  -2.299  0.00  0.00    +0.109 C 
ENDBRANCH   6  10
ENDBRANCH  13   6
ENDBRANCH   9  13
BRANCH  12  20
ATOM     20  C   UNL     1       2.692  -2.654  -1.016  0.00  0.00    +0.090 C 
BRANCH  20  21
ATOM      4  O   UNL     1      -0.667  -1.816  -2.017  0.00  0.00    -0.354 OA
ATOM      8  N   UNL     1       0.688  -1.980  -2.276  0.00  0.00    -0.083 NA
ATOM     21  C   UNL     1       1.216  -2.376  -1.114  0.00  0.00    +0.087 A 
ATOM     23  C   UNL     1       0.252  -2.478  -0.097  0.00  0.00    +0.076 A 
ATOM     25  C   UNL     1      -0.914  -2.115  -0.717  0.00  0.00    +0.167 A 
BRANCH  25  26
ATOM     26  C   UNL     1      -2.281  -1.993  -0.299  0.00  0.00    +0.020 A 
ATOM     27  C   UNL     1      -2.636  -2.282   1.019  0.00  0.00    +0.015 A 
ATOM     28  C   UNL     1      -3.255  -1.585  -1.210  0.00  0.00    +0.015 A 
ATOM     29  C   UNL     1      -3.965  -2.163   1.425  0.00  0.00    +0.046 A 
ATOM     30  C   UNL     1      -4.584  -1.466  -0.804  0.00  0.00    +0.046 A 
ATOM     31  C   UNL     1      -4.939  -1.755   0.513  0.00  0.00    +0.120 A 
BRANCH  31   5
ATOM      5  O   UNL     1      -6.235  -1.635   0.910  0.00  0.00    -0.495 OA
ATOM     32  C   UNL     1      -6.528  -1.944   2.273  0.00  0.00    +0.277 C 
ENDBRANCH  31   5
ENDBRANCH  25  26
ENDBRANCH  20  21
ENDBRANCH  12  20
TORSDOF 8
