REMARK  Name = 26742991
REMARK  10 active torsions:
REMARK  status: ('A' for Active; 'I' for Inactive)
REMARK    1  A    between atoms: C_6  and  C_9
REMARK    2  A    between atoms: C_7  and  C_13
REMARK    3  A    between atoms: C_9  and  C_18
REMARK    4  A    between atoms: C_11  and  C_19
REMARK    5  A    between atoms: C_13  and  C_20
REMARK    6  A    between atoms: C_19  and  C_21
REMARK    7  A    between atoms: C_23  and  C_26
REMARK    8  A    between atoms: C_26  and  C_27
REMARK    9  A    between atoms: C_27  and  C_31
REMARK   10  A    between atoms: C_31  and  C_32
REMARK                            x       y       z     vdW  Elec       q    Type
REMARK                         _______ _______ _______ _____ _____    ______ ____
ROOT
ATOM      4  N   UNL     1       3.066  -2.600   2.164  0.00  0.00    -0.316 NA
ATOM      6  C   UNL     1       1.308  -2.281  -0.184  0.00  0.00    +0.004 C 
ATOM      7  C   UNL     1       2.535  -1.373   0.071  0.00  0.00    +0.012 C 
ATOM      8  C   UNL     1       1.520  -3.625   0.533  0.00  0.00    +0.019 C 
ATOM     10  C   UNL     1       2.868  -1.277   1.570  0.00  0.00    +0.085 C 
ATOM     12  C   UNL     1       1.887  -3.449   2.006  0.00  0.00    +0.081 C 
ATOM     33  H   UNL     1       3.276  -2.496   3.156  0.00  0.00    +0.122 HD
ENDROOT
BRANCH   6   9
ATOM      9  C   UNL     1      -0.030  -1.651   0.223  0.00  0.00    +0.100 C 
BRANCH   9  18
ATOM      1  O   UNL     1      -0.907  -3.239  -1.301  0.00  0.00    -0.276 OA
ATOM      3  N   UNL     1      -2.451  -1.891  -0.207  0.00  0.00    -0.301 N 
ATOM     11  C   UNL     1      -4.895  -0.375  -0.583  0.00  0.00    -0.004 C 
ATOM     14  C   UNL     1      -3.650   0.245   0.071  0.00  0.00    +0.023 C 
ATOM     15  C   UNL     1      -4.485  -1.503  -1.541  0.00  0.00    +0.023 C 
ATOM     16  C   UNL     1      -2.785  -0.822   0.741  0.00  0.00    +0.108 C 
ATOM     17  C   UNL     1      -3.605  -2.533  -0.837  0.00  0.00    +0.108 C 
ATOM     18  C   UNL     1      -1.162  -2.337  -0.499  0.00  0.00    +0.216 C 
BRANCH  11  19
ATOM     19  C   UNL     1      -5.711   0.689  -1.313  0.00  0.00    +0.038 C 
BRANCH  19  21
ATOM     21  C   UNL     1      -6.543   1.502  -0.359  0.00  0.00    -0.047 A 
ATOM     24  C   UNL     1      -7.838   1.094  -0.042  0.00  0.00    +0.003 A 
ATOM     25  C   UNL     1      -6.018   2.663   0.208  0.00  0.00    +0.003 A 
ATOM     28  C   UNL     1      -8.610   1.848   0.843  0.00  0.00    +0.000 A 
ATOM     29  C   UNL     1      -6.789   3.417   1.093  0.00  0.00    +0.000 A 
ATOM     30  C   UNL     1      -8.085   3.010   1.411  0.00  0.00    +0.000 A 
ENDBRANCH  19  21
ENDBRANCH  11  19
ENDBRANCH   9  18
ENDBRANCH   6   9
BRANCH   7  13
ATOM     13  C   UNL     1       2.384   0.022  -0.536  0.00  0.00    +0.064 C 
BRANCH  13  20
ATOM      2  O   UNL     1       5.543   1.229  -1.770  0.00  0.00    -0.359 OA
ATOM      5  N   UNL     1       4.366   0.504  -1.906  0.00  0.00    -0.083 NA
ATOM     20  C   UNL     1       3.720   0.673  -0.749  0.00  0.00    +0.084 A 
ATOM     22  C   UNL     1       4.435   1.486   0.147  0.00  0.00    +0.071 A 
ATOM     23  C   UNL     1       5.573   1.809  -0.543  0.00  0.00    +0.138 A 
BRANCH  23  26
ATOM     26  C   UNL     1       6.757   2.619  -0.230  0.00  0.00    +0.077 C 
BRANCH  26  27
ATOM     27  C   UNL     1       7.995   1.767   0.131  0.00  0.00    +0.007 C 
BRANCH  27  31
ATOM     31  C   UNL     1       9.208   2.621   0.499  0.00  0.00    -0.003 C 
ATOM     32  C   UNL     1      10.399   1.759   0.888  0.00  0.00    +0.004 C 
ENDBRANCH  27  31
ENDBRANCH  26  27
ENDBRANCH  23  26
ENDBRANCH  13  20
ENDBRANCH   7  13
TORSDOF 9
