REMARK  Name = 28960230
REMARK  11 active torsions:
REMARK  status: ('A' for Active; 'I' for Inactive)
REMARK    1  A    between atoms: N_2  and  C_15
REMARK    2  A    between atoms: N_3  and  C_8
REMARK    3  A    between atoms: N_5  and  C_27
REMARK    4  A    between atoms: C_6  and  C_9
REMARK    5  A    between atoms: C_12  and  C_16
REMARK    6  A    between atoms: C_13  and  C_18
REMARK    7  A    between atoms: C_14  and  C_17
REMARK    8  A    between atoms: C_14  and  C_24
REMARK    9  A    between atoms: C_14  and  C_25
REMARK   10  A    between atoms: C_14  and  C_26
REMARK   11  A    between atoms: C_27  and  C_28
REMARK                            x       y       z     vdW  Elec       q    Type
REMARK                         _______ _______ _______ _____ _____    ______ ____
ROOT
ATOM      2  N   UNL     1       1.532  -1.001   0.187  0.00  0.00    -0.236 N 
ATOM      4  N   UNL     1       1.317  -2.203   0.750  0.00  0.00    -0.171 NA
ATOM      9  C   UNL     1      -0.616  -1.303  -0.070  0.00  0.00    +0.003 A 
ATOM     12  C   UNL     1       0.407  -0.420  -0.319  0.00  0.00    +0.046 A 
ATOM     13  C   UNL     1       0.003  -2.381   0.590  0.00  0.00    +0.064 A 
ATOM     16  C   UNL     1       0.403   0.901  -0.981  0.00  0.00    +0.066 C 
ATOM     18  C   UNL     1      -0.626  -3.616   1.091  0.00  0.00    +0.068 C 
ENDROOT
BRANCH   2  15
ATOM     15  C   UNL     1       2.822  -0.468   0.164  0.00  0.00    +0.066 A 
ATOM     17  C   UNL     1       5.400   0.596   0.118  0.00  0.00    -0.042 A 
ATOM     19  C   UNL     1       3.084   0.751   0.789  0.00  0.00    +0.028 A 
ATOM     20  C   UNL     1       3.848  -1.155  -0.483  0.00  0.00    +0.028 A 
ATOM     22  C   UNL     1       4.373   1.283   0.766  0.00  0.00    +0.006 A 
ATOM     23  C   UNL     1       5.138  -0.623  -0.507  0.00  0.00    +0.006 A 
BRANCH  17  14
ATOM     14  C   UNL     1       6.778   1.165   0.094  0.00  0.00    -0.013 C 
ATOM     24  C   UNL     1       7.846   0.307  -0.663  0.00  0.00    +0.015 C 
ATOM     25  C   UNL     1       6.802   2.562  -0.600  0.00  0.00    +0.015 C 
ATOM     26  C   UNL     1       7.340   1.347   1.538  0.00  0.00    +0.015 C 
ENDBRANCH  17  14
ENDBRANCH   2  15
BRANCH   9   6
ATOM      6  C   UNL     1      -2.077  -1.147  -0.425  0.00  0.00    +0.047 C 
ATOM      7  C   UNL     1      -2.730   0.092   0.217  0.00  0.00    +0.039 C 
ATOM      8  C   UNL     1      -3.770   0.601  -0.795  0.00  0.00    +0.098 C 
ATOM     10  C   UNL     1      -2.348  -0.929  -1.884  0.00  0.00    -0.021 C 
ATOM     11  C   UNL     1      -3.274   0.016  -2.081  0.00  0.00    -0.009 C 
BRANCH   8   3
ATOM      1  O   UNL     1      -5.795   1.977   0.759  0.00  0.00    -0.253 OA
ATOM      3  N   UNL     1      -5.115   0.133  -0.480  0.00  0.00    -0.293 N 
ATOM      5  N   UNL     1      -7.235   0.188   0.428  0.00  0.00    -0.300 N 
ATOM     21  C   UNL     1      -6.029   0.868   0.280  0.00  0.00    +0.300 C 
ATOM     29  H   UNL     1      -5.391  -0.792  -0.796  0.00  0.00    +0.151 HD
ATOM     30  H   UNL     1      -7.341  -0.720  -0.013  0.00  0.00    +0.150 HD
BRANCH   5  27
ATOM     27  C   UNL     1      -8.351   0.726   1.170  0.00  0.00    +0.102 C 
ATOM     28  C   UNL     1      -9.128   1.734   0.350  0.00  0.00    +0.024 C 
ENDBRANCH   5  27
ENDBRANCH   8   3
ENDBRANCH   9   6
TORSDOF 5
