REMARK  Name = 40481335
REMARK  4 active torsions:
REMARK  status: ('A' for Active; 'I' for Inactive)
REMARK    1  A    between atoms: O_3  and  C_11
REMARK    2  A    between atoms: N_4  and  C_10
REMARK    3  A    between atoms: C_14  and  C_15
REMARK    4  A    between atoms: C_20  and  C_21
REMARK                            x       y       z     vdW  Elec       q    Type
REMARK                         _______ _______ _______ _____ _____    ______ ____
ROOT
ATOM      4  N   UNL     1      -2.073  -1.505  -0.221  0.00  0.00    -0.217 N 
ATOM      5  N   UNL     1      -3.101  -2.351  -0.071  0.00  0.00    -0.043 NA
ATOM      6  N   UNL     1      -1.195  -3.344   0.521  0.00  0.00    -0.108 NA
ATOM      7  N   UNL     1      -2.558  -3.474   0.383  0.00  0.00    -0.023 NA
ATOM     14  C   UNL     1      -0.916  -2.118   0.142  0.00  0.00    +0.182 A 
ENDROOT
BRANCH   4  10
ATOM      1  O   UNL     1      -4.611   0.505  -0.797  0.00  0.00    -0.369 OA
ATOM      2  O   UNL     1      -2.187   2.201   0.044  0.00  0.00    -0.369 OA
ATOM      8  C   UNL     1      -2.598   0.865   0.409  0.00  0.00    +0.176 C 
ATOM      9  C   UNL     1      -4.112   0.883   0.496  0.00  0.00    +0.180 C 
ATOM     10  C   UNL     1      -2.297  -0.093  -0.730  0.00  0.00    +0.168 C 
ATOM     11  C   UNL     1      -4.407   2.330   0.809  0.00  0.00    +0.171 C 
ATOM     12  C   UNL     1      -3.515   0.100  -1.631  0.00  0.00    +0.190 C 
ATOM     13  C   UNL     1      -3.342   3.051   0.015  0.00  0.00    +0.194 C 
BRANCH  11   3
ATOM      3  O   UNL     1      -5.707   2.732   0.440  0.00  0.00    -0.387 OA
ATOM     27  H   UNL     1      -5.772   3.690   0.593  0.00  0.00    +0.210 HD
ENDBRANCH  11   3
ENDBRANCH   4  10
BRANCH  14  15
ATOM     15  C   UNL     1       0.383  -1.496   0.105  0.00  0.00    +0.021 A 
ATOM     16  C   UNL     1       1.164  -1.581  -1.048  0.00  0.00    +0.012 A 
ATOM     17  C   UNL     1       0.860  -0.811   1.222  0.00  0.00    +0.012 A 
ATOM     18  C   UNL     1       2.422  -0.979  -1.083  0.00  0.00    +0.009 A 
ATOM     19  C   UNL     1       2.118  -0.209   1.187  0.00  0.00    +0.009 A 
ATOM     20  C   UNL     1       2.899  -0.293   0.034  0.00  0.00    -0.018 A 
BRANCH  20  21
ATOM     21  C   UNL     1       4.204   0.331  -0.002  0.00  0.00    -0.018 A 
ATOM     22  C   UNL     1       5.332  -0.389   0.393  0.00  0.00    +0.008 A 
ATOM     23  C   UNL     1       4.334   1.651  -0.433  0.00  0.00    +0.008 A 
ATOM     24  C   UNL     1       6.590   0.212   0.357  0.00  0.00    +0.001 A 
ATOM     25  C   UNL     1       5.593   2.252  -0.469  0.00  0.00    +0.001 A 
ATOM     26  C   UNL     1       6.721   1.532  -0.074  0.00  0.00    +0.000 A 
ENDBRANCH  20  21
ENDBRANCH  14  15
TORSDOF 4
