REMARK  Name = 11912453
REMARK  8 active torsions:
REMARK  status: ('A' for Active; 'I' for Inactive)
REMARK    1  A    between atoms: N_4  and  C_17
REMARK    2  A    between atoms: N_4  and  C_18
REMARK    3  A    between atoms: N_5  and  C_19
REMARK    4  A    between atoms: C_7  and  C_13
REMARK    5  A    between atoms: C_8  and  C_12
REMARK    6  A    between atoms: C_12  and  C_14
REMARK    7  A    between atoms: C_13  and  C_15
REMARK    8  A    between atoms: C_17  and  C_22
REMARK                            x       y       z     vdW  Elec       q    Type
REMARK                         _______ _______ _______ _____ _____    ______ ____
ROOT
ATOM      2  O   UNL     1       2.032   1.783   0.999  0.00  0.00    -0.252 OA
ATOM      3  N   UNL     1       0.545   0.231   0.139  0.00  0.00    -0.285 N 
ATOM      5  N   UNL     1       2.814   0.211  -0.517  0.00  0.00    -0.269 N 
ATOM      7  C   UNL     1      -1.855  -1.379   0.683  0.00  0.00    +0.004 C 
ATOM      8  C   UNL     1      -0.636  -1.958  -0.072  0.00  0.00    +0.010 C 
ATOM      9  C   UNL     1      -1.375  -0.264   1.626  0.00  0.00    +0.023 C 
ATOM     10  C   UNL     1       0.187  -0.866  -0.778  0.00  0.00    +0.113 C 
ATOM     11  C   UNL     1      -0.570   0.805   0.896  0.00  0.00    +0.109 C 
ATOM     16  C   UNL     1       1.829   0.810   0.268  0.00  0.00    +0.306 C 
ATOM     26  H   UNL     1       2.534  -0.240  -1.381  0.00  0.00    +0.156 HD
ENDROOT
BRANCH   5  19
ATOM     19  C   UNL     1       4.211   0.205  -0.282  0.00  0.00    +0.035 A 
ATOM     20  C   UNL     1       5.069  -0.354  -1.226  0.00  0.00    +0.023 A 
ATOM     21  C   UNL     1       4.719   0.760   0.889  0.00  0.00    +0.023 A 
ATOM     23  C   UNL     1       6.444  -0.360  -0.996  0.00  0.00    +0.002 A 
ATOM     24  C   UNL     1       6.095   0.754   1.119  0.00  0.00    +0.002 A 
ATOM     25  C   UNL     1       6.957   0.195   0.177  0.00  0.00    +0.000 A 
ENDBRANCH   5  19
BRANCH   8  12
ATOM     12  C   UNL     1      -1.015  -3.064  -1.057  0.00  0.00    +0.002 C 
ATOM     14  C   UNL     1      -1.854  -4.131  -0.384  0.00  0.00    +0.004 C 
ENDBRANCH   8  12
BRANCH   7  13
ATOM     13  C   UNL     1      -2.979  -0.885  -0.234  0.00  0.00    +0.100 C 
BRANCH  13  15
ATOM      1  O   UNL     1      -4.444  -0.793   1.662  0.00  0.00    -0.276 OA
ATOM      4  N   UNL     1      -4.898   0.669  -0.081  0.00  0.00    -0.291 N 
ATOM     15  C   UNL     1      -4.166  -0.345   0.546  0.00  0.00    +0.216 C 
ATOM     18  C   UNL     1      -6.062   1.290   0.539  0.00  0.00    +0.133 C 
BRANCH   4  17
ATOM     17  C   UNL     1      -4.550   1.184  -1.403  0.00  0.00    +0.226 C 
BRANCH  17  22
ATOM      6  N   UNL     1      -2.879   3.196  -1.218  0.00  0.00    -0.195 NA
ATOM     22  C   UNL     1      -3.619   2.305  -1.298  0.00  0.00    +0.082 C 
ENDBRANCH  17  22
ENDBRANCH   4  17
ENDBRANCH  13  15
ENDBRANCH   7  13
TORSDOF 6
