REMARK  Name = 51137102
REMARK  3 active torsions:
REMARK  status: ('A' for Active; 'I' for Inactive)
REMARK    1  A    between atoms: N_3  and  C_11
REMARK    2  A    between atoms: C_6  and  C_10
REMARK    3  A    between atoms: C_11  and  C_12
REMARK                            x       y       z     vdW  Elec       q    Type
REMARK                         _______ _______ _______ _____ _____    ______ ____
ROOT
ATOM      3  N   UNL     1      -1.849  -0.152  -0.000  0.00  0.00    -0.297 NA
ATOM      6  C   UNL     1       0.349  -0.596   0.686  0.00  0.00    +0.070 C 
ATOM      7  C   UNL     1      -0.328   0.341   1.702  0.00  0.00    +0.028 C 
ATOM      8  C   UNL     1      -0.550  -0.538  -0.556  0.00  0.00    +0.096 C 
ATOM      9  C   UNL     1      -1.546   0.895   0.975  0.00  0.00    +0.085 C 
ENDROOT
BRANCH   6  10
ATOM      2  F   UNL     1       7.561  -0.561  -0.189  0.00  0.00    -0.205 F 
ATOM      4  N   UNL     1       2.792  -1.172   0.623  0.00  0.00    -0.341 N 
ATOM      5  N   UNL     1       2.257   0.855  -0.116  0.00  0.00    -0.232 NA
ATOM     10  C   UNL     1       1.793  -0.269   0.384  0.00  0.00    +0.113 A 
ATOM     13  C   UNL     1       3.978  -0.593   0.252  0.00  0.00    +0.069 A 
ATOM     14  C   UNL     1       3.617   0.671  -0.206  0.00  0.00    +0.089 A 
ATOM     17  C   UNL     1       5.295  -1.053   0.276  0.00  0.00    +0.066 A 
ATOM     18  C   UNL     1       4.617   1.543  -0.670  0.00  0.00    +0.032 A 
ATOM     19  C   UNL     1       6.277  -0.172  -0.190  0.00  0.00    +0.125 A 
ATOM     20  C   UNL     1       5.947   1.103  -0.654  0.00  0.00    +0.040 A 
ATOM     24  H   UNL     1       2.679  -2.102   1.004  0.00  0.00    +0.167 HD
ENDBRANCH   6  10
BRANCH   3  11
ATOM     11  C   UNL     1      -2.780   0.296  -1.024  0.00  0.00    +0.122 C 
BRANCH  11  12
ATOM      1  F   UNL     1      -4.287  -2.090  -0.778  0.00  0.00    -0.205 F 
ATOM     12  C   UNL     1      -4.205   0.270  -0.537  0.00  0.00    +0.002 A 
ATOM     15  C   UNL     1      -4.889  -0.941  -0.440  0.00  0.00    +0.128 A 
ATOM     16  C   UNL     1      -4.840   1.460  -0.183  0.00  0.00    +0.008 A 
ATOM     21  C   UNL     1      -6.208  -0.963   0.012  0.00  0.00    +0.038 A 
ATOM     22  C   UNL     1      -6.159   1.439   0.269  0.00  0.00    +0.000 A 
ATOM     23  C   UNL     1      -6.844   0.227   0.366  0.00  0.00    +0.003 A 
ENDBRANCH  11  12
ENDBRANCH   3  11
TORSDOF 3
