REMARK  Name = 25338874
REMARK  7 active torsions:
REMARK  status: ('A' for Active; 'I' for Inactive)
REMARK    1  A    between atoms: O_5  and  C_22
REMARK    2  A    between atoms: O_5  and  C_31
REMARK    3  A    between atoms: N_6  and  C_15
REMARK    4  A    between atoms: N_9  and  C_19
REMARK    5  A    between atoms: C_10  and  C_16
REMARK    6  A    between atoms: C_15  and  C_17
REMARK    7  A    between atoms: C_19  and  C_23
REMARK                            x       y       z     vdW  Elec       q    Type
REMARK                         _______ _______ _______ _____ _____    ______ ____
ROOT
ATOM      6  N   UNL     1      -1.365   0.621  -0.574  0.00  0.00    -0.281 NA
ATOM      7  N   UNL     1      -4.847  -0.305  -1.652  0.00  0.00    -0.347 N 
ATOM      8  N   UNL     1      -5.450   0.342   0.402  0.00  0.00    -0.240 NA
ATOM     10  C   UNL     1      -1.668   0.467   0.875  0.00  0.00    +0.150 C 
ATOM     11  C   UNL     1      -3.124   0.793   1.313  0.00  0.00    +0.085 C 
ATOM     12  C   UNL     1      -2.300  -0.118  -1.464  0.00  0.00    +0.140 C 
ATOM     13  C   UNL     1      -3.696  -0.017  -0.984  0.00  0.00    +0.053 A 
ATOM     14  C   UNL     1      -4.090   0.372   0.272  0.00  0.00    +0.065 A 
ATOM     18  C   UNL     1      -5.878  -0.072  -0.775  0.00  0.00    +0.197 A 
ATOM     32  H   UNL     1      -4.932  -0.630  -2.606  0.00  0.00    +0.167 HD
ENDROOT
BRANCH  10  16
ATOM      4  O   UNL     1      -2.130  -1.849   1.252  0.00  0.00    -0.274 OA
ATOM      9  N   UNL     1       0.032  -1.060   1.603  0.00  0.00    -0.310 N 
ATOM     16  C   UNL     1      -1.302  -0.942   1.251  0.00  0.00    +0.231 C 
ATOM     33  H   UNL     1       0.640  -0.250   1.535  0.00  0.00    +0.149 HD
BRANCH   9  19
ATOM     19  C   UNL     1       0.630  -2.306   2.027  0.00  0.00    +0.139 C 
BRANCH  19  23
ATOM     23  C   UNL     1       1.185  -3.085   0.870  0.00  0.00    -0.030 A 
ATOM     26  C   UNL     1       0.379  -4.004   0.197  0.00  0.00    +0.005 A 
ATOM     27  C   UNL     1       2.506  -2.891   0.467  0.00  0.00    +0.005 A 
ATOM     28  C   UNL     1       0.894  -4.728  -0.878  0.00  0.00    +0.000 A 
ATOM     29  C   UNL     1       3.021  -3.615  -0.608  0.00  0.00    +0.000 A 
ATOM     30  C   UNL     1       2.215  -4.534  -1.281  0.00  0.00    +0.000 A 
ENDBRANCH  19  23
ENDBRANCH   9  19
ENDBRANCH  10  16
BRANCH   6  15
ATOM     15  C   UNL     1      -1.292   2.037  -0.944  0.00  0.00    +0.120 C 
BRANCH  15  17
ATOM     17  C   UNL     1      -0.049   2.693  -0.418  0.00  0.00    -0.030 A 
ATOM     20  C   UNL     1       1.206   2.213  -0.795  0.00  0.00    +0.051 A 
ATOM     21  C   UNL     1      -0.148   3.782   0.448  0.00  0.00    +0.005 A 
ATOM     22  C   UNL     1       2.361   2.824  -0.306  0.00  0.00    +0.130 A 
ATOM     24  C   UNL     1       1.007   4.392   0.936  0.00  0.00    +0.004 A 
ATOM     25  C   UNL     1       2.262   3.913   0.559  0.00  0.00    +0.046 A 
BRANCH  22   5
ATOM      5  O   UNL     1       3.585   2.356  -0.675  0.00  0.00    -0.406 OA
BRANCH   5  31
ATOM      1  F   UNL     1       5.248   0.925  -0.145  0.00  0.00    -0.133 F 
ATOM      2  F   UNL     1       3.288   0.606   0.767  0.00  0.00    -0.133 F 
ATOM      3  F   UNL     1       3.605   0.180  -1.379  0.00  0.00    -0.133 F 
ATOM     31  C   UNL     1       3.915   1.009  -0.359  0.00  0.00    +0.575 C 
ENDBRANCH   5  31
ENDBRANCH  22   5
ENDBRANCH  15  17
ENDBRANCH   6  15
TORSDOF 7
