REMARK  Name = 45361464
REMARK  10 active torsions:
REMARK  status: ('A' for Active; 'I' for Inactive)
REMARK    1  A    between atoms: O_1  and  C_10
REMARK    2  A    between atoms: N_4  and  C_14
REMARK    3  A    between atoms: N_5  and  C_29
REMARK    4  A    between atoms: C_7  and  C_17
REMARK    5  A    between atoms: C_9  and  C_19
REMARK    6  A    between atoms: C_13  and  C_18
REMARK    7  A    between atoms: C_18  and  C_20
REMARK    8  A    between atoms: C_18  and  C_21
REMARK    9  A    between atoms: C_22  and  C_23
REMARK   10  A    between atoms: C_29  and  C_30
REMARK                            x       y       z     vdW  Elec       q    Type
REMARK                         _______ _______ _______ _____ _____    ______ ____
ROOT
ATOM      7  C   UNL     1      -0.007  -0.325   1.426  0.00  0.00    -0.027 C 
ATOM      8  C   UNL     1       0.392   0.579   0.212  0.00  0.00    +0.028 C 
ATOM      9  C   UNL     1       1.899   1.009   0.307  0.00  0.00    +0.012 C 
ATOM     10  C   UNL     1      -0.624   1.741   0.017  0.00  0.00    +0.122 C 
ATOM     11  C   UNL     1      -1.461  -0.822   1.244  0.00  0.00    +0.007 C 
ATOM     12  C   UNL     1       0.914  -1.566   1.455  0.00  0.00    +0.009 C 
ATOM     13  C   UNL     1      -2.087   1.246  -0.061  0.00  0.00    +0.029 C 
ATOM     14  C   UNL     1       2.812  -0.246   0.411  0.00  0.00    +0.076 C 
ATOM     15  C   UNL     1      -2.463   0.315   1.092  0.00  0.00    +0.007 C 
ATOM     16  C   UNL     1       2.393  -1.211   1.520  0.00  0.00    +0.023 C 
ATOM     17  C   UNL     1       0.098   0.420   2.781  0.00  0.00    +0.011 C 
ATOM     19  C   UNL     1       2.368   1.877  -0.873  0.00  0.00    +0.010 C 
ENDROOT
BRANCH  14   4
ATOM      3  O   UNL     1       5.163  -1.675  -0.516  0.00  0.00    -0.276 OA
ATOM      4  N   UNL     1       4.199   0.115   0.617  0.00  0.00    -0.312 N 
ATOM     22  C   UNL     1       5.254  -0.636   0.132  0.00  0.00    +0.216 C 
ATOM     35  H   UNL     1       4.391   0.933   1.188  0.00  0.00    +0.149 HD
BRANCH  22  23
ATOM     23  C   UNL     1       6.584  -0.024   0.465  0.00  0.00    +0.075 C 
ATOM     24  C   UNL     1       7.654  -1.102   0.650  0.00  0.00    +0.013 C 
ATOM     25  C   UNL     1       6.966   1.014  -0.592  0.00  0.00    +0.013 C 
ATOM     26  C   UNL     1       8.151  -1.698  -0.666  0.00  0.00    +0.001 C 
ATOM     27  C   UNL     1       7.454   0.387  -1.897  0.00  0.00    +0.001 C 
ATOM     28  C   UNL     1       8.575  -0.617  -1.655  0.00  0.00    +0.000 C 
ENDBRANCH  22  23
ENDBRANCH  14   4
BRANCH  10   1
ATOM      1  O   UNL     1      -0.353   2.409  -1.217  0.00  0.00    -0.391 OA
ATOM     36  H   UNL     1      -0.438   1.761  -1.937  0.00  0.00    +0.210 HD
ENDBRANCH  10   1
BRANCH  13  18
ATOM     18  C   UNL     1      -3.080   2.413  -0.121  0.00  0.00    +0.077 C 
ATOM     20  C   UNL     1      -2.933   3.292   1.115  0.00  0.00    +0.017 C 
BRANCH  18  21
ATOM      2  O   UNL     1      -5.388   2.131   0.556  0.00  0.00    -0.276 OA
ATOM      5  N   UNL     1      -4.668   1.089  -1.387  0.00  0.00    -0.309 N 
ATOM     21  C   UNL     1      -4.503   1.878  -0.258  0.00  0.00    +0.217 C 
ATOM     37  H   UNL     1      -3.900   0.971  -2.039  0.00  0.00    +0.149 HD
BRANCH   5  29
ATOM     29  C   UNL     1      -5.927   0.469  -1.729  0.00  0.00    +0.159 C 
BRANCH  29  30
ATOM      6  N   UNL     1      -6.918  -0.953  -0.026  0.00  0.00    -0.258 NA
ATOM     30  C   UNL     1      -6.082  -0.879  -1.086  0.00  0.00    +0.058 A 
ATOM     31  C   UNL     1      -5.380  -1.959  -1.596  0.00  0.00    +0.025 A 
ATOM     32  C   UNL     1      -5.546  -3.194  -0.979  0.00  0.00    +0.003 A 
ATOM     33  C   UNL     1      -7.055  -2.169   0.547  0.00  0.00    +0.111 A 
ATOM     34  C   UNL     1      -6.399  -3.309   0.114  0.00  0.00    +0.020 A 
ENDBRANCH  29  30
ENDBRANCH   5  29
ENDBRANCH  18  21
ENDBRANCH  13  18
TORSDOF 7
