REMARK  Name = 11883403
REMARK  7 active torsions:
REMARK  status: ('A' for Active; 'I' for Inactive)
REMARK    1  A    between atoms: O_6  and  C_16
REMARK    2  A    between atoms: O_6  and  C_20
REMARK    3  A    between atoms: N_9  and  C_15
REMARK    4  A    between atoms: N_10  and  C_21
REMARK    5  A    between atoms: N_11  and  C_22
REMARK    6  A    between atoms: C_27  and  C_33
REMARK    7  A    between atoms: C_28  and  C_34
REMARK                            x       y       z     vdW  Elec       q    Type
REMARK                         _______ _______ _______ _____ _____    ______ ____
ROOT
ATOM      4  O   UNL     1      -0.010  -1.336  -1.335  0.00  0.00    -0.368 OA
ATOM      5  O   UNL     1      -0.849  -3.534   0.632  0.00  0.00    -0.368 OA
ATOM     13  C   UNL     1      -1.351  -2.198   0.421  0.00  0.00    +0.173 C 
ATOM     14  C   UNL     1      -0.154  -1.326   0.095  0.00  0.00    +0.192 C 
ATOM     15  C   UNL     1      -2.188  -2.150  -0.836  0.00  0.00    +0.131 C 
ATOM     16  C   UNL     1       0.977  -2.056   0.777  0.00  0.00    +0.235 C 
ATOM     17  C   UNL     1      -1.133  -2.015  -1.920  0.00  0.00    +0.185 C 
ATOM     18  C   UNL     1       0.585  -3.504   0.584  0.00  0.00    +0.207 C 
ENDROOT
BRANCH  15   9
ATOM      7  O   UNL     1      -4.922  -2.129   0.018  0.00  0.00    -0.252 OA
ATOM      9  N   UNL     1      -3.080  -1.017  -0.827  0.00  0.00    -0.292 N 
ATOM     10  N   UNL     1      -5.026   0.159  -0.498  0.00  0.00    -0.269 N 
ATOM     19  C   UNL     1      -4.409  -1.091  -0.392  0.00  0.00    +0.304 C 
ATOM     35  H   UNL     1      -2.709  -0.108  -1.088  0.00  0.00    +0.151 HD
ATOM     36  H   UNL     1      -4.457   0.920  -0.860  0.00  0.00    +0.156 HD
BRANCH  10  21
ATOM     21  C   UNL     1      -6.357   0.500  -0.162  0.00  0.00    +0.036 A 
ATOM     23  C   UNL     1      -6.807   1.809  -0.336  0.00  0.00    +0.042 A 
ATOM     24  C   UNL     1      -7.220  -0.472   0.343  0.00  0.00    +0.023 A 
ATOM     28  C   UNL     1      -8.119   2.146  -0.005  0.00  0.00    +0.054 A 
ATOM     29  C   UNL     1      -8.533  -0.136   0.674  0.00  0.00    +0.003 A 
ATOM     32  C   UNL     1      -8.982   1.173   0.500  0.00  0.00    +0.019 A 
BRANCH  28  34
ATOM     12  N   UNL     1      -8.955   4.575  -0.327  0.00  0.00    -0.191 NA
ATOM     34  C   UNL     1      -8.580   3.487  -0.183  0.00  0.00    +0.099 C 
ENDBRANCH  28  34
ENDBRANCH  10  21
ENDBRANCH  15   9
BRANCH  16   6
ATOM      6  O   UNL     1       2.244  -1.772   0.226  0.00  0.00    -0.442 OA
BRANCH   6  20
ATOM      8  O   UNL     1       2.546  -0.110   1.768  0.00  0.00    -0.226 OA
ATOM     11  N   UNL     1       4.172  -0.605   0.159  0.00  0.00    -0.251 N 
ATOM     20  C   UNL     1       2.964  -0.752   0.813  0.00  0.00    +0.405 C 
ATOM     37  H   UNL     1       4.343  -1.237  -0.619  0.00  0.00    +0.158 HD
BRANCH  11  22
ATOM     22  C   UNL     1       5.205   0.320   0.437  0.00  0.00    +0.037 A 
ATOM     25  C   UNL     1       6.366   0.323  -0.337  0.00  0.00    +0.035 A 
ATOM     26  C   UNL     1       5.063   1.228   1.485  0.00  0.00    +0.023 A 
ATOM     27  C   UNL     1       7.385   1.235  -0.062  0.00  0.00    +0.057 A 
ATOM     30  C   UNL     1       6.082   2.140   1.761  0.00  0.00    +0.002 A 
ATOM     31  C   UNL     1       7.242   2.144   0.987  0.00  0.00    +0.012 A 
BRANCH  27  33
ATOM      1  F   UNL     1       9.536   2.184  -0.506  0.00  0.00    -0.166 F 
ATOM      2  F   UNL     1       9.307   0.056  -0.857  0.00  0.00    -0.166 F 
ATOM      3  F   UNL     1       8.377   1.484  -2.208  0.00  0.00    -0.166 F 
ATOM     33  C   UNL     1       8.626   1.239  -0.888  0.00  0.00    +0.417 C 
ENDBRANCH  27  33
ENDBRANCH  11  22
ENDBRANCH   6  20
ENDBRANCH  16   6
TORSDOF 7
