REMARK  Name = 45361703
REMARK  10 active torsions:
REMARK  status: ('A' for Active; 'I' for Inactive)
REMARK    1  A    between atoms: N_6  and  C_18
REMARK    2  A    between atoms: N_7  and  C_19
REMARK    3  A    between atoms: N_10  and  C_38
REMARK    4  A    between atoms: N_10  and  C_39
REMARK    5  A    between atoms: N_10  and  C_40
REMARK    6  A    between atoms: C_11  and  C_14
REMARK    7  A    between atoms: C_14  and  C_18
REMARK    8  A    between atoms: C_18  and  C_31
REMARK    9  A    between atoms: C_20  and  C_28
REMARK   10  A    between atoms: C_32  and  C_33
REMARK                            x       y       z     vdW  Elec       q    Type
REMARK                         _______ _______ _______ _____ _____    ______ ____
ROOT
ATOM      2  O   UNL     1      -2.643   1.666  -1.669  0.00  0.00    -0.253 OA
ATOM      4  O   UNL     1       2.616  -2.649  -1.338  0.00  0.00    -0.270 OA
ATOM      5  N   UNL     1      -0.414   1.199  -1.191  0.00  0.00    -0.271 N 
ATOM      7  N   UNL     1      -1.375   3.302  -0.676  0.00  0.00    -0.296 N 
ATOM      8  N   UNL     1       1.873  -0.449  -1.602  0.00  0.00    -0.294 N 
ATOM     20  C   UNL     1      -0.581  -0.217  -1.556  0.00  0.00    +0.181 C 
ATOM     25  C   UNL     1       0.628  -0.820  -2.267  0.00  0.00    +0.140 C 
ATOM     27  C   UNL     1       0.905   1.598  -0.658  0.00  0.00    +0.129 C 
ATOM     29  C   UNL     1       2.057   0.994  -1.454  0.00  0.00    +0.127 C 
ATOM     30  C   UNL     1      -1.554   2.032  -1.214  0.00  0.00    +0.303 C 
ATOM     32  C   UNL     1       2.778  -1.436  -1.210  0.00  0.00    +0.247 C 
ATOM     42  H   UNL     1      -0.545   3.511  -0.139  0.00  0.00    +0.151 HD
ENDROOT
BRANCH   7  19
ATOM     19  C   UNL     1      -2.449   4.269  -0.613  0.00  0.00    +0.074 C 
ATOM     21  C   UNL     1      -1.912   5.697  -0.755  0.00  0.00    +0.022 C 
ATOM     22  C   UNL     1      -3.262   4.107   0.676  0.00  0.00    +0.022 C 
ATOM     23  C   UNL     1      -1.148   6.161   0.485  0.00  0.00    +0.002 C 
ATOM     24  C   UNL     1      -2.496   4.573   1.913  0.00  0.00    +0.002 C 
ATOM     26  C   UNL     1      -1.981   6.000   1.753  0.00  0.00    +0.000 C 
ENDBRANCH   7  19
BRANCH  32  33
ATOM     33  C   UNL     1       4.031  -1.012  -0.571  0.00  0.00    +0.037 A 
ATOM     34  C   UNL     1       4.093  -0.867   0.815  0.00  0.00    +0.015 A 
ATOM     35  C   UNL     1       5.158  -0.751  -1.351  0.00  0.00    +0.015 A 
ATOM     36  C   UNL     1       5.282  -0.463   1.421  0.00  0.00    +0.024 A 
ATOM     37  C   UNL     1       6.347  -0.347  -0.744  0.00  0.00    +0.024 A 
ATOM     38  C   UNL     1       6.409  -0.203   0.642  0.00  0.00    +0.029 A 
BRANCH  38  10
ATOM     10  N   UNL     1       7.612   0.206   1.254  0.00  0.00    -0.336 N 
ATOM     39  C   UNL     1       8.790   0.471   0.453  0.00  0.00    +0.129 C 
ATOM     40  C   UNL     1       7.688   0.359   2.693  0.00  0.00    +0.129 C 
ENDBRANCH  38  10
ENDBRANCH  32  33
BRANCH  20  28
ATOM      1  O   UNL     1      -0.399  -0.584   0.798  0.00  0.00    -0.274 OA
ATOM      6  N   UNL     1      -1.714  -2.028  -0.468  0.00  0.00    -0.302 N 
ATOM     28  C   UNL     1      -0.879  -0.941  -0.274  0.00  0.00    +0.236 C 
ATOM     41  H   UNL     1      -1.982  -2.281  -1.415  0.00  0.00    +0.150 HD
BRANCH   6  18
ATOM     18  C   UNL     1      -2.134  -2.903   0.602  0.00  0.00    +0.159 C 
BRANCH  18  31
ATOM      3  O   UNL     1      -0.426  -4.474  -0.121  0.00  0.00    -0.274 OA
ATOM      9  N   UNL     1      -0.936  -4.364   2.115  0.00  0.00    -0.328 N 
ATOM     31  C   UNL     1      -1.073  -3.978   0.799  0.00  0.00    +0.231 C 
ATOM     43  H   UNL     1      -1.490  -3.960   2.864  0.00  0.00    +0.145 HD
ATOM     44  H   UNL     1      -0.268  -5.080   2.381  0.00  0.00    +0.145 HD
ENDBRANCH  18  31
BRANCH  18  14
ATOM     14  C   UNL     1      -3.530  -3.485   0.361  0.00  0.00    +0.035 C 
BRANCH  14  11
ATOM     11  C   UNL     1      -4.614  -2.434   0.126  0.00  0.00    -0.009 C 
ATOM     12  C   UNL     1      -5.967  -3.104  -0.151  0.00  0.00    +0.003 C 
ATOM     13  C   UNL     1      -4.712  -1.480   1.324  0.00  0.00    +0.003 C 
ATOM     15  C   UNL     1      -7.078  -2.073  -0.336  0.00  0.00    +0.000 C 
ATOM     16  C   UNL     1      -5.825  -0.452   1.136  0.00  0.00    +0.000 C 
ATOM     17  C   UNL     1      -7.167  -1.121   0.852  0.00  0.00    +0.000 C 
ENDBRANCH  14  11
ENDBRANCH  18  14
ENDBRANCH   6  18
ENDBRANCH  20  28
TORSDOF 8
