REMARK  Name = 45784233
REMARK  5 active torsions:
REMARK  status: ('A' for Active; 'I' for Inactive)
REMARK    1  A    between atoms: O_2  and  C_15
REMARK    2  A    between atoms: O_2  and  C_24
REMARK    3  A    between atoms: N_3  and  C_11
REMARK    4  A    between atoms: C_6  and  C_10
REMARK    5  A    between atoms: C_11  and  C_12
REMARK                            x       y       z     vdW  Elec       q    Type
REMARK                         _______ _______ _______ _____ _____    ______ ____
ROOT
ATOM      3  N   UNL     1      -1.635   0.044   0.034  0.00  0.00    -0.297 NA
ATOM      6  C   UNL     1       0.550  -0.416   0.749  0.00  0.00    +0.070 C 
ATOM      7  C   UNL     1      -0.086   0.632   1.679  0.00  0.00    +0.028 C 
ATOM      8  C   UNL     1      -0.354  -0.437  -0.490  0.00  0.00    +0.096 C 
ATOM      9  C   UNL     1      -1.288   1.163   0.909  0.00  0.00    +0.085 C 
ENDROOT
BRANCH   6  10
ATOM      1  F   UNL     1       7.752  -0.719  -0.152  0.00  0.00    -0.205 F 
ATOM      4  N   UNL     1       2.970  -1.083   0.728  0.00  0.00    -0.341 N 
ATOM      5  N   UNL     1       2.503   0.888  -0.187  0.00  0.00    -0.232 NA
ATOM     10  C   UNL     1       2.003  -0.169   0.413  0.00  0.00    +0.113 A 
ATOM     13  C   UNL     1       4.174  -0.583   0.303  0.00  0.00    +0.069 A 
ATOM     14  C   UNL     1       3.856   0.648  -0.265  0.00  0.00    +0.089 A 
ATOM     17  C   UNL     1       5.474  -1.086   0.363  0.00  0.00    +0.066 A 
ATOM     18  C   UNL     1       4.883   1.437  -0.809  0.00  0.00    +0.032 A 
ATOM     21  C   UNL     1       6.484  -0.287  -0.183  0.00  0.00    +0.125 A 
ATOM     22  C   UNL     1       6.196   0.953  -0.759  0.00  0.00    +0.040 A 
ATOM     25  H   UNL     1       2.827  -1.971   1.192  0.00  0.00    +0.167 HD
ENDBRANCH   6  10
BRANCH   3  11
ATOM     11  C   UNL     1      -2.557   0.432  -1.024  0.00  0.00    +0.123 C 
BRANCH  11  12
ATOM     12  C   UNL     1      -3.978   0.501  -0.531  0.00  0.00    +0.008 A 
ATOM     15  C   UNL     1      -4.716  -0.663  -0.319  0.00  0.00    +0.124 A 
ATOM     16  C   UNL     1      -4.555   1.747  -0.286  0.00  0.00    +0.008 A 
ATOM     19  C   UNL     1      -6.032  -0.581   0.137  0.00  0.00    +0.046 A 
ATOM     20  C   UNL     1      -5.871   1.829   0.170  0.00  0.00    +0.001 A 
ATOM     23  C   UNL     1      -6.609   0.665   0.382  0.00  0.00    +0.004 A 
BRANCH  15   2
ATOM      2  O   UNL     1      -4.168  -1.889  -0.553  0.00  0.00    -0.495 OA
ATOM     24  C   UNL     1      -4.995  -3.025  -0.310  0.00  0.00    +0.277 C 
ENDBRANCH  15   2
ENDBRANCH  11  12
ENDBRANCH   3  11
TORSDOF 4
