REMARK  Name = 26742275
REMARK  10 active torsions:
REMARK  status: ('A' for Active; 'I' for Inactive)
REMARK    1  A    between atoms: O_1  and  C_11
REMARK    2  A    between atoms: O_4  and  C_26
REMARK    3  A    between atoms: O_4  and  C_30
REMARK    4  A    between atoms: O_5  and  C_32
REMARK    5  A    between atoms: O_5  and  C_33
REMARK    6  A    between atoms: N_7  and  C_10
REMARK    7  A    between atoms: N_8  and  C_19
REMARK    8  A    between atoms: C_17  and  C_18
REMARK    9  A    between atoms: C_27  and  C_31
REMARK   10  A    between atoms: C_30  and  C_32
REMARK                            x       y       z     vdW  Elec       q    Type
REMARK                         _______ _______ _______ _____ _____    ______ ____
ROOT
ATOM      2  O   UNL     1      -3.354   2.812   0.687  0.00  0.00    -0.252 OA
ATOM      6  N   UNL     1      -4.044   0.916  -0.442  0.00  0.00    -0.284 N 
ATOM      8  N   UNL     1      -1.772   1.565  -0.469  0.00  0.00    -0.269 N 
ATOM     10  C   UNL     1      -3.425  -1.523  -0.347  0.00  0.00    +0.119 C 
ATOM     11  C   UNL     1      -4.147  -1.653   1.006  0.00  0.00    +0.136 C 
ATOM     12  C   UNL     1      -5.617  -1.222   1.021  0.00  0.00    +0.035 C 
ATOM     13  C   UNL     1      -3.801  -0.312  -1.210  0.00  0.00    +0.134 C 
ATOM     14  C   UNL     1      -5.804   0.286   1.199  0.00  0.00    +0.022 C 
ATOM     15  C   UNL     1      -5.433   1.118  -0.022  0.00  0.00    +0.109 C 
ATOM     16  C   UNL     1      -3.062   1.845  -0.021  0.00  0.00    +0.307 C 
ATOM     36  H   UNL     1      -1.626   0.732  -1.028  0.00  0.00    +0.156 HD
ENDROOT
BRANCH   8  19
ATOM     19  C   UNL     1      -0.585   2.300  -0.220  0.00  0.00    +0.036 A 
ATOM     22  C   UNL     1       0.629   1.867  -0.755  0.00  0.00    +0.042 A 
ATOM     23  C   UNL     1      -0.630   3.455   0.560  0.00  0.00    +0.023 A 
ATOM     27  C   UNL     1       1.796   2.590  -0.510  0.00  0.00    +0.054 A 
ATOM     28  C   UNL     1       0.537   4.178   0.805  0.00  0.00    +0.003 A 
ATOM     29  C   UNL     1       1.751   3.746   0.270  0.00  0.00    +0.019 A 
BRANCH  27  31
ATOM      9  N   UNL     1       4.050   1.788  -1.503  0.00  0.00    -0.191 NA
ATOM     31  C   UNL     1       3.040   2.148  -1.058  0.00  0.00    +0.099 C 
ENDBRANCH  27  31
ENDBRANCH   8  19
BRANCH  10   7
ATOM      3  O   UNL     1      -1.451  -2.672  -2.086  0.00  0.00    -0.270 OA
ATOM      7  N   UNL     1      -1.993  -1.565  -0.123  0.00  0.00    -0.305 N 
ATOM     17  C   UNL     1      -1.122  -2.144  -1.027  0.00  0.00    +0.244 C 
ATOM     34  H   UNL     1      -1.634  -1.050   0.675  0.00  0.00    +0.149 HD
BRANCH  17  18
ATOM     18  C   UNL     1       0.311  -2.129  -0.638  0.00  0.00    +0.037 A 
ATOM     20  C   UNL     1       1.301  -2.144  -1.621  0.00  0.00    +0.016 A 
ATOM     21  C   UNL     1       0.668  -2.100   0.711  0.00  0.00    +0.016 A 
ATOM     24  C   UNL     1       2.647  -2.129  -1.256  0.00  0.00    +0.046 A 
ATOM     25  C   UNL     1       2.014  -2.086   1.076  0.00  0.00    +0.046 A 
ATOM     26  C   UNL     1       3.004  -2.100   0.093  0.00  0.00    +0.121 A 
BRANCH  26   4
ATOM      4  O   UNL     1       4.317  -2.087   0.450  0.00  0.00    -0.490 OA
BRANCH   4  30
ATOM     30  C   UNL     1       4.652  -1.426   1.669  0.00  0.00    +0.257 C 
BRANCH  30  32
ATOM     32  C   UNL     1       6.064  -0.884   1.566  0.00  0.00    +0.200 C 
BRANCH  32   5
ATOM      5  O   UNL     1       6.136   0.020   0.470  0.00  0.00    -0.380 OA
ATOM     33  C   UNL     1       7.436   0.578   0.339  0.00  0.00    +0.194 C 
ENDBRANCH  32   5
ENDBRANCH  30  32
ENDBRANCH   4  30
ENDBRANCH  26   4
ENDBRANCH  17  18
ENDBRANCH  10   7
BRANCH  11   1
ATOM      1  O   UNL     1      -4.111  -3.035   1.390  0.00  0.00    -0.390 OA
ATOM     35  H   UNL     1      -4.449  -3.097   2.300  0.00  0.00    +0.210 HD
ENDBRANCH  11   1
TORSDOF 9
