REMARK  Name = 7682261
REMARK  5 active torsions:
REMARK  status: ('A' for Active; 'I' for Inactive)
REMARK    1  A    between atoms: N_4  and  C_14
REMARK    2  A    between atoms: N_6  and  C_28
REMARK    3  A    between atoms: C_14  and  C_20
REMARK    4  A    between atoms: C_15  and  C_19
REMARK    5  A    between atoms: C_29  and  C_30
REMARK                            x       y       z     vdW  Elec       q    Type
REMARK                         _______ _______ _______ _____ _____    ______ ____
ROOT
ATOM      2  O   UNL     1       4.297  -2.286   1.761  0.00  0.00    -0.268 OA
ATOM      4  N   UNL     1       2.421   1.399  -1.025  0.00  0.00    -0.297 NA
ATOM      5  N   UNL     1       2.745  -1.527   0.180  0.00  0.00    -0.311 N 
ATOM      7  C   UNL     1       3.481  -0.597  -2.095  0.00  0.00    +0.024 C 
ATOM      8  C   UNL     1       1.104  -0.670  -1.519  0.00  0.00    +0.051 C 
ATOM      9  C   UNL     1       2.127  -1.099  -2.567  0.00  0.00    +0.017 C 
ATOM     10  C   UNL     1       3.463   0.938  -1.948  0.00  0.00    +0.090 C 
ATOM     11  C   UNL     1       1.102   0.874  -1.404  0.00  0.00    +0.094 C 
ATOM     12  C   UNL     1       3.832  -1.306  -0.785  0.00  0.00    +0.130 C 
ATOM     13  C   UNL     1       1.394  -1.316  -0.161  0.00  0.00    +0.034 A 
ATOM     15  C   UNL     1       0.413  -1.666   0.711  0.00  0.00    +0.002 A 
ATOM     16  C   UNL     1       3.135  -2.067   1.418  0.00  0.00    +0.252 A 
ATOM     17  C   UNL     1       0.778  -2.222   2.001  0.00  0.00    +0.015 A 
ATOM     18  C   UNL     1       2.047  -2.408   2.363  0.00  0.00    +0.071 A 
ENDROOT
BRANCH  15  19
ATOM     19  C   UNL     1      -1.018  -1.482   0.388  0.00  0.00    -0.016 A 
ATOM     21  C   UNL     1      -1.649  -0.283   0.706  0.00  0.00    +0.010 A 
ATOM     22  C   UNL     1      -1.724  -2.509  -0.231  0.00  0.00    +0.010 A 
ATOM     25  C   UNL     1      -2.999  -0.109   0.402  0.00  0.00    +0.024 A 
ATOM     26  C   UNL     1      -3.075  -2.335  -0.535  0.00  0.00    +0.024 A 
ATOM     28  C   UNL     1      -3.712  -1.135  -0.219  0.00  0.00    +0.033 A 
BRANCH  28   6
ATOM      3  O   UNL     1      -5.531   1.221   0.237  0.00  0.00    -0.276 OA
ATOM      6  N   UNL     1      -5.062  -0.961  -0.525  0.00  0.00    -0.286 N 
ATOM     29  C   UNL     1      -5.865   0.163  -0.287  0.00  0.00    +0.214 C 
ATOM     30  C   UNL     1      -7.278  -0.048  -0.769  0.00  0.00    +0.109 C 
ATOM     31  H   UNL     1      -5.511  -1.755  -0.977  0.00  0.00    +0.155 HD
ENDBRANCH  28   6
ENDBRANCH  15  19
BRANCH   4  14
ATOM     14  C   UNL     1       2.400   2.858  -0.946  0.00  0.00    +0.126 C 
BRANCH  14  20
ATOM      1  S   UNL     1       1.592   2.872   1.693  0.00  0.00    -0.100 S 
ATOM     20  C   UNL     1       1.410   3.351   0.070  0.00  0.00    +0.004 A 
ATOM     23  C   UNL     1       0.337   4.167  -0.137  0.00  0.00    +0.012 A 
ATOM     24  C   UNL     1      -0.369   4.413   1.076  0.00  0.00    +0.008 A 
ATOM     27  C   UNL     1       0.207   3.769   2.149  0.00  0.00    +0.045 A 
ENDBRANCH  14  20
ENDBRANCH   4  14
TORSDOF 4
