REMARK  Name = 11883074
REMARK  9 active torsions:
REMARK  status: ('A' for Active; 'I' for Inactive)
REMARK    1  A    between atoms: O_2  and  C_17
REMARK    2  A    between atoms: O_3  and  C_22
REMARK    3  A    between atoms: C_12  and  C_20
REMARK    4  A    between atoms: C_14  and  C_22
REMARK    5  A    between atoms: C_14  and  C_23
REMARK    6  A    between atoms: C_15  and  C_25
REMARK    7  A    between atoms: C_25  and  C_26
REMARK    8  A    between atoms: C_32  and  C_34
REMARK    9  A    between atoms: C_33  and  C_35
REMARK                            x       y       z     vdW  Elec       q    Type
REMARK                         _______ _______ _______ _____ _____    ______ ____
ROOT
ATOM      1  S   UNL     1       0.449  -3.765   0.205  0.00  0.00    -0.057 S 
ATOM      5  O   UNL     1      -3.595  -1.572  -0.242  0.00  0.00    -0.266 OA
ATOM      8  N   UNL     1      -0.684  -1.459  -0.095  0.00  0.00    -0.229 NA
ATOM     10  N   UNL     1      -2.138  -3.377   0.026  0.00  0.00    -0.258 N 
ATOM     12  C   UNL     1       2.791   0.158   0.329  0.00  0.00    -0.019 C 
ATOM     13  C   UNL     1       3.538  -1.093  -0.314  0.00  0.00    +0.011 C 
ATOM     14  C   UNL     1       5.115  -1.064  -0.309  0.00  0.00    +0.021 C 
ATOM     15  C   UNL     1       1.272   0.133  -0.167  0.00  0.00    +0.054 C 
ATOM     16  C   UNL     1       3.449   1.468  -0.178  0.00  0.00    +0.010 C 
ATOM     17  C   UNL     1       5.604   0.329  -0.798  0.00  0.00    +0.123 C 
ATOM     18  C   UNL     1       2.934  -2.436   0.188  0.00  0.00    +0.049 C 
ATOM     19  C   UNL     1       4.964   1.489  -0.044  0.00  0.00    +0.032 C 
ATOM     20  C   UNL     1       2.828   0.150   1.877  0.00  0.00    +0.012 C 
ATOM     21  C   UNL     1       0.681  -1.248  -0.033  0.00  0.00    +0.058 A 
ATOM     23  C   UNL     1       5.644  -2.121  -1.320  0.00  0.00    +0.016 C 
ATOM     24  C   UNL     1       1.446  -2.388   0.107  0.00  0.00    +0.015 A 
ATOM     27  C   UNL     1      -0.922  -2.747   0.027  0.00  0.00    +0.165 A 
ATOM     33  C   UNL     1      -3.411  -2.779  -0.106  0.00  0.00    +0.285 C 
ATOM     41  H   UNL     1      -2.098  -4.387   0.141  0.00  0.00    +0.157 HD
ENDROOT
BRANCH  33  35
ATOM      7  O   UNL     1      -4.281  -5.028   0.170  0.00  0.00    -0.458 OA
ATOM     35  C   UNL     1      -4.550  -3.710  -0.022  0.00  0.00    +0.189 A 
ATOM     36  C   UNL     1      -5.907  -3.501  -0.104  0.00  0.00    +0.054 A 
ATOM     37  C   UNL     1      -6.511  -4.772   0.048  0.00  0.00    +0.042 A 
ATOM     38  C   UNL     1      -5.479  -5.668   0.211  0.00  0.00    +0.196 A 
ENDBRANCH  33  35
BRANCH  17   2
ATOM      2  O   UNL     1       7.023   0.433  -0.684  0.00  0.00    -0.391 OA
ATOM     39  H   UNL     1       7.285   1.298  -1.043  0.00  0.00    +0.210 HD
ENDBRANCH  17   2
BRANCH  14  22
ATOM     22  C   UNL     1       5.759  -1.428   1.047  0.00  0.00    +0.165 C 
BRANCH  22   3
ATOM      3  O   UNL     1       7.159  -1.370   0.890  0.00  0.00    -0.394 OA
ATOM     40  H   UNL     1       7.556  -1.609   1.744  0.00  0.00    +0.209 HD
ENDBRANCH  22   3
ENDBRANCH  14  22
BRANCH  15  25
ATOM     25  C   UNL     1       0.372   1.194   0.480  0.00  0.00    +0.106 C 
BRANCH  25  26
ATOM      4  O   UNL     1      -0.833   0.979  -1.548  0.00  0.00    -0.276 OA
ATOM      9  N   UNL     1      -1.677   2.489   0.003  0.00  0.00    -0.301 N 
ATOM     26  C   UNL     1      -0.763   1.538  -0.451  0.00  0.00    +0.216 C 
ATOM     28  C   UNL     1      -1.620   3.170   1.302  0.00  0.00    +0.108 C 
ATOM     29  C   UNL     1      -2.828   2.848  -0.827  0.00  0.00    +0.108 C 
ATOM     30  C   UNL     1      -1.653   4.686   1.120  0.00  0.00    +0.032 C 
ATOM     31  C   UNL     1      -2.887   4.356  -1.054  0.00  0.00    +0.032 C 
ATOM     32  C   UNL     1      -2.856   5.116   0.275  0.00  0.00    +0.078 C 
BRANCH  32  34
ATOM      6  O   UNL     1      -2.235   7.047  -0.987  0.00  0.00    -0.276 OA
ATOM     11  N   UNL     1      -3.401   7.354   0.973  0.00  0.00    -0.329 N 
ATOM     34  C   UNL     1      -2.795   6.588   0.006  0.00  0.00    +0.214 C 
ATOM     42  H   UNL     1      -3.419   8.366   0.901  0.00  0.00    +0.145 HD
ATOM     43  H   UNL     1      -3.846   6.949   1.791  0.00  0.00    +0.145 HD
ENDBRANCH  32  34
ENDBRANCH  25  26
ENDBRANCH  15  25
TORSDOF 7
