REMARK  Name = 45783973
REMARK  16 active torsions:
REMARK  status: ('A' for Active; 'I' for Inactive)
REMARK    1  A    between atoms: O_2  and  C_21
REMARK    2  A    between atoms: O_2  and  C_24
REMARK    3  A    between atoms: N_3  and  C_14
REMARK    4  A    between atoms: N_3  and  C_20
REMARK    5  A    between atoms: N_6  and  C_29
REMARK    6  A    between atoms: N_6  and  C_30
REMARK    7  A    between atoms: N_6  and  C_31
REMARK    8  A    between atoms: C_7  and  C_11
REMARK    9  A    between atoms: C_8  and  C_14
REMARK   10  A    between atoms: C_10  and  C_15
REMARK   11  A    between atoms: C_11  and  C_16
REMARK   12  A    between atoms: C_11  and  C_17
REMARK   13  A    between atoms: C_12  and  C_18
REMARK   14  A    between atoms: C_15  and  C_19
REMARK   15  A    between atoms: C_20  and  C_21
REMARK   16  A    between atoms: C_22  and  C_23
REMARK                            x       y       z     vdW  Elec       q    Type
REMARK                         _______ _______ _______ _____ _____    ______ ____
ROOT
ATOM      7  C   UNL     1       2.068   0.643  -1.417  0.00  0.00    +0.000 C 
ATOM      8  C   UNL     1       3.614   0.680  -1.507  0.00  0.00    +0.029 C 
ATOM      9  C   UNL     1       1.519   2.026  -1.035  0.00  0.00    +0.012 C 
ATOM     10  C   UNL     1       2.075   2.521   0.314  0.00  0.00    +0.024 C 
ATOM     12  C   UNL     1       3.577   2.339   0.405  0.00  0.00    -0.073 C 
ATOM     13  C   UNL     1       4.249   1.522  -0.426  0.00  0.00    -0.023 C 
ATOM     18  C   UNL     1       4.295   3.154   1.444  0.00  0.00    +0.039 C 
ENDROOT
BRANCH   7  11
ATOM     11  C   UNL     1       1.433   0.178  -2.731  0.00  0.00    -0.013 C 
ATOM     16  C   UNL     1       1.346   1.336  -3.720  0.00  0.00    +0.007 C 
ATOM     17  C   UNL     1       0.052  -0.418  -2.474  0.00  0.00    +0.007 C 
ENDBRANCH   7  11
BRANCH   8  14
ATOM     14  C   UNL     1       4.204  -0.734  -1.465  0.00  0.00    +0.088 C 
BRANCH  14   3
ATOM      3  N   UNL     1       3.933  -1.366  -0.185  0.00  0.00    -0.313 NA
ATOM     32  H   UNL     1       4.327  -0.817   0.578  0.00  0.00    +0.122 HD
BRANCH   3  20
ATOM     20  C   UNL     1       4.483  -2.715  -0.139  0.00  0.00    +0.109 C 
BRANCH  20  21
ATOM     21  C   UNL     1       4.157  -3.383   1.188  0.00  0.00    +0.174 C 
BRANCH  21   2
ATOM      2  O   UNL     1       4.695  -4.698   1.181  0.00  0.00    -0.382 OA
ATOM     24  C   UNL     1       4.441  -5.371   2.407  0.00  0.00    +0.194 C 
ENDBRANCH  21   2
ENDBRANCH  20  21
ENDBRANCH   3  20
ENDBRANCH  14   3
ENDBRANCH   8  14
BRANCH  10  15
ATOM     15  C   UNL     1       1.367   1.835   1.488  0.00  0.00    +0.105 C 
BRANCH  15  19
ATOM      1  O   UNL     1      -0.868   0.984   1.000  0.00  0.00    -0.420 OA
ATOM      4  N   UNL     1      -0.831   3.100   1.725  0.00  0.00    -0.112 NA
ATOM      5  N   UNL     1      -2.148   2.752   1.491  0.00  0.00    -0.107 NA
ATOM     19  C   UNL     1      -0.120   2.039   1.426  0.00  0.00    +0.218 A 
ATOM     22  C   UNL     1      -2.122   1.510   1.069  0.00  0.00    +0.248 A 
BRANCH  22  23
ATOM     23  C   UNL     1      -3.190   0.636   0.677  0.00  0.00    +0.039 A 
ATOM     25  C   UNL     1      -4.509   1.087   0.715  0.00  0.00    +0.015 A 
ATOM     26  C   UNL     1      -2.909  -0.664   0.258  0.00  0.00    +0.015 A 
ATOM     27  C   UNL     1      -5.548   0.238   0.334  0.00  0.00    +0.024 A 
ATOM     28  C   UNL     1      -3.948  -1.513  -0.123  0.00  0.00    +0.024 A 
ATOM     29  C   UNL     1      -5.267  -1.062  -0.085  0.00  0.00    +0.029 A 
BRANCH  29   6
ATOM      6  N   UNL     1      -6.318  -1.921  -0.469  0.00  0.00    -0.336 N 
ATOM     30  C   UNL     1      -6.037  -3.272  -0.914  0.00  0.00    +0.129 C 
ATOM     31  C   UNL     1      -7.692  -1.462  -0.432  0.00  0.00    +0.129 C 
ENDBRANCH  29   6
ENDBRANCH  22  23
ENDBRANCH  15  19
ENDBRANCH  10  15
TORSDOF 10
