REMARK  Name = 45784160
REMARK  11 active torsions:
REMARK  status: ('A' for Active; 'I' for Inactive)
REMARK    1  A    between atoms: N_3  and  C_13
REMARK    2  A    between atoms: N_6  and  C_29
REMARK    3  A    between atoms: C_8  and  C_12
REMARK    4  A    between atoms: C_9  and  C_13
REMARK    5  A    between atoms: C_11  and  C_19
REMARK    6  A    between atoms: C_12  and  C_21
REMARK    7  A    between atoms: C_12  and  C_22
REMARK    8  A    between atoms: C_14  and  C_23
REMARK    9  A    between atoms: C_15  and  C_20
REMARK   10  A    between atoms: C_19  and  C_24
REMARK   11  A    between atoms: C_25  and  C_26
REMARK                            x       y       z     vdW  Elec       q    Type
REMARK                         _______ _______ _______ _____ _____    ______ ____
ROOT
ATOM      8  C   UNL     1       1.631  -0.644   1.257  0.00  0.00    +0.000 C 
ATOM      9  C   UNL     1       3.156  -0.870   1.102  0.00  0.00    +0.032 C 
ATOM     10  C   UNL     1       0.859  -1.919   0.887  0.00  0.00    +0.012 C 
ATOM     11  C   UNL     1       1.141  -2.372  -0.558  0.00  0.00    +0.024 C 
ATOM     14  C   UNL     1       2.623  -2.363  -0.872  0.00  0.00    -0.073 C 
ATOM     16  C   UNL     1       3.510  -1.697  -0.111  0.00  0.00    -0.022 C 
ATOM     23  C   UNL     1       3.070  -3.175  -2.056  0.00  0.00    +0.039 C 
ENDROOT
BRANCH   8  12
ATOM     12  C   UNL     1       1.262  -0.209   2.679  0.00  0.00    -0.013 C 
ATOM     21  C   UNL     1      -0.053   0.564   2.675  0.00  0.00    +0.007 C 
ATOM     22  C   UNL     1       1.175  -1.421   3.601  0.00  0.00    +0.007 C 
ENDBRANCH   8  12
BRANCH   9  13
ATOM     13  C   UNL     1       3.910   0.463   1.050  0.00  0.00    +0.112 C 
BRANCH  13   3
ATOM      1  O   UNL     1       2.702   3.104   0.895  0.00  0.00    -0.276 OA
ATOM      3  N   UNL     1       3.565   1.196  -0.128  0.00  0.00    -0.315 N 
ATOM     20  C   UNL     1       2.987   2.460  -0.108  0.00  0.00    +0.216 C 
ATOM     30  H   UNL     1       3.795   0.789  -1.031  0.00  0.00    +0.149 HD
BRANCH  20  15
ATOM     15  C   UNL     1       2.713   3.039  -1.457  0.00  0.00    +0.075 C 
ATOM     17  C   UNL     1       1.432   2.686  -2.155  0.00  0.00    +0.013 C 
ATOM     18  C   UNL     1       1.631   4.068  -1.605  0.00  0.00    +0.013 C 
ENDBRANCH  20  15
ENDBRANCH  13   3
ENDBRANCH   9  13
BRANCH  11  19
ATOM     19  C   UNL     1       0.361  -1.520  -1.566  0.00  0.00    +0.105 C 
BRANCH  19  24
ATOM      2  O   UNL     1      -1.648  -0.451  -0.687  0.00  0.00    -0.419 OA
ATOM      4  N   UNL     1      -1.992  -2.494  -1.529  0.00  0.00    -0.112 NA
ATOM      5  N   UNL     1      -3.204  -2.012  -1.071  0.00  0.00    -0.106 NA
ATOM     24  C   UNL     1      -1.114  -1.551  -1.285  0.00  0.00    +0.218 A 
ATOM     25  C   UNL     1      -2.956  -0.817  -0.588  0.00  0.00    +0.266 A 
BRANCH  25  26
ATOM      6  N   UNL     1      -3.933   1.380  -0.035  0.00  0.00    -0.329 N 
ATOM      7  N   UNL     1      -5.790   0.810   1.042  0.00  0.00    -0.243 NA
ATOM     26  C   UNL     1      -3.951   0.013  -0.017  0.00  0.00    +0.125 A 
ATOM     27  C   UNL     1      -5.106  -0.314   0.653  0.00  0.00    +0.143 A 
ATOM     28  C   UNL     1      -5.056   1.813   0.612  0.00  0.00    +0.199 A 
ATOM     29  C   UNL     1      -2.926   2.233  -0.623  0.00  0.00    +0.150 C 
ENDBRANCH  25  26
ENDBRANCH  19  24
ENDBRANCH  11  19
TORSDOF 7
