REMARK  Name = 11886262
REMARK  6 active torsions:
REMARK  status: ('A' for Active; 'I' for Inactive)
REMARK    1  A    between atoms: O_3  and  C_27
REMARK    2  A    between atoms: O_3  and  C_28
REMARK    3  A    between atoms: N_5  and  C_16
REMARK    4  A    between atoms: N_6  and  C_17
REMARK    5  A    between atoms: N_7  and  C_20
REMARK    6  A    between atoms: N_11  and  C_33
REMARK                            x       y       z     vdW  Elec       q    Type
REMARK                         _______ _______ _______ _____ _____    ______ ____
ROOT
ATOM      1  O   UNL     1      -1.863   0.676   1.708  0.00  0.00    -0.370 OA
ATOM      2  O   UNL     1      -1.925   3.236  -0.118  0.00  0.00    -0.370 OA
ATOM     14  C   UNL     1      -2.437   1.900  -0.249  0.00  0.00    +0.171 C 
ATOM     15  C   UNL     1      -1.423   0.956   0.367  0.00  0.00    +0.176 C 
ATOM     16  C   UNL     1      -3.674   1.728   0.603  0.00  0.00    +0.131 C 
ATOM     17  C   UNL     1      -0.130   1.749   0.403  0.00  0.00    +0.171 C 
ATOM     18  C   UNL     1      -3.088   1.379   1.958  0.00  0.00    +0.185 C 
ATOM     19  C   UNL     1      -0.616   3.193   0.466  0.00  0.00    +0.190 C 
ENDROOT
BRANCH  16   5
ATOM      4  O   UNL     1      -6.509   1.434   0.987  0.00  0.00    -0.253 OA
ATOM      5  N   UNL     1      -4.507   0.660   0.104  0.00  0.00    -0.292 N 
ATOM      7  N   UNL     1      -6.444  -0.530  -0.251  0.00  0.00    -0.297 N 
ATOM     23  C   UNL     1      -5.879   0.598   0.339  0.00  0.00    +0.300 C 
ATOM     36  H   UNL     1      -4.067  -0.114  -0.385  0.00  0.00    +0.151 HD
ATOM     37  H   UNL     1      -5.820  -1.192  -0.701  0.00  0.00    +0.151 HD
BRANCH   7  20
ATOM     20  C   UNL     1      -7.852  -0.846  -0.167  0.00  0.00    +0.074 C 
ATOM     21  C   UNL     1      -8.332  -1.563  -1.433  0.00  0.00    +0.022 C 
ATOM     22  C   UNL     1      -8.158  -1.671   1.088  0.00  0.00    +0.022 C 
ATOM     24  C   UNL     1      -7.808  -2.996  -1.528  0.00  0.00    +0.002 C 
ATOM     25  C   UNL     1      -7.633  -3.103   0.989  0.00  0.00    +0.002 C 
ATOM     26  C   UNL     1      -8.133  -3.799  -0.273  0.00  0.00    +0.000 C 
ENDBRANCH   7  20
ENDBRANCH  16   5
BRANCH  17   6
ATOM      6  N   UNL     1       0.751   1.440  -0.726  0.00  0.00    -0.187 N 
ATOM      8  N   UNL     1       0.343   1.609  -1.991  0.00  0.00    -0.041 NA
ATOM      9  N   UNL     1       2.433   0.833  -1.953  0.00  0.00    -0.071 NA
ATOM     10  N   UNL     1       1.376   1.237  -2.737  0.00  0.00    -0.020 NA
ATOM     27  C   UNL     1       2.024   0.967  -0.713  0.00  0.00    +0.342 A 
BRANCH  27   3
ATOM      3  O   UNL     1       2.715   0.694   0.379  0.00  0.00    -0.423 OA
BRANCH   3  28
ATOM     28  C   UNL     1       4.016   0.210   0.339  0.00  0.00    +0.132 A 
ATOM     29  C   UNL     1       4.247  -1.165   0.302  0.00  0.00    +0.048 A 
ATOM     30  C   UNL     1       5.090   1.099   0.336  0.00  0.00    +0.048 A 
ATOM     31  C   UNL     1       5.554  -1.651   0.263  0.00  0.00    +0.031 A 
ATOM     32  C   UNL     1       6.397   0.613   0.296  0.00  0.00    +0.031 A 
ATOM     33  C   UNL     1       6.629  -0.762   0.260  0.00  0.00    +0.067 A 
BRANCH  33  11
ATOM     11  N   UNL     1       7.925  -1.244   0.221  0.00  0.00    -0.220 N 
ATOM     12  N   UNL     1       8.985  -0.421   0.217  0.00  0.00    -0.154 NA
ATOM     13  N   UNL     1       9.623  -2.617   0.155  0.00  0.00    -0.222 NA
ATOM     34  C   UNL     1       8.313  -2.547   0.183  0.00  0.00    +0.225 A 
ATOM     35  C   UNL     1       9.988  -1.301   0.177  0.00  0.00    +0.245 A 
ENDBRANCH  33  11
ENDBRANCH   3  28
ENDBRANCH  27   3
ENDBRANCH  17   6
TORSDOF 6
