REMARK  Name = 75536331
REMARK  11 active torsions:
REMARK  status: ('A' for Active; 'I' for Inactive)
REMARK    1  A    between atoms: O_2  and  C_12
REMARK    2  A    between atoms: O_5  and  C_21
REMARK    3  A    between atoms: O_5  and  C_25
REMARK    4  A    between atoms: O_6  and  C_28
REMARK    5  A    between atoms: O_6  and  C_34
REMARK    6  A    between atoms: N_7  and  C_16
REMARK    7  A    between atoms: N_9  and  C_22
REMARK    8  A    between atoms: C_10  and  C_15
REMARK    9  A    between atoms: C_11  and  C_16
REMARK   10  A    between atoms: C_15  and  C_17
REMARK   11  A    between atoms: C_20  and  C_21
REMARK                            x       y       z     vdW  Elec       q    Type
REMARK                         _______ _______ _______ _____ _____    ______ ____
ROOT
ATOM      1  O   UNL     1       3.922  -0.255   0.875  0.00  0.00    -0.369 OA
ATOM     10  C   UNL     1       4.367  -0.823  -0.358  0.00  0.00    +0.125 C 
ATOM     11  C   UNL     1       4.367   1.085   1.125  0.00  0.00    +0.164 C 
ATOM     12  C   UNL     1       5.897   1.187   1.056  0.00  0.00    +0.145 C 
ATOM     13  C   UNL     1       5.894  -0.850  -0.420  0.00  0.00    +0.034 C 
ATOM     14  C   UNL     1       6.465   0.550  -0.210  0.00  0.00    +0.036 C 
ENDROOT
BRANCH  12   2
ATOM      2  O   UNL     1       6.456   0.500   2.178  0.00  0.00    -0.389 OA
ATOM     35  H   UNL     1       7.421   0.614   2.142  0.00  0.00    +0.210 HD
ENDBRANCH  12   2
BRANCH  10  15
ATOM     15  C   UNL     1       3.797  -2.234  -0.446  0.00  0.00    +0.090 C 
BRANCH  15  17
ATOM      3  O   UNL     1       0.622  -2.252  -2.152  0.00  0.00    -0.356 OA
ATOM      8  N   UNL     1       2.012  -2.276  -2.138  0.00  0.00    -0.083 NA
ATOM     17  C   UNL     1       2.346  -2.224  -0.846  0.00  0.00    +0.086 A 
ATOM     18  C   UNL     1       1.220  -2.168  -0.006  0.00  0.00    +0.074 A 
ATOM     20  C   UNL     1       0.163  -2.188  -0.876  0.00  0.00    +0.175 A 
BRANCH  20  21
ATOM     21  C   UNL     1      -1.295  -2.156  -0.705  0.00  0.00    +0.306 C 
BRANCH  21   5
ATOM      5  O   UNL     1      -1.630  -1.746   0.624  0.00  0.00    -0.484 OA
BRANCH   5  25
ATOM     25  C   UNL     1      -2.959  -1.736   0.941  0.00  0.00    +0.121 A 
ATOM     29  C   UNL     1      -3.906  -2.111  -0.012  0.00  0.00    +0.045 A 
ATOM     30  C   UNL     1      -3.369  -1.349   2.216  0.00  0.00    +0.045 A 
ATOM     31  C   UNL     1      -5.263  -2.100   0.312  0.00  0.00    +0.004 A 
ATOM     32  C   UNL     1      -4.725  -1.337   2.540  0.00  0.00    +0.004 A 
ATOM     33  C   UNL     1      -5.673  -1.713   1.587  0.00  0.00    +0.000 A 
ENDBRANCH   5  25
ENDBRANCH  21   5
ENDBRANCH  20  21
ENDBRANCH  15  17
ENDBRANCH  10  15
BRANCH  11  16
ATOM     16  C   UNL     1       3.661   2.080   0.208  0.00  0.00    +0.140 C 
BRANCH  16   7
ATOM      4  O   UNL     1       1.310   1.565  -1.345  0.00  0.00    -0.253 OA
ATOM      7  N   UNL     1       2.304   2.281   0.617  0.00  0.00    -0.297 N 
ATOM      9  N   UNL     1       0.002   2.298   0.461  0.00  0.00    -0.269 N 
ATOM     19  C   UNL     1       1.196   2.005  -0.204  0.00  0.00    +0.304 C 
ATOM     36  H   UNL     1       2.134   2.689   1.531  0.00  0.00    +0.150 HD
ATOM     37  H   UNL     1       0.085   2.657   1.409  0.00  0.00    +0.156 HD
BRANCH   9  22
ATOM     22  C   UNL     1      -1.319   2.157  -0.024  0.00  0.00    +0.035 A 
ATOM     23  C   UNL     1      -1.541   1.671  -1.313  0.00  0.00    +0.027 A 
ATOM     24  C   UNL     1      -2.400   2.503   0.787  0.00  0.00    +0.027 A 
ATOM     26  C   UNL     1      -2.844   1.532  -1.790  0.00  0.00    +0.047 A 
ATOM     27  C   UNL     1      -3.703   2.364   0.309  0.00  0.00    +0.047 A 
ATOM     28  C   UNL     1      -3.925   1.879  -0.980  0.00  0.00    +0.120 A 
BRANCH  28   6
ATOM      6  O   UNL     1      -5.196   1.743  -1.446  0.00  0.00    -0.495 OA
ATOM     34  C   UNL     1      -6.254   2.116  -0.565  0.00  0.00    +0.277 C 
ENDBRANCH  28   6
ENDBRANCH   9  22
ENDBRANCH  16   7
ENDBRANCH  11  16
TORSDOF 10
