REMARK  Name = 40781547
REMARK  11 active torsions:
REMARK  status: ('A' for Active; 'I' for Inactive)
REMARK    1  A    between atoms: S_1  and  N_8
REMARK    2  A    between atoms: S_1  and  C_18
REMARK    3  A    between atoms: O_3  and  C_10
REMARK    4  A    between atoms: O_4  and  C_11
REMARK    5  A    between atoms: N_8  and  C_14
REMARK    6  A    between atoms: N_9  and  C_17
REMARK    7  A    between atoms: N_9  and  C_19
REMARK    8  A    between atoms: C_12  and  C_14
REMARK    9  A    between atoms: C_13  and  C_15
REMARK   10  A    between atoms: C_15  and  C_16
REMARK   11  A    between atoms: C_17  and  C_20
REMARK                            x       y       z     vdW  Elec       q    Type
REMARK                         _______ _______ _______ _____ _____    ______ ____
ROOT
ATOM      2  O   UNL     1       0.113  -2.440  -1.101  0.00  0.00    -0.366 OA
ATOM     10  C   UNL     1      -1.218  -3.377   0.606  0.00  0.00    +0.175 C 
ATOM     11  C   UNL     1       0.007  -4.251   0.437  0.00  0.00    +0.175 C 
ATOM     12  C   UNL     1      -1.261  -2.652  -0.730  0.00  0.00    +0.165 C 
ATOM     13  C   UNL     1       0.951  -3.332  -0.330  0.00  0.00    +0.158 C 
ENDROOT
BRANCH  10   3
ATOM      3  O   UNL     1      -2.400  -4.110   0.848  0.00  0.00    -0.387 OA
ATOM     31  H   UNL     1      -2.250  -4.651   1.642  0.00  0.00    +0.210 HD
ENDBRANCH  10   3
BRANCH  11   4
ATOM      4  O   UNL     1      -0.294  -5.371  -0.395  0.00  0.00    -0.387 OA
ATOM     32  H   UNL     1       0.527  -5.880  -0.504  0.00  0.00    +0.210 HD
ENDBRANCH  11   4
BRANCH  12  14
ATOM     14  C   UNL     1      -1.986  -1.320  -0.669  0.00  0.00    +0.140 C 
BRANCH  14   8
ATOM      8  N   UNL     1      -1.306  -0.434   0.295  0.00  0.00    -0.187 NA
ATOM     33  H   UNL     1      -1.305  -0.752   1.271  0.00  0.00    +0.148 HD
BRANCH   8   1
ATOM      1  S   UNL     1      -1.323   1.252   0.064  0.00  0.00    +0.058 S 
ATOM      6  O   UNL     1      -0.828   1.559  -1.265  0.00  0.00    -0.153 OA
ATOM      7  O   UNL     1      -0.741   1.894   1.226  0.00  0.00    -0.153 OA
BRANCH   1  18
ATOM     18  C   UNL     1      -3.055   1.603   0.094  0.00  0.00    +0.105 A 
ATOM     21  C   UNL     1      -3.685   1.906   1.301  0.00  0.00    +0.028 A 
ATOM     22  C   UNL     1      -3.793   1.576  -1.090  0.00  0.00    +0.028 A 
ATOM     25  C   UNL     1      -5.052   2.183   1.325  0.00  0.00    +0.002 A 
ATOM     26  C   UNL     1      -5.160   1.853  -1.066  0.00  0.00    +0.002 A 
ATOM     27  C   UNL     1      -5.789   2.156   0.141  0.00  0.00    +0.000 A 
ENDBRANCH   1  18
ENDBRANCH   8   1
ENDBRANCH  14   8
ENDBRANCH  12  14
BRANCH  13  15
ATOM     15  C   UNL     1       1.824  -2.480   0.580  0.00  0.00    +0.130 C 
BRANCH  15  16
ATOM      5  O   UNL     1       2.616  -1.425  -1.420  0.00  0.00    -0.276 OA
ATOM      9  N   UNL     1       3.492  -0.642   0.580  0.00  0.00    -0.300 N 
ATOM     16  C   UNL     1       2.672  -1.475  -0.188  0.00  0.00    +0.218 C 
ATOM     19  C   UNL     1       3.542  -0.720   2.035  0.00  0.00    +0.132 C 
BRANCH   9  17
ATOM     17  C   UNL     1       4.361   0.370  -0.017  0.00  0.00    +0.142 C 
BRANCH  17  20
ATOM     20  C   UNL     1       3.682   1.705  -0.118  0.00  0.00    -0.030 A 
ATOM     23  C   UNL     1       2.953   2.033  -1.261  0.00  0.00    +0.005 A 
ATOM     24  C   UNL     1       3.781   2.618   0.932  0.00  0.00    +0.005 A 
ATOM     28  C   UNL     1       2.323   3.274  -1.354  0.00  0.00    +0.000 A 
ATOM     29  C   UNL     1       3.151   3.858   0.840  0.00  0.00    +0.000 A 
ATOM     30  C   UNL     1       2.422   4.187  -0.303  0.00  0.00    +0.000 A 
ENDBRANCH  17  20
ENDBRANCH   9  17
ENDBRANCH  15  16
ENDBRANCH  13  15
TORSDOF 10
