REMARK  Name = 71694019
REMARK  8 active torsions:
REMARK  status: ('A' for Active; 'I' for Inactive)
REMARK    1  A    between atoms: S_1  and  N_6
REMARK    2  A    between atoms: S_1  and  C_17
REMARK    3  A    between atoms: O_2  and  C_10
REMARK    4  A    between atoms: O_3  and  C_12
REMARK    5  A    between atoms: N_6  and  C_9
REMARK    6  A    between atoms: C_8  and  C_13
REMARK    7  A    between atoms: C_14  and  C_18
REMARK    8  A    between atoms: C_23  and  C_26
REMARK                            x       y       z     vdW  Elec       q    Type
REMARK                         _______ _______ _______ _____ _____    ______ ____
ROOT
ATOM      8  C   UNL     1      -1.629  -0.680  -0.741  0.00  0.00    +0.043 C 
ATOM      9  C   UNL     1      -1.788   0.486   0.273  0.00  0.00    +0.115 C 
ATOM     10  C   UNL     1      -3.213   0.370   0.827  0.00  0.00    +0.162 C 
ATOM     11  C   UNL     1      -2.929  -1.496  -0.631  0.00  0.00    +0.043 C 
ATOM     12  C   UNL     1      -3.957  -0.454  -0.221  0.00  0.00    +0.145 C 
ENDROOT
BRANCH   8  13
ATOM     13  C   UNL     1      -0.385  -1.514  -0.530  0.00  0.00    -0.040 A 
ATOM     14  C   UNL     1       0.565  -1.654  -1.542  0.00  0.00    -0.047 A 
ATOM     15  C   UNL     1      -0.195  -2.149   0.697  0.00  0.00    +0.004 A 
ATOM     16  C   UNL     1       1.705  -2.428  -1.326  0.00  0.00    +0.003 A 
ATOM     18  C   UNL     1       0.383  -0.984  -2.865  0.00  0.00    +0.044 C 
ATOM     19  C   UNL     1       0.945  -2.923   0.913  0.00  0.00    +0.000 A 
ATOM     20  C   UNL     1       1.895  -3.063  -0.099  0.00  0.00    +0.000 A 
ENDBRANCH   8  13
BRANCH  10   2
ATOM      2  O   UNL     1      -3.150  -0.333   2.067  0.00  0.00    -0.388 OA
ATOM     28  H   UNL     1      -2.666   0.229   2.696  0.00  0.00    +0.210 HD
ENDBRANCH  10   2
BRANCH  12   3
ATOM      3  O   UNL     1      -5.130  -1.054   0.287  0.00  0.00    -0.389 OA
ATOM     29  H   UNL     1      -5.492  -1.627  -0.411  0.00  0.00    +0.210 HD
ENDBRANCH  12   3
BRANCH   9   6
ATOM      6  N   UNL     1      -1.641   1.781  -0.442  0.00  0.00    -0.184 NA
ATOM     27  H   UNL     1      -2.112   1.885  -1.348  0.00  0.00    +0.148 HD
BRANCH   6   1
ATOM      1  S   UNL     1      -0.459   2.894   0.057  0.00  0.00    +0.059 S 
ATOM      4  O   UNL     1      -0.623   3.172   1.471  0.00  0.00    -0.153 OA
ATOM      5  O   UNL     1      -0.409   3.984  -0.900  0.00  0.00    -0.153 OA
BRANCH   1  17
ATOM     17  C   UNL     1       1.029   1.961  -0.145  0.00  0.00    +0.106 A 
ATOM     21  C   UNL     1       1.518   1.190   0.909  0.00  0.00    +0.047 A 
ATOM     22  C   UNL     1       1.714   1.997  -1.360  0.00  0.00    +0.028 A 
ATOM     23  C   UNL     1       2.693   0.455   0.749  0.00  0.00    +0.054 A 
ATOM     24  C   UNL     1       2.889   1.262  -1.520  0.00  0.00    +0.003 A 
ATOM     25  C   UNL     1       3.378   0.491  -0.465  0.00  0.00    +0.019 A 
BRANCH  23  26
ATOM      7  N   UNL     1       3.601  -0.977   2.706  0.00  0.00    -0.191 NA
ATOM     26  C   UNL     1       3.194  -0.335   1.829  0.00  0.00    +0.099 C 
ENDBRANCH  23  26
ENDBRANCH   1  17
ENDBRANCH   6   1
ENDBRANCH   9   6
TORSDOF 7
