REMARK  Name = 7051672
REMARK  6 active torsions:
REMARK  status: ('A' for Active; 'I' for Inactive)
REMARK    1  A    between atoms: N_3  and  C_15
REMARK    2  A    between atoms: N_5  and  C_26
REMARK    3  A    between atoms: N_6  and  C_19
REMARK    4  A    between atoms: C_15  and  C_18
REMARK    5  A    between atoms: C_28  and  C_30
REMARK    6  A    between atoms: C_35  and  C_36
REMARK                            x       y       z     vdW  Elec       q    Type
REMARK                         _______ _______ _______ _____ _____    ______ ____
ROOT
ATOM      1  O   UNL     1      -0.879   2.616  -1.364  0.00  0.00    -0.266 OA
ATOM      3  N   UNL     1       3.863   1.132  -0.699  0.00  0.00    -0.297 NA
ATOM      4  N   UNL     1       1.035   2.455  -0.035  0.00  0.00    -0.310 N 
ATOM      8  C   UNL     1       3.259   3.566  -0.657  0.00  0.00    +0.024 C 
ATOM      9  C   UNL     1       3.094   2.248   1.400  0.00  0.00    +0.050 C 
ATOM     10  C   UNL     1       3.485   3.616   0.848  0.00  0.00    +0.017 C 
ATOM     11  C   UNL     1       4.126   2.453  -1.285  0.00  0.00    +0.090 C 
ATOM     12  C   UNL     1       3.989   1.159   0.766  0.00  0.00    +0.094 C 
ATOM     13  C   UNL     1       1.761   3.369  -0.927  0.00  0.00    +0.130 C 
ATOM     14  C   UNL     1       1.629   1.956   1.129  0.00  0.00    +0.026 A 
ATOM     16  C   UNL     1       0.914   1.210   1.987  0.00  0.00    +0.024 A 
ATOM     17  C   UNL     1      -0.310   2.187  -0.360  0.00  0.00    +0.273 A 
ATOM     19  C   UNL     1      -1.066   1.332   0.610  0.00  0.00    +0.099 A 
ATOM     20  C   UNL     1      -0.461   0.892   1.718  0.00  0.00    +0.030 A 
ENDROOT
BRANCH  19   6
ATOM      2  O   UNL     1      -2.487  -1.002   1.434  0.00  0.00    -0.270 OA
ATOM      6  N   UNL     1      -2.367   1.040   0.326  0.00  0.00    -0.277 N 
ATOM     28  C   UNL     1      -3.003  -0.116   0.757  0.00  0.00    +0.248 C 
ATOM     37  H   UNL     1      -2.808   1.652  -0.352  0.00  0.00    +0.155 HD
BRANCH  28  30
ATOM     30  C   UNL     1      -4.431  -0.250   0.368  0.00  0.00    +0.037 A 
ATOM     31  C   UNL     1      -5.271  -1.001   1.163  0.00  0.00    +0.014 A 
ATOM     32  C   UNL     1      -4.871   0.384  -0.776  0.00  0.00    +0.014 A 
ATOM     33  C   UNL     1      -6.612  -1.125   0.798  0.00  0.00    +0.019 A 
ATOM     34  C   UNL     1      -6.212   0.260  -1.141  0.00  0.00    +0.019 A 
ATOM     35  C   UNL     1      -7.082  -0.495  -0.354  0.00  0.00    +0.052 A 
BRANCH  35  36
ATOM      7  N   UNL     1      -9.571  -0.728  -1.034  0.00  0.00    -0.191 NA
ATOM     36  C   UNL     1      -8.455  -0.624  -0.729  0.00  0.00    +0.099 C 
ENDBRANCH  35  36
ENDBRANCH  28  30
ENDBRANCH  19   6
BRANCH   3  15
ATOM     15  C   UNL     1       4.737   0.118  -1.282  0.00  0.00    +0.121 C 
BRANCH  15  18
ATOM      5  N   UNL     1       4.574  -3.272   0.068  0.00  0.00    -0.349 N 
ATOM     18  C   UNL     1       4.386  -1.246  -0.756  0.00  0.00    -0.008 A 
ATOM     21  C   UNL     1       3.083  -1.765  -0.629  0.00  0.00    +0.004 A 
ATOM     22  C   UNL     1       5.286  -2.172  -0.328  0.00  0.00    +0.091 A 
ATOM     23  C   UNL     1       3.226  -3.051  -0.105  0.00  0.00    +0.049 A 
ATOM     24  C   UNL     1       1.788  -1.284  -0.904  0.00  0.00    +0.010 A 
ATOM     25  C   UNL     1       2.133  -3.884   0.161  0.00  0.00    +0.026 A 
ATOM     26  C   UNL     1       5.167  -4.483   0.593  0.00  0.00    +0.149 C 
ATOM     27  C   UNL     1       0.685  -2.106  -0.643  0.00  0.00    +0.001 A 
ATOM     29  C   UNL     1       0.857  -3.386  -0.119  0.00  0.00    +0.002 A 
ENDBRANCH  15  18
ENDBRANCH   3  15
TORSDOF 5
