REMARK  Name = 45361435
REMARK  13 active torsions:
REMARK  status: ('A' for Active; 'I' for Inactive)
REMARK    1  A    between atoms: O_1  and  C_10
REMARK    2  A    between atoms: N_4  and  C_14
REMARK    3  A    between atoms: N_5  and  C_24
REMARK    4  A    between atoms: N_5  and  C_25
REMARK    5  A    between atoms: C_7  and  C_17
REMARK    6  A    between atoms: C_9  and  C_19
REMARK    7  A    between atoms: C_12  and  C_18
REMARK    8  A    between atoms: C_18  and  C_20
REMARK    9  A    between atoms: C_18  and  C_21
REMARK   10  A    between atoms: C_22  and  C_23
REMARK   11  A    between atoms: C_24  and  C_26
REMARK   12  A    between atoms: C_25  and  C_27
REMARK   13  A    between atoms: C_32  and  C_33
REMARK                            x       y       z     vdW  Elec       q    Type
REMARK                         _______ _______ _______ _____ _____    ______ ____
ROOT
ATOM      7  C   UNL     1       1.105   1.766   0.517  0.00  0.00    -0.027 C 
ATOM      8  C   UNL     1       0.956   0.303  -0.019  0.00  0.00    +0.028 C 
ATOM      9  C   UNL     1      -0.507  -0.226   0.203  0.00  0.00    +0.012 C 
ATOM     10  C   UNL     1       2.088  -0.615   0.524  0.00  0.00    +0.122 C 
ATOM     11  C   UNL     1       2.520   2.296   0.183  0.00  0.00    +0.007 C 
ATOM     12  C   UNL     1       3.498  -0.028   0.279  0.00  0.00    +0.029 C 
ATOM     13  C   UNL     1       0.080   2.674  -0.201  0.00  0.00    +0.009 C 
ATOM     14  C   UNL     1      -1.533   0.735  -0.460  0.00  0.00    +0.076 C 
ATOM     15  C   UNL     1       3.631   1.421   0.747  0.00  0.00    +0.007 C 
ATOM     16  C   UNL     1      -1.356   2.195  -0.044  0.00  0.00    +0.023 C 
ATOM     17  C   UNL     1       0.887   1.863   2.049  0.00  0.00    +0.011 C 
ATOM     19  C   UNL     1      -0.732  -1.652  -0.329  0.00  0.00    +0.010 C 
ENDROOT
BRANCH  14   4
ATOM      3  O   UNL     1      -3.810   1.082  -2.175  0.00  0.00    -0.270 OA
ATOM      4  N   UNL     1      -2.897   0.340  -0.177  0.00  0.00    -0.308 N 
ATOM     22  C   UNL     1      -3.931   0.552  -1.074  0.00  0.00    +0.244 C 
ATOM     34  H   UNL     1      -3.091   0.002   0.760  0.00  0.00    +0.149 HD
BRANCH  22  23
ATOM     23  C   UNL     1      -5.277   0.114  -0.623  0.00  0.00    +0.037 A 
ATOM     28  C   UNL     1      -6.418   0.738  -1.125  0.00  0.00    +0.014 A 
ATOM     29  C   UNL     1      -5.399  -0.924   0.302  0.00  0.00    +0.014 A 
ATOM     30  C   UNL     1      -7.682   0.326  -0.703  0.00  0.00    +0.019 A 
ATOM     31  C   UNL     1      -6.662  -1.336   0.724  0.00  0.00    +0.019 A 
ATOM     32  C   UNL     1      -7.804  -0.712   0.222  0.00  0.00    +0.052 A 
BRANCH  32  33
ATOM      6  N   UNL     1     -10.150  -1.477   1.007  0.00  0.00    -0.191 NA
ATOM     33  C   UNL     1      -9.098  -1.134   0.655  0.00  0.00    +0.099 C 
ENDBRANCH  32  33
ENDBRANCH  22  23
ENDBRANCH  14   4
BRANCH  10   1
ATOM      1  O   UNL     1       2.047  -1.873  -0.150  0.00  0.00    -0.391 OA
ATOM     35  H   UNL     1       2.177  -1.712  -1.100  0.00  0.00    +0.210 HD
ENDBRANCH  10   1
BRANCH  12  18
ATOM     18  C   UNL     1       4.591  -0.881   0.935  0.00  0.00    +0.078 C 
ATOM     20  C   UNL     1       4.357  -0.936   2.445  0.00  0.00    +0.017 C 
BRANCH  18  21
ATOM      2  O   UNL     1       6.453   0.565   1.357  0.00  0.00    -0.275 OA
ATOM      5  N   UNL     1       6.618  -0.752  -0.539  0.00  0.00    -0.302 N 
ATOM     21  C   UNL     1       5.968  -0.295   0.613  0.00  0.00    +0.219 C 
BRANCH   5  24
ATOM     24  C   UNL     1       6.133  -1.787  -1.449  0.00  0.00    +0.104 C 
ATOM     26  C   UNL     1       6.612  -3.162  -1.031  0.00  0.00    +0.024 C 
ENDBRANCH   5  24
BRANCH   5  25
ATOM     25  C   UNL     1       7.923  -0.198  -0.886  0.00  0.00    +0.104 C 
ATOM     27  C   UNL     1       7.788   1.022  -1.774  0.00  0.00    +0.024 C 
ENDBRANCH   5  25
ENDBRANCH  18  21
ENDBRANCH  12  18
TORSDOF 8
