REMARK  Name = 28960610
REMARK  10 active torsions:
REMARK  status: ('A' for Active; 'I' for Inactive)
REMARK    1  A    between atoms: O_3  and  C_9
REMARK    2  A    between atoms: N_4  and  C_7
REMARK    3  A    between atoms: N_4  and  C_13
REMARK    4  A    between atoms: N_4  and  C_14
REMARK    5  A    between atoms: N_5  and  C_8
REMARK    6  A    between atoms: N_5  and  C_15
REMARK    7  A    between atoms: C_13  and  C_16
REMARK    8  A    between atoms: C_15  and  C_17
REMARK    9  A    between atoms: C_16  and  C_18
REMARK   10  A    between atoms: C_24  and  C_27
REMARK                            x       y       z     vdW  Elec       q    Type
REMARK                         _______ _______ _______ _____ _____    ______ ____
ROOT
ATOM      1  O   UNL     1       3.192   2.692  -1.463  0.00  0.00    -0.343 OA
ATOM      2  O   UNL     1       5.203   2.729  -0.308  0.00  0.00    -0.347 OA
ATOM      7  C   UNL     1       3.864   0.717  -0.248  0.00  0.00    +0.143 C 
ATOM      8  C   UNL     1       2.321   2.528   0.786  0.00  0.00    +0.116 C 
ATOM      9  C   UNL     1       3.123   1.222   1.012  0.00  0.00    +0.156 C 
ATOM     10  C   UNL     1       2.974   3.450  -0.269  0.00  0.00    +0.166 C 
ATOM     11  C   UNL     1       4.337   1.905  -1.106  0.00  0.00    +0.270 C 
ATOM     12  C   UNL     1       4.399   3.860   0.061  0.00  0.00    +0.196 C 
ENDROOT
BRANCH   9   3
ATOM      3  O   UNL     1       4.108   1.463   2.027  0.00  0.00    -0.388 OA
ATOM     35  H   UNL     1       3.637   1.721   2.837  0.00  0.00    +0.210 HD
ENDBRANCH   9   3
BRANCH   7   4
ATOM      4  N   UNL     1       3.000  -0.159  -1.040  0.00  0.00    -0.295 NA
ATOM     14  C   UNL     1       3.490  -0.252  -2.415  0.00  0.00    +0.105 C 
BRANCH   4  13
ATOM     13  C   UNL     1       2.925  -1.487  -0.433  0.00  0.00    +0.091 C 
BRANCH  13  16
ATOM     16  C   UNL     1       1.667  -2.228  -0.888  0.00  0.00    +0.071 C 
BRANCH  16  18
ATOM      6  N   UNL     1       2.142  -4.616  -0.919  0.00  0.00    -0.260 NA
ATOM     18  C   UNL     1       1.567  -3.591  -0.251  0.00  0.00    +0.042 A 
ATOM     21  C   UNL     1       0.906  -3.727   0.959  0.00  0.00    +0.023 A 
ATOM     25  C   UNL     1       0.832  -4.997   1.521  0.00  0.00    +0.003 A 
ATOM     26  C   UNL     1       2.049  -5.835  -0.343  0.00  0.00    +0.111 A 
ATOM     28  C   UNL     1       1.412  -6.076   0.864  0.00  0.00    +0.020 A 
ENDBRANCH  16  18
ENDBRANCH  13  16
ENDBRANCH   4  13
ENDBRANCH   7   4
BRANCH   8   5
ATOM      5  N   UNL     1       0.956   2.223   0.343  0.00  0.00    -0.305 NA
ATOM     34  H   UNL     1       0.983   1.502  -0.377  0.00  0.00    +0.123 HD
BRANCH   5  15
ATOM     15  C   UNL     1       0.142   1.784   1.464  0.00  0.00    +0.116 C 
BRANCH  15  17
ATOM     17  C   UNL     1      -1.266   1.459   1.041  0.00  0.00    -0.034 A 
ATOM     19  C   UNL     1      -2.171   2.488   0.780  0.00  0.00    +0.005 A 
ATOM     20  C   UNL     1      -1.665   0.129   0.910  0.00  0.00    +0.005 A 
ATOM     22  C   UNL     1      -3.475   2.186   0.388  0.00  0.00    +0.009 A 
ATOM     23  C   UNL     1      -2.969  -0.173   0.518  0.00  0.00    +0.009 A 
ATOM     24  C   UNL     1      -3.874   0.856   0.257  0.00  0.00    -0.018 A 
BRANCH  24  27
ATOM     27  C   UNL     1      -5.227   0.543  -0.149  0.00  0.00    -0.018 A 
ATOM     29  C   UNL     1      -6.224   0.382   0.812  0.00  0.00    +0.008 A 
ATOM     30  C   UNL     1      -5.534   0.403  -1.503  0.00  0.00    +0.008 A 
ATOM     31  C   UNL     1      -7.529   0.080   0.421  0.00  0.00    +0.001 A 
ATOM     32  C   UNL     1      -6.839   0.102  -1.894  0.00  0.00    +0.001 A 
ATOM     33  C   UNL     1      -7.836  -0.060  -0.932  0.00  0.00    +0.000 A 
ENDBRANCH  24  27
ENDBRANCH  15  17
ENDBRANCH   5  15
ENDBRANCH   8   5
TORSDOF 9
