REMARK  Name = 75536572
REMARK  9 active torsions:
REMARK  status: ('A' for Active; 'I' for Inactive)
REMARK    1  A    between atoms: O_2  and  C_8
REMARK    2  A    between atoms: O_4  and  C_15
REMARK    3  A    between atoms: O_4  and  C_16
REMARK    4  A    between atoms: N_5  and  C_7
REMARK    5  A    between atoms: N_5  and  C_12
REMARK    6  A    between atoms: N_5  and  C_13
REMARK    7  A    between atoms: N_6  and  C_11
REMARK    8  A    between atoms: C_9  and  C_11
REMARK    9  A    between atoms: C_14  and  C_15
REMARK                            x       y       z     vdW  Elec       q    Type
REMARK                         _______ _______ _______ _____ _____    ______ ____
ROOT
ATOM      1  O   UNL     1      -0.685   1.365  -0.231  0.00  0.00    -0.371 OA
ATOM      7  C   UNL     1      -2.721   0.296   0.364  0.00  0.00    +0.113 C 
ATOM      8  C   UNL     1      -1.817  -0.710  -0.325  0.00  0.00    +0.164 C 
ATOM      9  C   UNL     1      -0.456  -0.051  -0.145  0.00  0.00    +0.165 C 
ATOM     10  C   UNL     1      -2.093   1.611  -0.068  0.00  0.00    +0.181 C 
ENDROOT
BRANCH   7   5
ATOM      5  N   UNL     1      -4.119   0.183  -0.020  0.00  0.00    -0.301 NA
ATOM     12  C   UNL     1      -4.661  -1.123   0.366  0.00  0.00    +0.105 C 
ATOM     13  C   UNL     1      -4.914   1.256   0.584  0.00  0.00    +0.105 C 
ENDBRANCH   7   5
BRANCH   8   2
ATOM      2  O   UNL     1      -1.868  -1.990   0.275  0.00  0.00    -0.388 OA
ATOM     17  H   UNL     1      -1.650  -1.894   1.217  0.00  0.00    +0.210 HD
ENDBRANCH   8   2
BRANCH   9  11
ATOM     11  C   UNL     1       0.557  -0.472  -1.195  0.00  0.00    +0.138 C 
BRANCH  11   6
ATOM      3  O   UNL     1       2.769  -1.430   0.405  0.00  0.00    -0.273 OA
ATOM      6  N   UNL     1       1.821   0.175  -0.989  0.00  0.00    -0.311 N 
ATOM     14  C   UNL     1       2.833  -0.362  -0.198  0.00  0.00    +0.239 C 
ATOM     18  H   UNL     1       1.972   1.074  -1.437  0.00  0.00    +0.149 HD
BRANCH  14  15
ATOM     15  C   UNL     1       4.056   0.529  -0.158  0.00  0.00    +0.255 C 
BRANCH  15   4
ATOM      4  O   UNL     1       5.067  -0.048   0.640  0.00  0.00    -0.374 OA
ATOM     16  C   UNL     1       6.232   0.770   0.697  0.00  0.00    +0.194 C 
ENDBRANCH  15   4
ENDBRANCH  14  15
ENDBRANCH  11   6
ENDBRANCH   9  11
TORSDOF 6
