REMARK  Name = 38029438
REMARK  10 active torsions:
REMARK  status: ('A' for Active; 'I' for Inactive)
REMARK    1  A    between atoms: S_1  and  N_5
REMARK    2  A    between atoms: S_1  and  C_21
REMARK    3  A    between atoms: N_5  and  C_15
REMARK    4  A    between atoms: C_8  and  C_12
REMARK    5  A    between atoms: C_9  and  C_15
REMARK    6  A    between atoms: C_11  and  C_16
REMARK    7  A    between atoms: C_12  and  C_17
REMARK    8  A    between atoms: C_12  and  C_18
REMARK    9  A    between atoms: C_13  and  C_19
REMARK   10  A    between atoms: C_16  and  C_20
REMARK                            x       y       z     vdW  Elec       q    Type
REMARK                         _______ _______ _______ _____ _____    ______ ____
ROOT
ATOM      8  C   UNL     1       1.214   1.116  -1.136  0.00  0.00    +0.000 C 
ATOM      9  C   UNL     1       2.677   1.548  -0.869  0.00  0.00    +0.030 C 
ATOM     10  C   UNL     1       0.278   2.334  -1.084  0.00  0.00    +0.012 C 
ATOM     11  C   UNL     1       0.334   3.054   0.276  0.00  0.00    +0.023 C 
ATOM     13  C   UNL     1       1.760   3.277   0.737  0.00  0.00    -0.073 C 
ATOM     14  C   UNL     1       2.796   2.604   0.204  0.00  0.00    -0.023 C 
ATOM     19  C   UNL     1       1.974   4.325   1.794  0.00  0.00    +0.039 C 
ENDROOT
BRANCH   8  12
ATOM     12  C   UNL     1       1.067   0.406  -2.486  0.00  0.00    -0.013 C 
ATOM     17  C   UNL     1       1.461   1.342  -3.624  0.00  0.00    +0.007 C 
ATOM     18  C   UNL     1      -0.360  -0.098  -2.669  0.00  0.00    +0.007 C 
ENDBRANCH   8  12
BRANCH   9  15
ATOM     15  C   UNL     1       3.550   0.343  -0.498  0.00  0.00    +0.113 C 
BRANCH  15   5
ATOM      5  N   UNL     1       3.139  -0.216   0.751  0.00  0.00    -0.189 NA
ATOM     32  H   UNL     1       3.106   0.413   1.563  0.00  0.00    +0.148 HD
BRANCH   5   1
ATOM      1  S   UNL     1       3.316  -1.899   1.084  0.00  0.00    +0.058 S 
ATOM      3  O   UNL     1       3.357  -2.083   2.523  0.00  0.00    -0.153 OA
ATOM      4  O   UNL     1       4.352  -2.473   0.246  0.00  0.00    -0.153 OA
BRANCH   1  21
ATOM     21  C   UNL     1       1.771  -2.529   0.498  0.00  0.00    +0.105 A 
ATOM     23  C   UNL     1       1.645  -2.943  -0.828  0.00  0.00    +0.028 A 
ATOM     24  C   UNL     1       0.679  -2.611   1.362  0.00  0.00    +0.028 A 
ATOM     26  C   UNL     1       0.426  -3.438  -1.290  0.00  0.00    +0.002 A 
ATOM     27  C   UNL     1      -0.540  -3.107   0.899  0.00  0.00    +0.002 A 
ATOM     28  C   UNL     1      -0.667  -3.520  -0.427  0.00  0.00    +0.000 A 
ENDBRANCH   1  21
ENDBRANCH   5   1
ENDBRANCH  15   5
ENDBRANCH   9  15
BRANCH  11  16
ATOM     16  C   UNL     1      -0.473   2.297   1.336  0.00  0.00    +0.104 C 
BRANCH  16  20
ATOM      2  O   UNL     1      -2.683   2.947   0.630  0.00  0.00    -0.275 OA
ATOM      6  N   UNL     1      -2.147   0.671   0.848  0.00  0.00    -0.270 N 
ATOM      7  N   UNL     1      -3.387  -1.329   0.504  0.00  0.00    -0.240 NA
ATOM     20  C   UNL     1      -1.901   2.040   0.895  0.00  0.00    +0.219 C 
ATOM     22  C   UNL     1      -3.351   0.022   0.486  0.00  0.00    +0.125 A 
ATOM     25  C   UNL     1      -4.426   0.822   0.131  0.00  0.00    +0.044 A 
ATOM     29  C   UNL     1      -5.614   0.194  -0.226  0.00  0.00    +0.005 A 
ATOM     30  C   UNL     1      -4.558  -1.904   0.151  0.00  0.00    +0.113 A 
ATOM     31  C   UNL     1      -5.689  -1.194  -0.219  0.00  0.00    +0.020 A 
ATOM     33  H   UNL     1      -1.397   0.028   1.091  0.00  0.00    +0.156 HD
ENDBRANCH  16  20
ENDBRANCH  11  16
TORSDOF 7
