REMARK  Name = 11887584
REMARK  13 active torsions:
REMARK  status: ('A' for Active; 'I' for Inactive)
REMARK    1  A    between atoms: O_4  and  C_20
REMARK    2  A    between atoms: O_4  and  C_29
REMARK    3  A    between atoms: O_5  and  C_22
REMARK    4  A    between atoms: O_5  and  C_33
REMARK    5  A    between atoms: O_7  and  C_32
REMARK    6  A    between atoms: O_7  and  C_37
REMARK    7  A    between atoms: N_10  and  C_19
REMARK    8  A    between atoms: N_11  and  C_24
REMARK    9  A    between atoms: C_12  and  C_16
REMARK   10  A    between atoms: C_17  and  C_20
REMARK   11  A    between atoms: C_19  and  C_21
REMARK   12  A    between atoms: C_19  and  C_22
REMARK   13  A    between atoms: C_21  and  C_23
REMARK                            x       y       z     vdW  Elec       q    Type
REMARK                         _______ _______ _______ _____ _____    ______ ____
ROOT
ATOM      2  O   UNL     1       4.698   0.564   1.136  0.00  0.00    -0.273 OA
ATOM      3  O   UNL     1      -0.324  -4.215  -1.232  0.00  0.00    -0.252 OA
ATOM      8  N   UNL     1       3.436  -1.245   0.397  0.00  0.00    -0.285 N 
ATOM      9  N   UNL     1       0.890  -2.594  -0.114  0.00  0.00    -0.282 N 
ATOM     11  N   UNL     1      -1.381  -2.948   0.410  0.00  0.00    -0.269 N 
ATOM     12  C   UNL     1       2.167  -0.558   0.637  0.00  0.00    +0.179 C 
ATOM     13  C   UNL     1       0.990  -1.506   0.871  0.00  0.00    +0.141 C 
ATOM     14  C   UNL     1       3.367  -2.631  -0.081  0.00  0.00    +0.127 C 
ATOM     15  C   UNL     1       2.098  -2.918  -0.870  0.00  0.00    +0.128 C 
ATOM     17  C   UNL     1       4.631  -0.600   0.734  0.00  0.00    +0.242 C 
ATOM     18  C   UNL     1      -0.294  -3.322  -0.382  0.00  0.00    +0.307 C 
ATOM     39  H   UNL     1      -1.183  -2.546   1.321  0.00  0.00    +0.156 HD
ENDROOT
BRANCH  11  24
ATOM     24  C   UNL     1      -2.756  -2.998   0.070  0.00  0.00    +0.035 A 
ATOM     27  C   UNL     1      -3.718  -2.582   0.991  0.00  0.00    +0.023 A 
ATOM     28  C   UNL     1      -3.148  -3.462  -1.185  0.00  0.00    +0.023 A 
ATOM     34  C   UNL     1      -5.071  -2.629   0.656  0.00  0.00    +0.002 A 
ATOM     35  C   UNL     1      -4.501  -3.510  -1.521  0.00  0.00    +0.002 A 
ATOM     36  C   UNL     1      -5.463  -3.093  -0.600  0.00  0.00    +0.000 A 
ENDBRANCH  11  24
BRANCH  12  16
ATOM      1  O   UNL     1       2.271   0.051  -1.671  0.00  0.00    -0.274 OA
ATOM     10  N   UNL     1       1.243   1.502  -0.169  0.00  0.00    -0.301 N 
ATOM     16  C   UNL     1       1.904   0.342  -0.536  0.00  0.00    +0.236 C 
ATOM     38  H   UNL     1       0.967   1.631   0.800  0.00  0.00    +0.150 HD
BRANCH  10  19
ATOM     19  C   UNL     1       0.893   2.543  -1.108  0.00  0.00    +0.186 C 
BRANCH  19  22
ATOM      6  O   UNL     1       1.224   4.115   0.697  0.00  0.00    -0.249 OA
ATOM     22  C   UNL     1       0.982   3.933  -0.492  0.00  0.00    +0.328 C 
BRANCH  22   5
ATOM      5  O   UNL     1       0.744   4.916  -1.405  0.00  0.00    -0.467 OA
ATOM     33  C   UNL     1       0.790   6.255  -0.902  0.00  0.00    +0.280 C 
ENDBRANCH  22   5
ENDBRANCH  19  22
BRANCH  19  21
ATOM     21  C   UNL     1      -0.480   2.282  -1.745  0.00  0.00    +0.069 C 
BRANCH  21  23
ATOM     23  C   UNL     1      -1.641   2.306  -0.776  0.00  0.00    -0.045 A 
ATOM     25  C   UNL     1      -2.312   3.502  -0.522  0.00  0.00    +0.007 A 
ATOM     26  C   UNL     1      -2.040   1.133  -0.137  0.00  0.00    +0.007 A 
ATOM     30  C   UNL     1      -3.382   3.525   0.372  0.00  0.00    +0.046 A 
ATOM     31  C   UNL     1      -3.111   1.155   0.757  0.00  0.00    +0.046 A 
ATOM     32  C   UNL     1      -3.782   2.352   1.012  0.00  0.00    +0.120 A 
BRANCH  32   7
ATOM      7  O   UNL     1      -4.826   2.374   1.884  0.00  0.00    -0.495 OA
ATOM     37  C   UNL     1      -5.181   1.138   2.503  0.00  0.00    +0.277 C 
ENDBRANCH  32   7
ENDBRANCH  21  23
ENDBRANCH  19  21
ENDBRANCH  10  19
ENDBRANCH  12  16
BRANCH  17  20
ATOM     20  C   UNL     1       5.896  -1.407   0.573  0.00  0.00    +0.255 C 
BRANCH  20   4
ATOM      4  O   UNL     1       6.961  -0.560   0.929  0.00  0.00    -0.374 OA
ATOM     29  C   UNL     1       8.225  -1.211   0.818  0.00  0.00    +0.194 C 
ENDBRANCH  20   4
ENDBRANCH  17  20
TORSDOF 10
