REMARK  Name = 75537056
REMARK  5 active torsions:
REMARK  status: ('A' for Active; 'I' for Inactive)
REMARK    1  A    between atoms: S_1  and  C_25
REMARK    2  A    between atoms: S_1  and  C_27
REMARK    3  A    between atoms: N_6  and  C_14
REMARK    4  A    between atoms: N_7  and  C_15
REMARK    5  A    between atoms: C_14  and  C_16
REMARK                            x       y       z     vdW  Elec       q    Type
REMARK                         _______ _______ _______ _____ _____    ______ ____
ROOT
ATOM      2  O   UNL     1      -4.285  -2.119  -0.604  0.00  0.00    -0.252 OA
ATOM      5  N   UNL     1      -2.019  -1.595  -0.449  0.00  0.00    -0.278 N 
ATOM      6  N   UNL     1       0.703  -1.876   0.206  0.00  0.00    -0.295 NA
ATOM      7  N   UNL     1      -3.496   0.097  -0.158  0.00  0.00    -0.254 N 
ATOM      8  C   UNL     1      -1.197  -0.415  -0.352  0.00  0.00    +0.109 C 
ATOM      9  C   UNL     1      -0.025  -0.653   0.600  0.00  0.00    +0.109 C 
ATOM     10  C   UNL     1      -2.176   0.665   0.091  0.00  0.00    +0.139 C 
ATOM     11  C   UNL     1      -1.389  -2.879  -0.684  0.00  0.00    +0.125 C 
ATOM     12  C   UNL     1      -0.188  -3.053   0.248  0.00  0.00    +0.104 C 
ATOM     13  C   UNL     1      -3.392  -1.300  -0.431  0.00  0.00    +0.309 C 
ENDROOT
BRANCH   7  15
ATOM     15  C   UNL     1      -4.692   0.863  -0.045  0.00  0.00    +0.038 A 
ATOM     17  C   UNL     1      -5.932   0.247  -0.208  0.00  0.00    +0.023 A 
ATOM     18  C   UNL     1      -4.622   2.229   0.228  0.00  0.00    +0.023 A 
ATOM     23  C   UNL     1      -7.104   0.996  -0.098  0.00  0.00    +0.002 A 
ATOM     24  C   UNL     1      -5.793   2.979   0.338  0.00  0.00    +0.002 A 
ATOM     26  C   UNL     1      -7.034   2.362   0.175  0.00  0.00    +0.000 A 
ENDBRANCH   7  15
BRANCH   6  14
ATOM     14  C   UNL     1       1.861  -2.082   1.075  0.00  0.00    +0.119 C 
BRANCH  14  16
ATOM     16  C   UNL     1       3.002  -1.169   0.712  0.00  0.00    -0.033 A 
ATOM     19  C   UNL     1       3.787  -1.444  -0.408  0.00  0.00    +0.007 A 
ATOM     20  C   UNL     1       3.275  -0.048   1.496  0.00  0.00    +0.007 A 
ATOM     21  C   UNL     1       4.844  -0.599  -0.744  0.00  0.00    +0.027 A 
ATOM     22  C   UNL     1       4.333   0.797   1.161  0.00  0.00    +0.027 A 
ATOM     25  C   UNL     1       5.117   0.522   0.041  0.00  0.00    +0.088 A 
BRANCH  25   1
ATOM      1  S   UNL     1       6.439   1.582  -0.382  0.00  0.00    -0.006 S 
ATOM      3  O   UNL     1       6.876   2.291   0.813  0.00  0.00    -0.170 OA
ATOM      4  O   UNL     1       7.400   0.812  -1.158  0.00  0.00    -0.170 OA
ATOM     27  C   UNL     1       5.708   2.791  -1.462  0.00  0.00    +0.200 C 
ENDBRANCH  25   1
ENDBRANCH  14  16
ENDBRANCH   6  14
TORSDOF 4
