REMARK  Name = 11912477
REMARK  8 active torsions:
REMARK  status: ('A' for Active; 'I' for Inactive)
REMARK    1  A    between atoms: N_7  and  C_19
REMARK    2  A    between atoms: N_8  and  C_20
REMARK    3  A    between atoms: C_9  and  C_15
REMARK    4  A    between atoms: C_10  and  C_14
REMARK    5  A    between atoms: C_14  and  C_16
REMARK    6  A    between atoms: C_15  and  C_18
REMARK    7  A    between atoms: C_19  and  C_21
REMARK    8  A    between atoms: C_24  and  C_29
REMARK                            x       y       z     vdW  Elec       q    Type
REMARK                         _______ _______ _______ _____ _____    ______ ____
ROOT
ATOM      4  O   UNL     1       2.675   3.488  -0.324  0.00  0.00    -0.252 OA
ATOM      6  N   UNL     1       0.707   2.791   0.668  0.00  0.00    -0.285 N 
ATOM      8  N   UNL     1       2.606   1.391   0.666  0.00  0.00    -0.269 N 
ATOM      9  C   UNL     1      -2.147   2.697   0.197  0.00  0.00    +0.004 C 
ATOM     10  C   UNL     1      -1.364   1.428   0.627  0.00  0.00    +0.010 C 
ATOM     11  C   UNL     1      -1.239   3.716  -0.515  0.00  0.00    +0.023 C 
ATOM     12  C   UNL     1      -0.118   1.840   1.429  0.00  0.00    +0.113 C 
ATOM     13  C   UNL     1       0.010   4.027   0.309  0.00  0.00    +0.109 C 
ATOM     17  C   UNL     1       2.058   2.619   0.298  0.00  0.00    +0.306 C 
ATOM     34  H   UNL     1       2.243   0.928   1.491  0.00  0.00    +0.156 HD
ENDROOT
BRANCH   8  20
ATOM     20  C   UNL     1       3.632   0.674   0.003  0.00  0.00    +0.035 A 
ATOM     22  C   UNL     1       4.067  -0.551   0.509  0.00  0.00    +0.035 A 
ATOM     23  C   UNL     1       4.209   1.194  -1.156  0.00  0.00    +0.023 A 
ATOM     24  C   UNL     1       5.077  -1.257  -0.145  0.00  0.00    +0.057 A 
ATOM     27  C   UNL     1       5.219   0.488  -1.809  0.00  0.00    +0.002 A 
ATOM     28  C   UNL     1       5.654  -0.737  -1.304  0.00  0.00    +0.012 A 
BRANCH  24  29
ATOM      1  F   UNL     1       6.043  -2.489   1.664  0.00  0.00    -0.166 F 
ATOM      2  F   UNL     1       6.534  -3.144  -0.345  0.00  0.00    -0.166 F 
ATOM      3  F   UNL     1       4.542  -3.495   0.454  0.00  0.00    -0.166 F 
ATOM     29  C   UNL     1       5.541  -2.567   0.396  0.00  0.00    +0.417 C 
ENDBRANCH  24  29
ENDBRANCH   8  20
BRANCH  10  14
ATOM     14  C   UNL     1      -0.973   0.511  -0.538  0.00  0.00    +0.002 C 
ATOM     16  C   UNL     1      -0.297  -0.749  -0.040  0.00  0.00    +0.004 C 
ENDBRANCH  10  14
BRANCH   9  15
ATOM     15  C   UNL     1      -3.377   2.384  -0.654  0.00  0.00    +0.099 C 
BRANCH  15  18
ATOM      5  O   UNL     1      -4.460   1.399   1.272  0.00  0.00    -0.276 OA
ATOM      7  N   UNL     1      -5.048   0.682  -0.860  0.00  0.00    -0.311 N 
ATOM     18  C   UNL     1      -4.339   1.452   0.051  0.00  0.00    +0.214 C 
ATOM     33  H   UNL     1      -4.870   0.792  -1.854  0.00  0.00    +0.149 HD
BRANCH   7  19
ATOM     19  C   UNL     1      -6.035  -0.297  -0.466  0.00  0.00    +0.139 C 
BRANCH  19  21
ATOM     21  C   UNL     1      -5.428  -1.655  -0.258  0.00  0.00    -0.030 A 
ATOM     25  C   UNL     1      -5.344  -2.552  -1.322  0.00  0.00    +0.005 A 
ATOM     26  C   UNL     1      -4.947  -2.018   1.000  0.00  0.00    +0.005 A 
ATOM     30  C   UNL     1      -4.780  -3.813  -1.129  0.00  0.00    +0.000 A 
ATOM     31  C   UNL     1      -4.383  -3.279   1.194  0.00  0.00    +0.000 A 
ATOM     32  C   UNL     1      -4.299  -4.177   0.129  0.00  0.00    +0.000 A 
ENDBRANCH  19  21
ENDBRANCH   7  19
ENDBRANCH  15  18
ENDBRANCH   9  15
TORSDOF 7
