REMARK  Name = 71693927
REMARK  7 active torsions:
REMARK  status: ('A' for Active; 'I' for Inactive)
REMARK    1  A    between atoms: O_4  and  C_10
REMARK    2  A    between atoms: O_5  and  C_12
REMARK    3  A    between atoms: N_7  and  C_9
REMARK    4  A    between atoms: C_8  and  C_13
REMARK    5  A    between atoms: C_14  and  C_18
REMARK    6  A    between atoms: C_16  and  C_21
REMARK    7  A    between atoms: C_26  and  C_27
REMARK                            x       y       z     vdW  Elec       q    Type
REMARK                         _______ _______ _______ _____ _____    ______ ____
ROOT
ATOM      8  C   UNL     1       2.681   0.451   0.907  0.00  0.00    +0.045 C 
ATOM      9  C   UNL     1       1.869   1.312  -0.086  0.00  0.00    +0.112 C 
ATOM     10  C   UNL     1       2.269   2.743   0.273  0.00  0.00    +0.164 C 
ATOM     11  C   UNL     1       3.886   1.327   1.338  0.00  0.00    +0.044 C 
ATOM     12  C   UNL     1       3.764   2.626   0.543  0.00  0.00    +0.145 C 
ENDROOT
BRANCH   8  13
ATOM     13  C   UNL     1       3.063  -0.901   0.344  0.00  0.00    -0.039 A 
ATOM     14  C   UNL     1       2.646  -2.080   0.962  0.00  0.00    -0.047 A 
ATOM     15  C   UNL     1       3.843  -0.958  -0.812  0.00  0.00    +0.004 A 
ATOM     17  C   UNL     1       3.009  -3.315   0.425  0.00  0.00    +0.003 A 
ATOM     18  C   UNL     1       1.811  -2.045   2.199  0.00  0.00    +0.044 C 
ATOM     19  C   UNL     1       4.206  -2.193  -1.349  0.00  0.00    +0.000 A 
ATOM     20  C   UNL     1       3.788  -3.372  -0.730  0.00  0.00    +0.000 A 
ENDBRANCH   8  13
BRANCH   9   7
ATOM      6  O   UNL     1       0.260  -0.541  -1.577  0.00  0.00    -0.270 OA
ATOM      7  N   UNL     1       0.450   1.101   0.051  0.00  0.00    -0.305 N 
ATOM     16  C   UNL     1      -0.246   0.177  -0.718  0.00  0.00    +0.244 C 
ATOM     28  H   UNL     1      -0.038   1.678   0.727  0.00  0.00    +0.149 HD
BRANCH  16  21
ATOM     21  C   UNL     1      -1.709   0.097  -0.475  0.00  0.00    +0.037 A 
ATOM     22  C   UNL     1      -2.564  -0.325  -1.493  0.00  0.00    +0.013 A 
ATOM     23  C   UNL     1      -2.228   0.445   0.772  0.00  0.00    +0.013 A 
ATOM     24  C   UNL     1      -3.938  -0.399  -1.265  0.00  0.00    +0.013 A 
ATOM     25  C   UNL     1      -3.603   0.371   1.001  0.00  0.00    +0.013 A 
ATOM     26  C   UNL     1      -4.457  -0.051  -0.018  0.00  0.00    +0.055 A 
BRANCH  26  27
ATOM      1  F   UNL     1      -6.489   1.066   0.569  0.00  0.00    -0.166 F 
ATOM      2  F   UNL     1      -6.268  -0.986   1.234  0.00  0.00    -0.166 F 
ATOM      3  F   UNL     1      -6.618  -0.560  -0.869  0.00  0.00    -0.166 F 
ATOM     27  C   UNL     1      -5.926  -0.130   0.226  0.00  0.00    +0.417 C 
ENDBRANCH  26  27
ENDBRANCH  16  21
ENDBRANCH   9   7
BRANCH  10   4
ATOM      4  O   UNL     1       2.009   3.652  -0.779  0.00  0.00    -0.387 OA
ATOM     29  H   UNL     1       2.374   4.515  -0.516  0.00  0.00    +0.210 HD
ENDBRANCH  10   4
BRANCH  12   5
ATOM      5  O   UNL     1       4.493   2.487  -0.672  0.00  0.00    -0.389 OA
ATOM     30  H   UNL     1       5.431   2.377  -0.440  0.00  0.00    +0.210 HD
ENDBRANCH  12   5
TORSDOF 6
