REMARK  Name = 51137045
REMARK  3 active torsions:
REMARK  status: ('A' for Active; 'I' for Inactive)
REMARK    1  A    between atoms: N_3  and  C_6
REMARK    2  A    between atoms: N_4  and  C_16
REMARK    3  A    between atoms: C_7  and  C_15
REMARK                            x       y       z     vdW  Elec       q    Type
REMARK                         _______ _______ _______ _____ _____    ______ ____
ROOT
ATOM      3  N   UNL     1      -2.134  -0.947  -0.015  0.00  0.00    -0.299 NA
ATOM      7  C   UNL     1       0.146  -1.364  -0.370  0.00  0.00    +0.090 C 
ATOM      8  C   UNL     1      -0.949  -0.311  -0.593  0.00  0.00    +0.097 C 
ATOM      9  C   UNL     1      -1.669  -1.549   1.234  0.00  0.00    +0.085 C 
ATOM     10  C   UNL     1      -0.348  -2.191   0.830  0.00  0.00    +0.029 C 
ENDROOT
BRANCH   7  15
ATOM      1 CL   UNL     1       6.763   2.061   1.093  0.00  0.00    -0.083 Cl
ATOM      2  O   UNL     1       2.454  -1.137  -1.118  0.00  0.00    -0.439 OA
ATOM      5  N   UNL     1       1.933   0.089   0.715  0.00  0.00    -0.213 NA
ATOM     15  C   UNL     1       1.520  -0.758  -0.202  0.00  0.00    +0.201 A 
ATOM     17  C   UNL     1       3.251   0.294   0.385  0.00  0.00    +0.111 A 
ATOM     18  C   UNL     1       3.574  -0.455  -0.737  0.00  0.00    +0.155 A 
ATOM     19  C   UNL     1       4.242   1.092   0.975  0.00  0.00    +0.051 A 
ATOM     20  C   UNL     1       4.826  -0.481  -1.339  0.00  0.00    +0.050 A 
ATOM     21  C   UNL     1       5.520   1.091   0.396  0.00  0.00    +0.043 A 
ATOM     22  C   UNL     1       5.803   0.320  -0.738  0.00  0.00    +0.024 A 
ENDBRANCH   7  15
BRANCH   3   6
ATOM      4  N   UNL     1      -5.989   0.817  -0.318  0.00  0.00    -0.305 NA
ATOM      6  C   UNL     1      -3.227  -0.000   0.197  0.00  0.00    +0.059 C 
ATOM     11  C   UNL     1      -3.655   0.647  -1.124  0.00  0.00    +0.034 C 
ATOM     12  C   UNL     1      -4.422  -0.706   0.844  0.00  0.00    +0.034 C 
ATOM     13  C   UNL     1      -4.871   1.555  -0.920  0.00  0.00    +0.085 C 
ATOM     14  C   UNL     1      -5.612   0.246   0.983  0.00  0.00    +0.085 C 
ATOM     16  C   UNL     1      -7.158   1.685  -0.177  0.00  0.00    +0.104 C 
ENDBRANCH   3   6
TORSDOF 2
