REMARK  Name = 26762299
REMARK  10 active torsions:
REMARK  status: ('A' for Active; 'I' for Inactive)
REMARK    1  A    between atoms: N_6  and  C_11
REMARK    2  A    between atoms: N_7  and  C_23
REMARK    3  A    between atoms: N_8  and  C_26
REMARK    4  A    between atoms: N_8  and  C_30
REMARK    5  A    between atoms: N_8  and  C_31
REMARK    6  A    between atoms: C_10  and  C_16
REMARK    7  A    between atoms: C_16  and  C_17
REMARK    8  A    between atoms: C_17  and  C_19
REMARK    9  A    between atoms: C_18  and  C_20
REMARK   10  A    between atoms: C_23  and  C_27
REMARK                            x       y       z     vdW  Elec       q    Type
REMARK                         _______ _______ _______ _____ _____    ______ ____
ROOT
ATOM      1  O   UNL     1       1.455  -5.187   0.886  0.00  0.00    -0.274 OA
ATOM      4  N   UNL     1       0.048  -2.094  -0.094  0.00  0.00    -0.285 NA
ATOM      5  N   UNL     1      -0.521  -4.215   1.535  0.00  0.00    -0.313 N 
ATOM      9  C   UNL     1       0.597  -3.400  -0.472  0.00  0.00    +0.145 C 
ATOM     10  C   UNL     1      -1.369  -2.226   0.253  0.00  0.00    +0.075 C 
ATOM     11  C   UNL     1       1.792  -1.625  -1.579  0.00  0.00    +0.089 C 
ATOM     12  C   UNL     1       1.974  -3.036  -1.006  0.00  0.00    +0.052 C 
ATOM     13  C   UNL     1       0.355  -1.227  -1.231  0.00  0.00    +0.107 C 
ATOM     14  C   UNL     1      -1.435  -3.083   1.525  0.00  0.00    +0.123 C 
ATOM     15  C   UNL     1       0.590  -4.328   0.721  0.00  0.00    +0.230 C 
ATOM     35  H   UNL     1      -0.602  -4.871   2.307  0.00  0.00    +0.149 HD
ENDROOT
BRANCH  11   6
ATOM      2  O   UNL     1       4.383  -0.996  -2.647  0.00  0.00    -0.270 OA
ATOM      6  N   UNL     1       2.755  -0.708  -1.020  0.00  0.00    -0.307 N 
ATOM     18  C   UNL     1       3.987  -0.468  -1.611  0.00  0.00    +0.244 C 
ATOM     36  H   UNL     1       2.541  -0.320  -0.107  0.00  0.00    +0.149 HD
BRANCH  18  20
ATOM     20  C   UNL     1       4.876   0.484  -0.896  0.00  0.00    +0.037 A 
ATOM     21  C   UNL     1       6.260   0.386  -1.038  0.00  0.00    +0.015 A 
ATOM     22  C   UNL     1       4.326   1.476  -0.084  0.00  0.00    +0.015 A 
ATOM     24  C   UNL     1       7.095   1.280  -0.366  0.00  0.00    +0.024 A 
ATOM     25  C   UNL     1       5.161   2.369   0.588  0.00  0.00    +0.024 A 
ATOM     26  C   UNL     1       6.545   2.271   0.447  0.00  0.00    +0.029 A 
BRANCH  26   8
ATOM      8  N   UNL     1       7.388   3.175   1.125  0.00  0.00    -0.336 N 
ATOM     30  C   UNL     1       6.825   4.214   1.966  0.00  0.00    +0.129 C 
ATOM     31  C   UNL     1       8.828   3.083   0.986  0.00  0.00    +0.129 C 
ENDBRANCH  26   8
ENDBRANCH  18  20
ENDBRANCH  11   6
BRANCH  10  16
ATOM     16  C   UNL     1      -2.052  -0.880   0.506  0.00  0.00    +0.029 C 
BRANCH  16  17
ATOM     17  C   UNL     1      -3.524  -1.067   0.845  0.00  0.00    +0.097 C 
BRANCH  17  19
ATOM      3  O   UNL     1      -3.662   1.345   1.006  0.00  0.00    -0.276 OA
ATOM      7  N   UNL     1      -5.568   0.077   1.391  0.00  0.00    -0.311 N 
ATOM     19  C   UNL     1      -4.227   0.258   1.082  0.00  0.00    +0.213 C 
ATOM     37  H   UNL     1      -5.955  -0.863   1.413  0.00  0.00    +0.149 HD
BRANCH   7  23
ATOM     23  C   UNL     1      -6.453   1.185   1.661  0.00  0.00    +0.139 C 
BRANCH  23  27
ATOM     27  C   UNL     1      -7.119   1.689   0.413  0.00  0.00    -0.030 A 
ATOM     28  C   UNL     1      -6.516   2.694  -0.343  0.00  0.00    +0.005 A 
ATOM     29  C   UNL     1      -8.341   1.151   0.009  0.00  0.00    +0.005 A 
ATOM     32  C   UNL     1      -7.135   3.162  -1.502  0.00  0.00    +0.000 A 
ATOM     33  C   UNL     1      -8.960   1.618  -1.150  0.00  0.00    +0.000 A 
ATOM     34  C   UNL     1      -8.357   2.624  -1.905  0.00  0.00    +0.000 A 
ENDBRANCH  23  27
ENDBRANCH   7  23
ENDBRANCH  17  19
ENDBRANCH  16  17
ENDBRANCH  10  16
TORSDOF 8
