REMARK  Name = 26743814
REMARK  6 active torsions:
REMARK  status: ('A' for Active; 'I' for Inactive)
REMARK    1  A    between atoms: O_2  and  C_14
REMARK    2  A    between atoms: N_4  and  C_10
REMARK    3  A    between atoms: C_7  and  C_10
REMARK    4  A    between atoms: C_11  and  C_15
REMARK    5  A    between atoms: C_16  and  C_17
REMARK    6  A    between atoms: C_22  and  C_23
REMARK                            x       y       z     vdW  Elec       q    Type
REMARK                         _______ _______ _______ _____ _____    ______ ____
ROOT
ATOM      3  O   UNL     1      -0.638   1.972  -1.629  0.00  0.00    -0.336 OA
ATOM      5  N   UNL     1      -0.089   0.482  -0.050  0.00  0.00    -0.190 NA
ATOM      6  N   UNL     1       0.760   1.895  -1.636  0.00  0.00    -0.056 NA
ATOM     15  C   UNL     1      -1.058   1.110  -0.667  0.00  0.00    +0.245 A 
ATOM     16  C   UNL     1       1.007   0.997  -0.678  0.00  0.00    +0.202 A 
ENDROOT
BRANCH  16  17
ATOM      1  F   UNL     1       4.007  -1.649   2.001  0.00  0.00    -0.205 F 
ATOM     17  C   UNL     1       2.337   0.592  -0.324  0.00  0.00    +0.025 A 
ATOM     18  C   UNL     1       2.534  -0.350   0.686  0.00  0.00    +0.050 A 
ATOM     19  C   UNL     1       3.433   1.141  -0.989  0.00  0.00    +0.012 A 
ATOM     20  C   UNL     1       3.828  -0.743   1.029  0.00  0.00    +0.127 A 
ATOM     21  C   UNL     1       4.726   0.748  -0.645  0.00  0.00    +0.007 A 
ATOM     22  C   UNL     1       4.924  -0.194   0.364  0.00  0.00    -0.015 A 
ATOM     23  C   UNL     1       6.308  -0.613   0.730  0.00  0.00    +0.047 C 
ENDBRANCH  16  17
BRANCH  15  11
ATOM      4  N   UNL     1      -2.966  -0.311   0.067  0.00  0.00    -0.289 NA
ATOM     11  C   UNL     1      -2.555   1.006  -0.460  0.00  0.00    +0.148 C 
ATOM     12  C   UNL     1      -4.174  -0.082   0.858  0.00  0.00    +0.116 C 
ATOM     13  C   UNL     1      -3.086   2.024   0.566  0.00  0.00    +0.061 C 
ATOM     14  C   UNL     1      -3.820   1.189   1.608  0.00  0.00    +0.130 C 
BRANCH  14   2
ATOM      2  O   UNL     1      -4.973   1.864   2.071  0.00  0.00    -0.390 OA
ATOM     24  H   UNL     1      -4.680   2.700   2.471  0.00  0.00    +0.210 HD
ENDBRANCH  14   2
BRANCH   4  10
ATOM     10  C   UNL     1      -3.174  -1.308  -0.975  0.00  0.00    +0.088 C 
BRANCH  10   7
ATOM      7  C   UNL     1      -3.068  -2.695  -0.429  0.00  0.00    +0.003 C 
ATOM      8  C   UNL     1      -1.710  -3.284  -0.183  0.00  0.00    +0.005 C 
ATOM      9  C   UNL     1      -2.554  -3.792  -1.314  0.00  0.00    +0.005 C 
ENDBRANCH  10   7
ENDBRANCH   4  10
ENDBRANCH  15  11
TORSDOF 5
