REMARK  Name = 11941204
REMARK  10 active torsions:
REMARK  status: ('A' for Active; 'I' for Inactive)
REMARK    1  A    between atoms: S_1  and  N_7
REMARK    2  A    between atoms: S_1  and  C_18
REMARK    3  A    between atoms: O_6  and  C_24
REMARK    4  A    between atoms: O_6  and  C_31
REMARK    5  A    between atoms: N_8  and  C_21
REMARK    6  A    between atoms: C_9  and  C_14
REMARK    7  A    between atoms: C_10  and  C_15
REMARK    8  A    between atoms: C_14  and  C_16
REMARK    9  A    between atoms: C_15  and  C_17
REMARK   10  A    between atoms: C_21  and  C_25
REMARK                            x       y       z     vdW  Elec       q    Type
REMARK                         _______ _______ _______ _____ _____    ______ ____
ROOT
ATOM      7  N   UNL     1       1.863   1.573   0.469  0.00  0.00    -0.176 NA
ATOM      9  C   UNL     1      -0.368   0.483   0.366  0.00  0.00    +0.008 C 
ATOM     10  C   UNL     1      -0.152  -0.046   1.805  0.00  0.00    +0.003 C 
ATOM     11  C   UNL     1       0.831   0.840   2.587  0.00  0.00    +0.021 C 
ATOM     12  C   UNL     1       0.989   0.666  -0.333  0.00  0.00    +0.113 C 
ATOM     13  C   UNL     1       2.141   1.025   1.828  0.00  0.00    +0.110 C 
ENDROOT
BRANCH   7   1
ATOM      1  S   UNL     1       3.226   2.199  -0.361  0.00  0.00    +0.061 S 
ATOM      3  O   UNL     1       3.893   3.161   0.488  0.00  0.00    -0.153 OA
ATOM      4  O   UNL     1       2.836   2.538  -1.712  0.00  0.00    -0.153 OA
BRANCH   1  18
ATOM     18  C   UNL     1       4.233   0.751  -0.432  0.00  0.00    +0.106 A 
ATOM     19  C   UNL     1       4.125  -0.121  -1.516  0.00  0.00    +0.032 A 
ATOM     20  C   UNL     1       5.138   0.479   0.594  0.00  0.00    +0.032 A 
ATOM     22  C   UNL     1       4.922  -1.264  -1.574  0.00  0.00    +0.047 A 
ATOM     23  C   UNL     1       5.934  -0.665   0.537  0.00  0.00    +0.047 A 
ATOM     24  C   UNL     1       5.827  -1.536  -0.547  0.00  0.00    +0.120 A 
BRANCH  24   6
ATOM      6  O   UNL     1       6.603  -2.652  -0.603  0.00  0.00    -0.495 OA
ATOM     31  C   UNL     1       6.441  -3.501  -1.738  0.00  0.00    +0.277 C 
ENDBRANCH  24   6
ENDBRANCH   1  18
ENDBRANCH   7   1
BRANCH   9  14
ATOM     14  C   UNL     1      -1.191   1.775   0.292  0.00  0.00    +0.002 C 
ATOM     16  C   UNL     1      -1.453   2.173  -1.145  0.00  0.00    +0.004 C 
ENDBRANCH   9  14
BRANCH  10  15
ATOM     15  C   UNL     1      -1.455  -0.222   2.584  0.00  0.00    +0.099 C 
BRANCH  15  17
ATOM      5  O   UNL     1      -2.061  -2.075   1.152  0.00  0.00    -0.276 OA
ATOM      8  N   UNL     1      -3.735  -0.832   2.179  0.00  0.00    -0.311 N 
ATOM     17  C   UNL     1      -2.418  -1.156   1.884  0.00  0.00    +0.214 C 
ATOM     32  H   UNL     1      -3.931  -0.045   2.790  0.00  0.00    +0.149 HD
BRANCH   8  21
ATOM     21  C   UNL     1      -4.865  -1.556   1.645  0.00  0.00    +0.139 C 
BRANCH  21  25
ATOM      2  F   UNL     1      -6.638   0.611  -3.240  0.00  0.00    -0.205 F 
ATOM     25  C   UNL     1      -5.338  -0.978   0.342  0.00  0.00    -0.030 A 
ATOM     26  C   UNL     1      -6.309   0.023   0.335  0.00  0.00    +0.008 A 
ATOM     27  C   UNL     1      -4.806  -1.442  -0.861  0.00  0.00    +0.008 A 
ATOM     28  C   UNL     1      -6.748   0.560  -0.875  0.00  0.00    +0.038 A 
ATOM     29  C   UNL     1      -5.245  -0.906  -2.071  0.00  0.00    +0.038 A 
ATOM     30  C   UNL     1      -6.216   0.096  -2.078  0.00  0.00    +0.123 A 
ENDBRANCH  21  25
ENDBRANCH   8  21
ENDBRANCH  15  17
ENDBRANCH  10  15
TORSDOF 8
