REMARK  Name = 28959868
REMARK  9 active torsions:
REMARK  status: ('A' for Active; 'I' for Inactive)
REMARK    1  A    between atoms: O_2  and  C_21
REMARK    2  A    between atoms: N_6  and  C_15
REMARK    3  A    between atoms: C_8  and  C_12
REMARK    4  A    between atoms: C_9  and  C_14
REMARK    5  A    between atoms: C_12  and  C_15
REMARK    6  A    between atoms: C_14  and  C_21
REMARK    7  A    between atoms: C_18  and  C_22
REMARK    8  A    between atoms: C_22  and  C_24
REMARK    9  A    between atoms: C_23  and  C_25
REMARK                            x       y       z     vdW  Elec       q    Type
REMARK                         _______ _______ _______ _____ _____    ______ ____
ROOT
ATOM      1  O   UNL     1       3.960  -0.564   1.096  0.00  0.00    -0.275 OA
ATOM      5  N   UNL     1       2.418  -1.845  -0.078  0.00  0.00    -0.301 N 
ATOM      8  C   UNL     1       0.082  -2.476  -0.642  0.00  0.00    +0.011 C 
ATOM      9  C   UNL     1       0.249  -3.739   0.240  0.00  0.00    +0.006 C 
ATOM     10  C   UNL     1       1.454  -2.022  -1.172  0.00  0.00    +0.111 C 
ATOM     11  C   UNL     1       1.304  -3.526   1.339  0.00  0.00    +0.023 C 
ATOM     13  C   UNL     1       2.623  -3.030   0.754  0.00  0.00    +0.108 C 
ATOM     18  C   UNL     1       3.136  -0.679   0.185  0.00  0.00    +0.220 C 
ENDROOT
BRANCH   8  12
ATOM     12  C   UNL     1      -0.628  -1.313   0.064  0.00  0.00    +0.020 C 
BRANCH  12  15
ATOM     15  C   UNL     1      -1.312  -0.402  -0.945  0.00  0.00    +0.085 C 
BRANCH  15   6
ATOM      4  O   UNL     1      -6.290   2.919   0.819  0.00  0.00    -0.276 OA
ATOM      6  N   UNL     1      -1.965   0.706  -0.250  0.00  0.00    -0.299 NA
ATOM      7  N   UNL     1      -4.063   2.594   0.244  0.00  0.00    -0.299 N 
ATOM     16  C   UNL     1      -2.182   1.835  -1.167  0.00  0.00    +0.103 C 
ATOM     17  C   UNL     1      -3.241   0.268   0.336  0.00  0.00    +0.103 C 
ATOM     19  C   UNL     1      -2.837   3.012  -0.442  0.00  0.00    +0.123 C 
ATOM     20  C   UNL     1      -3.911   1.414   1.093  0.00  0.00    +0.123 C 
ATOM     23  C   UNL     1      -5.270   3.292   0.234  0.00  0.00    +0.213 C 
ATOM     25  C   UNL     1      -5.300   4.576  -0.556  0.00  0.00    +0.109 C 
ENDBRANCH  15   6
ENDBRANCH  12  15
ENDBRANCH   8  12
BRANCH   9  14
ATOM     14  C   UNL     1      -1.066  -4.230   0.842  0.00  0.00    +0.124 C 
BRANCH  14  21
ATOM      3  O   UNL     1      -1.862  -4.910  -1.359  0.00  0.00    -0.251 OA
ATOM     21  C   UNL     1      -2.087  -4.527  -0.221  0.00  0.00    +0.305 C 
BRANCH  21   2
ATOM      2  O   UNL     1      -3.335  -4.305   0.268  0.00  0.00    -0.481 OA
ATOM     31  H   UNL     1      -4.028  -4.488  -0.402  0.00  0.00    +0.295 HD
ENDBRANCH  21   2
ENDBRANCH  14  21
ENDBRANCH   9  14
BRANCH  18  22
ATOM     22  C   UNL     1       2.865   0.500  -0.716  0.00  0.00    +0.131 C 
BRANCH  22  24
ATOM     24  C   UNL     1       3.734   1.660  -0.342  0.00  0.00    -0.039 A 
ATOM     26  C   UNL     1       3.289   2.591   0.597  0.00  0.00    +0.004 A 
ATOM     27  C   UNL     1       4.988   1.811  -0.934  0.00  0.00    +0.004 A 
ATOM     28  C   UNL     1       4.098   3.672   0.945  0.00  0.00    +0.000 A 
ATOM     29  C   UNL     1       5.797   2.893  -0.586  0.00  0.00    +0.000 A 
ATOM     30  C   UNL     1       5.352   3.823   0.354  0.00  0.00    +0.000 A 
ENDBRANCH  22  24
ENDBRANCH  18  22
TORSDOF 8
