REMARK  Name = 75536658
REMARK  8 active torsions:
REMARK  status: ('A' for Active; 'I' for Inactive)
REMARK    1  A    between atoms: S_1  and  N_7
REMARK    2  A    between atoms: S_1  and  C_16
REMARK    3  A    between atoms: O_3  and  C_10
REMARK    4  A    between atoms: N_6  and  C_9
REMARK    5  A    between atoms: N_6  and  C_14
REMARK    6  A    between atoms: N_7  and  C_13
REMARK    7  A    between atoms: C_11  and  C_13
REMARK    8  A    between atoms: C_14  and  C_15
REMARK                            x       y       z     vdW  Elec       q    Type
REMARK                         _______ _______ _______ _____ _____    ______ ____
ROOT
ATOM      2  O   UNL     1       1.690   0.462   1.167  0.00  0.00    -0.371 OA
ATOM      9  C   UNL     1      -0.381  -0.564   0.620  0.00  0.00    +0.111 C 
ATOM     10  C   UNL     1       0.689  -1.069  -0.332  0.00  0.00    +0.164 C 
ATOM     11  C   UNL     1       1.953  -0.760   0.458  0.00  0.00    +0.164 C 
ATOM     12  C   UNL     1       0.271   0.697   1.163  0.00  0.00    +0.181 C 
ENDROOT
BRANCH  10   3
ATOM      3  O   UNL     1       0.564  -2.450  -0.610  0.00  0.00    -0.388 OA
ATOM     22  H   UNL     1       0.582  -2.934   0.233  0.00  0.00    +0.210 HD
ENDBRANCH  10   3
BRANCH   9   6
ATOM      6  N   UNL     1      -1.659  -0.309  -0.023  0.00  0.00    -0.303 NA
ATOM     21  H   UNL     1      -1.888  -1.092  -0.635  0.00  0.00    +0.123 HD
BRANCH   6  14
ATOM     14  C   UNL     1      -2.722  -0.157   0.965  0.00  0.00    +0.137 C 
BRANCH  14  15
ATOM      8  N   UNL     1      -4.928  -0.903   0.259  0.00  0.00    -0.259 NA
ATOM     15  C   UNL     1      -4.052   0.125   0.318  0.00  0.00    +0.055 A 
ATOM     17  C   UNL     1      -4.312   1.394  -0.174  0.00  0.00    +0.024 A 
ATOM     18  C   UNL     1      -5.550   1.622  -0.764  0.00  0.00    +0.003 A 
ATOM     19  C   UNL     1      -6.120  -0.644  -0.321  0.00  0.00    +0.111 A 
ATOM     20  C   UNL     1      -6.477   0.589  -0.843  0.00  0.00    +0.020 A 
ENDBRANCH  14  15
ENDBRANCH   6  14
ENDBRANCH   9   6
BRANCH  11  13
ATOM     13  C   UNL     1       3.182  -0.592  -0.418  0.00  0.00    +0.139 C 
BRANCH  13   7
ATOM      7  N   UNL     1       4.356  -0.296   0.426  0.00  0.00    -0.192 NA
ATOM     23  H   UNL     1       4.630  -1.081   1.032  0.00  0.00    +0.148 HD
BRANCH   7   1
ATOM      1  S   UNL     1       5.628   0.641  -0.218  0.00  0.00    +0.027 S 
ATOM      4  O   UNL     1       6.789   0.555   0.647  0.00  0.00    -0.158 OA
ATOM      5  O   UNL     1       5.093   1.929  -0.616  0.00  0.00    -0.158 OA
ATOM     16  C   UNL     1       5.984  -0.269  -1.703  0.00  0.00    +0.214 C 
ENDBRANCH   7   1
ENDBRANCH  13   7
ENDBRANCH  11  13
TORSDOF 7
