REMARK  Name = 51136755
REMARK  12 active torsions:
REMARK  status: ('A' for Active; 'I' for Inactive)
REMARK    1  A    between atoms: O_2  and  C_17
REMARK    2  A    between atoms: N_6  and  C_26
REMARK    3  A    between atoms: C_7  and  C_11
REMARK    4  A    between atoms: C_8  and  C_13
REMARK    5  A    between atoms: C_11  and  C_14
REMARK    6  A    between atoms: C_13  and  C_17
REMARK    7  A    between atoms: C_22  and  C_23
REMARK    8  A    between atoms: C_23  and  C_27
REMARK    9  A    between atoms: C_23  and  C_28
REMARK   10  A    between atoms: C_23  and  C_29
REMARK   11  A    between atoms: C_26  and  C_30
REMARK   12  A    between atoms: C_26  and  C_31
REMARK                            x       y       z     vdW  Elec       q    Type
REMARK                         _______ _______ _______ _____ _____    ______ ____
ROOT
ATOM      1  O   UNL     1       5.032   1.049  -0.841  0.00  0.00    -0.253 OA
ATOM      4  N   UNL     1       3.134   1.222   0.481  0.00  0.00    -0.285 N 
ATOM      6  N   UNL     1       4.133  -0.873   0.030  0.00  0.00    -0.297 N 
ATOM      7  C   UNL     1       0.678   0.995   0.727  0.00  0.00    +0.016 C 
ATOM      8  C   UNL     1       0.552   2.529   0.531  0.00  0.00    +0.006 C 
ATOM      9  C   UNL     1       1.738   3.102  -0.266  0.00  0.00    +0.023 C 
ATOM     10  C   UNL     1       2.060   0.662   1.315  0.00  0.00    +0.113 C 
ATOM     12  C   UNL     1       3.076   2.677   0.337  0.00  0.00    +0.109 C 
ATOM     16  C   UNL     1       4.161   0.504  -0.154  0.00  0.00    +0.302 C 
ATOM     32  H   UNL     1       3.336  -1.323   0.456  0.00  0.00    +0.150 HD
ENDROOT
BRANCH   6  26
ATOM     26  C   UNL     1       5.117  -1.748  -0.567  0.00  0.00    +0.068 C 
ATOM     30  C   UNL     1       4.672  -2.174  -1.960  0.00  0.00    +0.027 C 
ATOM     31  C   UNL     1       5.369  -2.957   0.325  0.00  0.00    +0.027 C 
ENDBRANCH   6  26
BRANCH   7  11
ATOM     11  C   UNL     1       0.427   0.180  -0.547  0.00  0.00    +0.061 C 
BRANCH  11  14
ATOM      5  N   UNL     1       1.033  -2.096  -0.077  0.00  0.00    -0.287 NA
ATOM     14  C   UNL     1       0.070  -1.242  -0.184  0.00  0.00    +0.044 C 
ATOM     15  C   UNL     1      -1.358  -1.586   0.036  0.00  0.00    -0.001 A 
ATOM     18  C   UNL     1      -1.621  -2.773   0.732  0.00  0.00    -0.037 A 
ATOM     19  C   UNL     1      -0.464  -3.596   1.214  0.00  0.00    +0.059 C 
ATOM     20  C   UNL     1       0.681  -3.490   0.215  0.00  0.00    +0.146 C 
ATOM     21  C   UNL     1      -2.407  -0.777  -0.406  0.00  0.00    +0.014 A 
ATOM     22  C   UNL     1      -3.724  -1.154  -0.140  0.00  0.00    -0.041 A 
ATOM     24  C   UNL     1      -2.942  -3.133   1.008  0.00  0.00    +0.004 A 
ATOM     25  C   UNL     1      -3.992  -2.326   0.567  0.00  0.00    +0.004 A 
BRANCH  22  23
ATOM     23  C   UNL     1      -4.852  -0.297  -0.610  0.00  0.00    -0.013 C 
ATOM     27  C   UNL     1      -5.716   0.206   0.588  0.00  0.00    +0.015 C 
ATOM     28  C   UNL     1      -5.795  -1.081  -1.573  0.00  0.00    +0.015 C 
ATOM     29  C   UNL     1      -4.434   0.992  -1.393  0.00  0.00    +0.015 C 
ENDBRANCH  22  23
ENDBRANCH  11  14
ENDBRANCH   7  11
BRANCH   8  13
ATOM     13  C   UNL     1      -0.775   2.946  -0.102  0.00  0.00    +0.124 C 
BRANCH  13  17
ATOM      3  O   UNL     1      -0.443   5.155   0.873  0.00  0.00    -0.251 OA
ATOM     17  C   UNL     1      -1.112   4.378   0.208  0.00  0.00    +0.305 C 
BRANCH  17   2
ATOM      2  O   UNL     1      -2.298   4.705  -0.367  0.00  0.00    -0.481 OA
ATOM     33  H   UNL     1      -2.549   5.635  -0.184  0.00  0.00    +0.295 HD
ENDBRANCH  17   2
ENDBRANCH  13  17
ENDBRANCH   8  13
TORSDOF 7
