REMARK  Name = 45360525
REMARK  12 active torsions:
REMARK  status: ('A' for Active; 'I' for Inactive)
REMARK    1  A    between atoms: O_3  and  C_25
REMARK    2  A    between atoms: O_3  and  C_39
REMARK    3  A    between atoms: N_6  and  C_22
REMARK    4  A    between atoms: C_8  and  C_12
REMARK    5  A    between atoms: C_9  and  C_14
REMARK    6  A    between atoms: C_12  and  C_15
REMARK    7  A    between atoms: C_14  and  C_16
REMARK    8  A    between atoms: C_23  and  C_24
REMARK    9  A    between atoms: C_27  and  C_28
REMARK   10  A    between atoms: C_27  and  C_35
REMARK   11  A    between atoms: C_27  and  C_36
REMARK   12  A    between atoms: C_27  and  C_37
REMARK                            x       y       z     vdW  Elec       q    Type
REMARK                         _______ _______ _______ _____ _____    ______ ____
ROOT
ATOM      4  N   UNL     1      -0.705   2.187   2.770  0.00  0.00    -0.316 NA
ATOM      8  C   UNL     1       0.640   2.241   0.144  0.00  0.00    +0.004 C 
ATOM      9  C   UNL     1      -0.813   1.741   0.330  0.00  0.00    +0.012 C 
ATOM     10  C   UNL     1       0.987   3.208   1.289  0.00  0.00    +0.019 C 
ATOM     11  C   UNL     1      -1.049   1.197   1.749  0.00  0.00    +0.085 C 
ATOM     13  C   UNL     1       0.688   2.614   2.665  0.00  0.00    +0.081 C 
ATOM     40  H   UNL     1      -0.867   1.788   3.695  0.00  0.00    +0.122 HD
ENDROOT
BRANCH   8  12
ATOM     12  C   UNL     1       1.679   1.117   0.045  0.00  0.00    +0.100 C 
BRANCH  12  15
ATOM      1  O   UNL     1       2.976   2.801  -1.004  0.00  0.00    -0.276 OA
ATOM      5  N   UNL     1       3.973   0.717  -0.772  0.00  0.00    -0.298 N 
ATOM      6  N   UNL     1       6.395  -0.527  -0.031  0.00  0.00    -0.324 N 
ATOM     15  C   UNL     1       2.929   1.628  -0.625  0.00  0.00    +0.216 C 
ATOM     17  C   UNL     1       5.213   1.117  -1.431  0.00  0.00    +0.126 C 
ATOM     18  C   UNL     1       3.956  -0.681  -0.336  0.00  0.00    +0.126 C 
ATOM     19  C   UNL     1       6.415   0.859  -0.524  0.00  0.00    +0.124 C 
ATOM     20  C   UNL     1       5.138  -0.973   0.587  0.00  0.00    +0.124 C 
BRANCH   6  22
ATOM     22  C   UNL     1       7.608  -1.085   0.389  0.00  0.00    +0.072 A 
ATOM     25  C   UNL     1       8.681  -1.197  -0.494  0.00  0.00    +0.141 A 
ATOM     26  C   UNL     1       7.738  -1.529   1.705  0.00  0.00    +0.027 A 
ATOM     31  C   UNL     1       9.885  -1.753  -0.062  0.00  0.00    +0.047 A 
ATOM     34  C   UNL     1       8.942  -2.086   2.137  0.00  0.00    +0.002 A 
ATOM     38  C   UNL     1      10.015  -2.198   1.254  0.00  0.00    +0.004 A 
BRANCH  25   3
ATOM      3  O   UNL     1       8.574  -0.769  -1.784  0.00  0.00    -0.493 OA
ATOM     39  C   UNL     1       8.117  -1.717  -2.745  0.00  0.00    +0.277 C 
ENDBRANCH  25   3
ENDBRANCH   6  22
ENDBRANCH  12  15
ENDBRANCH   8  12
BRANCH   9  14
ATOM     14  C   UNL     1      -1.229   0.707  -0.718  0.00  0.00    +0.064 C 
BRANCH  14  16
ATOM      2  O   UNL     1      -4.692   1.117  -1.614  0.00  0.00    -0.354 OA
ATOM      7  N   UNL     1      -3.343   1.428  -1.742  0.00  0.00    -0.083 NA
ATOM     16  C   UNL     1      -2.722   0.641  -0.858  0.00  0.00    +0.085 A 
ATOM     21  C   UNL     1      -3.618  -0.179  -0.151  0.00  0.00    +0.076 A 
ATOM     23  C   UNL     1      -4.843   0.159  -0.664  0.00  0.00    +0.167 A 
BRANCH  23  24
ATOM     24  C   UNL     1      -6.190  -0.267  -0.420  0.00  0.00    +0.020 A 
ATOM     28  C   UNL     1      -8.811  -1.093   0.057  0.00  0.00    -0.042 A 
ATOM     29  C   UNL     1      -6.449  -1.247   0.538  0.00  0.00    +0.012 A 
ATOM     30  C   UNL     1      -7.242   0.301  -1.139  0.00  0.00    +0.012 A 
ATOM     32  C   UNL     1      -7.760  -1.661   0.776  0.00  0.00    +0.005 A 
ATOM     33  C   UNL     1      -8.553  -0.113  -0.901  0.00  0.00    +0.005 A 
BRANCH  28  27
ATOM     27  C   UNL     1     -10.213  -1.536   0.311  0.00  0.00    -0.013 C 
ATOM     35  C   UNL     1     -11.308  -0.831  -0.556  0.00  0.00    +0.015 C 
ATOM     36  C   UNL     1     -10.383  -3.062   0.034  0.00  0.00    +0.015 C 
ATOM     37  C   UNL     1     -10.627  -1.278   1.793  0.00  0.00    +0.015 C 
ENDBRANCH  28  27
ENDBRANCH  23  24
ENDBRANCH  14  16
ENDBRANCH   9  14
TORSDOF 8
