REMARK  Name = 75536780
REMARK  8 active torsions:
REMARK  status: ('A' for Active; 'I' for Inactive)
REMARK    1  A    between atoms: O_2  and  C_10
REMARK    2  A    between atoms: N_4  and  C_9
REMARK    3  A    between atoms: N_4  and  C_14
REMARK    4  A    between atoms: N_5  and  C_13
REMARK    5  A    between atoms: N_6  and  C_18
REMARK    6  A    between atoms: N_8  and  C_20
REMARK    7  A    between atoms: C_11  and  C_13
REMARK    8  A    between atoms: C_14  and  C_15
REMARK                            x       y       z     vdW  Elec       q    Type
REMARK                         _______ _______ _______ _____ _____    ______ ____
ROOT
ATOM      1  O   UNL     1      -0.301  -1.138  -0.009  0.00  0.00    -0.371 OA
ATOM      9  C   UNL     1      -2.211   0.255  -0.236  0.00  0.00    +0.111 C 
ATOM     10  C   UNL     1      -1.289   0.847   0.813  0.00  0.00    +0.164 C 
ATOM     11  C   UNL     1       0.032   0.182   0.452  0.00  0.00    +0.165 C 
ATOM     12  C   UNL     1      -1.708  -1.178  -0.305  0.00  0.00    +0.181 C 
ENDROOT
BRANCH  10   2
ATOM      2  O   UNL     1      -1.208   2.257   0.736  0.00  0.00    -0.388 OA
ATOM     27  H   UNL     1      -0.925   2.498  -0.162  0.00  0.00    +0.210 HD
ENDBRANCH  10   2
BRANCH   9   4
ATOM      4  N   UNL     1      -3.621   0.344   0.109  0.00  0.00    -0.302 NA
ATOM     26  H   UNL     1      -3.822   1.282   0.456  0.00  0.00    +0.123 HD
BRANCH   4  14
ATOM     14  C   UNL     1      -4.463   0.079  -1.052  0.00  0.00    +0.156 C 
BRANCH  14  15
ATOM      6  N   UNL     1      -6.568  -0.854  -0.037  0.00  0.00    -0.336 N 
ATOM      7  N   UNL     1      -6.742   1.140  -0.999  0.00  0.00    -0.239 NA
ATOM     15  C   UNL     1      -5.927   0.150  -0.709  0.00  0.00    +0.123 A 
ATOM     17  C   UNL     1      -7.874  -0.479   0.111  0.00  0.00    +0.106 A 
ATOM     18  C   UNL     1      -5.988  -2.089   0.436  0.00  0.00    +0.150 C 
ATOM     19  C   UNL     1      -7.957   0.754  -0.490  0.00  0.00    +0.130 A 
ENDBRANCH  14  15
ENDBRANCH   4  14
ENDBRANCH   9   4
BRANCH  11  13
ATOM     13  C   UNL     1       0.998   0.090   1.620  0.00  0.00    +0.140 C 
BRANCH  13   5
ATOM      3  O   UNL     1       3.343   1.375   0.593  0.00  0.00    -0.253 OA
ATOM      5  N   UNL     1       2.224  -0.546   1.235  0.00  0.00    -0.297 N 
ATOM      8  N   UNL     1       4.382  -0.725   0.448  0.00  0.00    -0.269 N 
ATOM     16  C   UNL     1       3.335   0.154   0.738  0.00  0.00    +0.304 C 
ATOM     28  H   UNL     1       2.286  -1.556   1.314  0.00  0.00    +0.150 HD
ATOM     29  H   UNL     1       4.212  -1.712   0.626  0.00  0.00    +0.156 HD
BRANCH   8  20
ATOM     20  C   UNL     1       5.662  -0.412  -0.068  0.00  0.00    +0.035 A 
ATOM     21  C   UNL     1       6.589  -1.428  -0.298  0.00  0.00    +0.023 A 
ATOM     22  C   UNL     1       5.997   0.913  -0.345  0.00  0.00    +0.023 A 
ATOM     23  C   UNL     1       7.851  -1.120  -0.806  0.00  0.00    +0.002 A 
ATOM     24  C   UNL     1       7.258   1.222  -0.853  0.00  0.00    +0.002 A 
ATOM     25  C   UNL     1       8.185   0.206  -1.083  0.00  0.00    +0.000 A 
ENDBRANCH   8  20
ENDBRANCH  13   5
ENDBRANCH  11  13
TORSDOF 7
