REMARK  Name = 45360398
REMARK  10 active torsions:
REMARK  status: ('A' for Active; 'I' for Inactive)
REMARK    1  A    between atoms: O_4  and  C_14
REMARK    2  A    between atoms: O_7  and  C_29
REMARK    3  A    between atoms: O_7  and  C_33
REMARK    4  A    between atoms: N_10  and  C_13
REMARK    5  A    between atoms: N_11  and  C_22
REMARK    6  A    between atoms: C_20  and  C_21
REMARK    7  A    between atoms: C_30  and  C_34
REMARK    8  A    between atoms: C_33  and  C_35
REMARK    9  A    between atoms: C_36  and  C_38
REMARK   10  A    between atoms: C_37  and  C_39
REMARK                            x       y       z     vdW  Elec       q    Type
REMARK                         _______ _______ _______ _____ _____    ______ ____
ROOT
ATOM      5  O   UNL     1      -4.891   2.239   0.827  0.00  0.00    -0.252 OA
ATOM      9  N   UNL     1      -5.222   0.287  -0.367  0.00  0.00    -0.284 N 
ATOM     11  N   UNL     1      -3.101   1.331  -0.343  0.00  0.00    -0.269 N 
ATOM     13  C   UNL     1      -4.178  -2.005  -0.337  0.00  0.00    +0.119 C 
ATOM     14  C   UNL     1      -4.877  -2.304   1.002  0.00  0.00    +0.136 C 
ATOM     15  C   UNL     1      -6.400  -2.143   1.008  0.00  0.00    +0.035 C 
ATOM     16  C   UNL     1      -4.757  -0.853  -1.168  0.00  0.00    +0.134 C 
ATOM     17  C   UNL     1      -6.855  -0.699   1.230  0.00  0.00    +0.022 C 
ATOM     18  C   UNL     1      -6.627   0.225   0.039  0.00  0.00    +0.109 C 
ATOM     19  C   UNL     1      -4.425   1.362   0.095  0.00  0.00    +0.307 C 
ATOM     42  H   UNL     1      -2.805   0.556  -0.924  0.00  0.00    +0.156 HD
ENDROOT
BRANCH  11  22
ATOM     22  C   UNL     1      -2.066   2.257  -0.055  0.00  0.00    +0.035 A 
ATOM     25  C   UNL     1      -0.791   2.065  -0.586  0.00  0.00    +0.035 A 
ATOM     26  C   UNL     1      -2.324   3.360   0.758  0.00  0.00    +0.023 A 
ATOM     30  C   UNL     1       0.227   2.976  -0.303  0.00  0.00    +0.057 A 
ATOM     31  C   UNL     1      -1.306   4.271   1.041  0.00  0.00    +0.002 A 
ATOM     32  C   UNL     1      -0.031   4.079   0.510  0.00  0.00    +0.012 A 
BRANCH  30  34
ATOM      1  F   UNL     1       2.171   1.594  -0.488  0.00  0.00    -0.166 F 
ATOM      2  F   UNL     1       2.467   3.748  -0.497  0.00  0.00    -0.166 F 
ATOM      3  F   UNL     1       1.620   2.755  -2.236  0.00  0.00    -0.166 F 
ATOM     34  C   UNL     1       1.591   2.770  -0.870  0.00  0.00    +0.417 C 
ENDBRANCH  30  34
ENDBRANCH  11  22
BRANCH  13  10
ATOM      6  O   UNL     1      -2.016  -2.727  -2.081  0.00  0.00    -0.270 OA
ATOM     10  N   UNL     1      -2.763  -1.798  -0.093  0.00  0.00    -0.305 N 
ATOM     20  C   UNL     1      -1.796  -2.184  -1.002  0.00  0.00    +0.244 C 
ATOM     40  H   UNL     1      -2.509  -1.253   0.724  0.00  0.00    +0.149 HD
BRANCH  20  21
ATOM     21  C   UNL     1      -0.391  -1.926  -0.593  0.00  0.00    +0.037 A 
ATOM     23  C   UNL     1       0.594  -1.734  -1.562  0.00  0.00    +0.016 A 
ATOM     24  C   UNL     1      -0.057  -1.877   0.761  0.00  0.00    +0.016 A 
ATOM     27  C   UNL     1       1.913  -1.495  -1.178  0.00  0.00    +0.046 A 
ATOM     28  C   UNL     1       1.263  -1.638   1.145  0.00  0.00    +0.046 A 
ATOM     29  C   UNL     1       2.247  -1.446   0.176  0.00  0.00    +0.121 A 
BRANCH  29   7
ATOM      7  O   UNL     1       3.535  -1.212   0.551  0.00  0.00    -0.487 OA
BRANCH   7  33
ATOM     33  C   UNL     1       4.491  -1.024  -0.491  0.00  0.00    +0.269 C 
BRANCH  33  35
ATOM      8  O   UNL     1       7.941  -1.121   0.814  0.00  0.00    -0.359 OA
ATOM     12  N   UNL     1       7.599   0.174   1.185  0.00  0.00    -0.083 NA
ATOM     35  C   UNL     1       5.845  -0.812   0.118  0.00  0.00    +0.054 A 
ATOM     36  C   UNL     1       6.888  -1.698   0.180  0.00  0.00    +0.141 A 
ATOM     37  C   UNL     1       6.343   0.336   0.758  0.00  0.00    +0.087 A 
ATOM     38  C   UNL     1       7.082  -3.079  -0.281  0.00  0.00    +0.089 C 
ATOM     39  C   UNL     1       5.656   1.617   0.989  0.00  0.00    +0.069 C 
ENDBRANCH  33  35
ENDBRANCH   7  33
ENDBRANCH  29   7
ENDBRANCH  20  21
ENDBRANCH  13  10
BRANCH  14   4
ATOM      4  O   UNL     1      -4.598  -3.669   1.344  0.00  0.00    -0.390 OA
ATOM     41  H   UNL     1      -4.928  -3.820   2.247  0.00  0.00    +0.210 HD
ENDBRANCH  14   4
TORSDOF 8
