REMARK  Name = 11867054
REMARK  13 active torsions:
REMARK  status: ('A' for Active; 'I' for Inactive)
REMARK    1  A    between atoms: O_2  and  C_14
REMARK    2  A    between atoms: O_3  and  C_19
REMARK    3  A    between atoms: N_7  and  C_25
REMARK    4  A    between atoms: C_9  and  C_17
REMARK    5  A    between atoms: C_11  and  C_19
REMARK    6  A    between atoms: C_11  and  C_20
REMARK    7  A    between atoms: C_12  and  C_22
REMARK    8  A    between atoms: C_22  and  C_23
REMARK    9  A    between atoms: C_26  and  C_27
REMARK   10  A    between atoms: C_27  and  C_28
REMARK   11  A    between atoms: C_28  and  C_31
REMARK   12  A    between atoms: C_28  and  C_32
REMARK   13  A    between atoms: C_28  and  C_33
REMARK                            x       y       z     vdW  Elec       q    Type
REMARK                         _______ _______ _______ _____ _____    ______ ____
ROOT
ATOM      1  S   UNL     1      -0.500   3.141  -0.484  0.00  0.00    -0.057 S 
ATOM      5  O   UNL     1       3.500   0.754  -0.617  0.00  0.00    -0.275 OA
ATOM      6  N   UNL     1       0.547   0.778  -0.358  0.00  0.00    -0.229 NA
ATOM      8  N   UNL     1       2.065   2.626  -0.661  0.00  0.00    -0.265 N 
ATOM      9  C   UNL     1      -2.960  -0.589   0.482  0.00  0.00    -0.019 C 
ATOM     10  C   UNL     1      -3.690   0.540  -0.372  0.00  0.00    +0.011 C 
ATOM     11  C   UNL     1      -5.266   0.574  -0.314  0.00  0.00    +0.021 C 
ATOM     12  C   UNL     1      -1.460  -0.720  -0.055  0.00  0.00    +0.054 C 
ATOM     13  C   UNL     1      -3.677  -1.946   0.264  0.00  0.00    +0.010 C 
ATOM     14  C   UNL     1      -5.817  -0.868  -0.504  0.00  0.00    +0.123 C 
ATOM     15  C   UNL     1      -3.025   1.931  -0.163  0.00  0.00    +0.049 C 
ATOM     16  C   UNL     1      -5.187  -1.882   0.445  0.00  0.00    +0.032 C 
ATOM     17  C   UNL     1      -2.938  -0.276   1.998  0.00  0.00    +0.012 C 
ATOM     18  C   UNL     1      -0.821   0.636  -0.214  0.00  0.00    +0.058 A 
ATOM     20  C   UNL     1      -5.798   1.432  -1.496  0.00  0.00    +0.016 C 
ATOM     21  C   UNL     1      -1.543   1.810  -0.278  0.00  0.00    +0.015 A 
ATOM     24  C   UNL     1       0.831   2.055  -0.499  0.00  0.00    +0.165 A 
ATOM     26  C   UNL     1       3.302   1.962  -0.710  0.00  0.00    +0.219 C 
ATOM     40  H   UNL     1       2.059   3.638  -0.750  0.00  0.00    +0.157 HD
ENDROOT
BRANCH  14   2
ATOM      2  O   UNL     1      -7.233  -0.892  -0.328  0.00  0.00    -0.391 OA
ATOM     37  H   UNL     1      -7.536  -1.800  -0.501  0.00  0.00    +0.210 HD
ENDBRANCH  14   2
BRANCH  11  19
ATOM     19  C   UNL     1      -5.846   1.221   0.963  0.00  0.00    +0.165 C 
BRANCH  19   3
ATOM      3  O   UNL     1      -7.252   1.188   0.863  0.00  0.00    -0.394 OA
ATOM     38  H   UNL     1      -7.610   1.605   1.665  0.00  0.00    +0.209 HD
ENDBRANCH  19   3
ENDBRANCH  11  19
BRANCH  12  22
ATOM     22  C   UNL     1      -0.571  -1.668   0.761  0.00  0.00    +0.106 C 
BRANCH  22  23
ATOM      4  O   UNL     1       0.446  -2.460  -1.273  0.00  0.00    -0.275 OA
ATOM      7  N   UNL     1       1.660  -2.501   0.737  0.00  0.00    -0.285 N 
ATOM     23  C   UNL     1       0.552  -2.254  -0.069  0.00  0.00    +0.218 C 
ATOM     39  H   UNL     1       1.586  -2.281   1.728  0.00  0.00    +0.155 HD
BRANCH   7  25
ATOM     25  C   UNL     1       2.907  -3.044   0.347  0.00  0.00    +0.033 A 
ATOM     29  C   UNL     1       3.915  -3.227   1.294  0.00  0.00    +0.023 A 
ATOM     30  C   UNL     1       3.128  -3.398  -0.984  0.00  0.00    +0.023 A 
ATOM     34  C   UNL     1       5.144  -3.762   0.909  0.00  0.00    +0.002 A 
ATOM     35  C   UNL     1       4.358  -3.933  -1.369  0.00  0.00    +0.002 A 
ATOM     36  C   UNL     1       5.366  -4.115  -0.422  0.00  0.00    +0.000 A 
ENDBRANCH   7  25
ENDBRANCH  22  23
ENDBRANCH  12  22
BRANCH  26  27
ATOM     27  C   UNL     1       4.476   2.917  -0.893  0.00  0.00    +0.102 C 
BRANCH  27  28
ATOM     28  C   UNL     1       5.157   3.368   0.421  0.00  0.00    -0.029 C 
ATOM     31  C   UNL     1       4.195   4.174   1.308  0.00  0.00    +0.011 C 
ATOM     32  C   UNL     1       6.351   4.270   0.054  0.00  0.00    +0.011 C 
ATOM     33  C   UNL     1       5.685   2.160   1.213  0.00  0.00    +0.011 C 
ENDBRANCH  27  28
ENDBRANCH  26  27
TORSDOF 8
