REMARK  Name = 7134871
REMARK  11 active torsions:
REMARK  status: ('A' for Active; 'I' for Inactive)
REMARK    1  A    between atoms: O_3  and  C_15
REMARK    2  A    between atoms: O_4  and  C_20
REMARK    3  A    between atoms: N_8  and  C_26
REMARK    4  A    between atoms: C_10  and  C_18
REMARK    5  A    between atoms: C_12  and  C_20
REMARK    6  A    between atoms: C_12  and  C_21
REMARK    7  A    between atoms: C_13  and  C_23
REMARK    8  A    between atoms: C_23  and  C_24
REMARK    9  A    between atoms: C_26  and  C_28
REMARK   10  A    between atoms: C_26  and  C_29
REMARK   11  A    between atoms: C_27  and  C_30
REMARK                            x       y       z     vdW  Elec       q    Type
REMARK                         _______ _______ _______ _____ _____    ______ ____
ROOT
ATOM      1  S   UNL     1      -0.126   2.632  -0.508  0.00  0.00    -0.057 S 
ATOM      6  O   UNL     1       3.071  -0.388   1.020  0.00  0.00    -0.270 OA
ATOM      7  N   UNL     1       0.234   0.289   0.529  0.00  0.00    -0.229 NA
ATOM      9  N   UNL     1       2.208   1.604   0.102  0.00  0.00    -0.261 N 
ATOM     10  C   UNL     1      -3.597  -0.022   0.833  0.00  0.00    -0.019 C 
ATOM     11  C   UNL     1      -3.851   0.879  -0.456  0.00  0.00    +0.011 C 
ATOM     12  C   UNL     1      -5.350   1.233  -0.797  0.00  0.00    +0.021 C 
ATOM     13  C   UNL     1      -2.114  -0.609   0.739  0.00  0.00    +0.054 C 
ATOM     14  C   UNL     1      -4.594  -1.210   0.836  0.00  0.00    +0.010 C 
ATOM     15  C   UNL     1      -6.215  -0.056  -0.704  0.00  0.00    +0.123 C 
ATOM     16  C   UNL     1      -2.894   2.106  -0.489  0.00  0.00    +0.049 C 
ATOM     17  C   UNL     1      -6.043  -0.800   0.616  0.00  0.00    +0.032 C 
ATOM     18  C   UNL     1      -3.757   0.764   2.157  0.00  0.00    +0.012 C 
ATOM     19  C   UNL     1      -1.127   0.468   0.368  0.00  0.00    +0.058 A 
ATOM     21  C   UNL     1      -5.429   1.737  -2.266  0.00  0.00    +0.016 C 
ATOM     22  C   UNL     1      -1.497   1.671  -0.199  0.00  0.00    +0.015 A 
ATOM     25  C   UNL     1       0.859   1.367   0.109  0.00  0.00    +0.165 A 
ATOM     27  C   UNL     1       3.217   0.734   0.547  0.00  0.00    +0.250 C 
ATOM     44  H   UNL     1       2.461   2.496  -0.312  0.00  0.00    +0.157 HD
ENDROOT
BRANCH  27  30
ATOM      2  F   UNL     1       8.467   2.640  -0.040  0.00  0.00    -0.205 F 
ATOM     30  C   UNL     1       4.607   1.239   0.393  0.00  0.00    +0.037 A 
ATOM     33  C   UNL     1       5.664   0.339   0.250  0.00  0.00    +0.016 A 
ATOM     34  C   UNL     1       4.854   2.611   0.389  0.00  0.00    +0.016 A 
ATOM     38  C   UNL     1       6.968   0.813   0.104  0.00  0.00    +0.039 A 
ATOM     39  C   UNL     1       6.158   3.085   0.243  0.00  0.00    +0.039 A 
ATOM     40  C   UNL     1       7.215   2.186   0.101  0.00  0.00    +0.123 A 
ENDBRANCH  27  30
BRANCH  15   3
ATOM      3  O   UNL     1      -7.597   0.252  -0.881  0.00  0.00    -0.391 OA
ATOM     41  H   UNL     1      -8.090  -0.586  -0.861  0.00  0.00    +0.210 HD
ENDBRANCH  15   3
BRANCH  12  20
ATOM     20  C   UNL     1      -5.954   2.365   0.063  0.00  0.00    +0.165 C 
BRANCH  20   4
ATOM      4  O   UNL     1      -7.281   2.571  -0.365  0.00  0.00    -0.394 OA
ATOM     42  H   UNL     1      -7.651   3.291   0.174  0.00  0.00    +0.209 HD
ENDBRANCH  20   4
ENDBRANCH  12  20
BRANCH  13  23
ATOM     23  C   UNL     1      -1.656  -1.386   1.981  0.00  0.00    +0.106 C 
BRANCH  23  24
ATOM      5  O   UNL     1       0.682  -1.798   2.451  0.00  0.00    -0.276 OA
ATOM      8  N   UNL     1      -0.361  -2.951   0.723  0.00  0.00    -0.309 N 
ATOM     24  C   UNL     1      -0.312  -2.045   1.772  0.00  0.00    +0.214 C 
ATOM     43  H   UNL     1      -1.236  -3.100   0.230  0.00  0.00    +0.149 HD
BRANCH   8  26
ATOM     26  C   UNL     1       0.781  -3.727   0.296  0.00  0.00    +0.100 C 
ATOM     28  C   UNL     1       0.336  -5.085  -0.243  0.00  0.00    +0.033 C 
BRANCH  26  29
ATOM     29  C   UNL     1       1.626  -2.959  -0.697  0.00  0.00    -0.027 A 
ATOM     31  C   UNL     1       3.013  -3.112  -0.698  0.00  0.00    +0.005 A 
ATOM     32  C   UNL     1       1.020  -2.098  -1.612  0.00  0.00    +0.005 A 
ATOM     35  C   UNL     1       3.792  -2.404  -1.613  0.00  0.00    +0.000 A 
ATOM     36  C   UNL     1       1.799  -1.390  -2.527  0.00  0.00    +0.000 A 
ATOM     37  C   UNL     1       3.185  -1.543  -2.527  0.00  0.00    +0.000 A 
ENDBRANCH  26  29
ENDBRANCH   8  26
ENDBRANCH  23  24
ENDBRANCH  13  23
TORSDOF 8
