REMARK  Name = 40533398
REMARK  4 active torsions:
REMARK  status: ('A' for Active; 'I' for Inactive)
REMARK    1  A    between atoms: N_2  and  C_13
REMARK    2  A    between atoms: N_4  and  C_25
REMARK    3  A    between atoms: C_13  and  C_16
REMARK    4  A    between atoms: C_17  and  C_22
REMARK                            x       y       z     vdW  Elec       q    Type
REMARK                         _______ _______ _______ _____ _____    ______ ____
ROOT
ATOM      1  O   UNL     1       2.475   1.179   1.717  0.00  0.00    -0.267 OA
ATOM      2  N   UNL     1      -2.332   1.727   0.392  0.00  0.00    -0.297 NA
ATOM      3  N   UNL     1       0.841   2.050   0.300  0.00  0.00    -0.311 N 
ATOM      6  C   UNL     1      -0.953   3.696   1.103  0.00  0.00    +0.024 C 
ATOM      7  C   UNL     1      -0.918   2.985  -1.240  0.00  0.00    +0.050 C 
ATOM      8  C   UNL     1      -0.912   4.210  -0.330  0.00  0.00    +0.017 C 
ATOM      9  C   UNL     1      -2.226   2.854   1.326  0.00  0.00    +0.090 C 
ATOM     10  C   UNL     1      -2.213   2.173  -1.004  0.00  0.00    +0.094 C 
ATOM     11  C   UNL     1       0.333   2.907   1.382  0.00  0.00    +0.130 C 
ATOM     12  C   UNL     1       0.303   2.120  -0.987  0.00  0.00    +0.026 A 
ATOM     14  C   UNL     1       0.854   1.413  -1.986  0.00  0.00    +0.022 A 
ATOM     15  C   UNL     1       1.953   1.240   0.602  0.00  0.00    +0.259 A 
ATOM     17  C   UNL     1       2.527   0.432  -0.530  0.00  0.00    +0.048 A 
ATOM     18  C   UNL     1       1.978   0.553  -1.748  0.00  0.00    +0.015 A 
ENDROOT
BRANCH  17  22
ATOM      5  N   UNL     1       5.931  -1.119  -0.858  0.00  0.00    -0.263 NA
ATOM     22  C   UNL     1       3.662  -0.483  -0.317  0.00  0.00    +0.005 A 
ATOM     26  C   UNL     1       3.573  -1.539   0.583  0.00  0.00    +0.011 A 
ATOM     27  C   UNL     1       4.853  -0.317  -1.006  0.00  0.00    +0.119 A 
ATOM     30  C   UNL     1       4.661  -2.386   0.763  0.00  0.00    +0.020 A 
ATOM     31  C   UNL     1       5.806  -2.135   0.025  0.00  0.00    +0.111 A 
ENDBRANCH  17  22
BRANCH   2  13
ATOM     13  C   UNL     1      -3.574   0.987   0.600  0.00  0.00    +0.121 C 
BRANCH  13  16
ATOM      4  N   UNL     1      -3.842  -2.328  -0.975  0.00  0.00    -0.349 N 
ATOM     16  C   UNL     1      -3.464  -0.438   0.127  0.00  0.00    -0.008 A 
ATOM     19  C   UNL     1      -2.530  -1.412   0.579  0.00  0.00    +0.004 A 
ATOM     20  C   UNL     1      -4.257  -1.031  -0.829  0.00  0.00    +0.091 A 
ATOM     21  C   UNL     1      -2.789  -2.588  -0.127  0.00  0.00    +0.049 A 
ATOM     23  C   UNL     1      -1.486  -1.405   1.526  0.00  0.00    +0.010 A 
ATOM     24  C   UNL     1      -2.053  -3.762   0.066  0.00  0.00    +0.026 A 
ATOM     25  C   UNL     1      -4.438  -3.276  -1.891  0.00  0.00    +0.149 C 
ATOM     28  C   UNL     1      -0.741  -2.572   1.729  0.00  0.00    +0.001 A 
ATOM     29  C   UNL     1      -1.022  -3.732   1.009  0.00  0.00    +0.002 A 
ENDBRANCH  13  16
ENDBRANCH   2  13
TORSDOF 3
