REMARK  Name = 26743165
REMARK  9 active torsions:
REMARK  status: ('A' for Active; 'I' for Inactive)
REMARK    1  A    between atoms: O_4  and  C_20
REMARK    2  A    between atoms: O_4  and  C_26
REMARK    3  A    between atoms: N_6  and  C_19
REMARK    4  A    between atoms: C_8  and  C_14
REMARK    5  A    between atoms: C_9  and  C_13
REMARK    6  A    between atoms: C_13  and  C_15
REMARK    7  A    between atoms: C_14  and  C_16
REMARK    8  A    between atoms: C_18  and  C_20
REMARK    9  A    between atoms: C_19  and  C_21
REMARK                            x       y       z     vdW  Elec       q    Type
REMARK                         _______ _______ _______ _____ _____    ______ ____
ROOT
ATOM      5  N   UNL     1       6.612  -0.393  -0.014  0.00  0.00    -0.316 NA
ATOM      8  C   UNL     1       3.720  -0.121   0.503  0.00  0.00    +0.004 C 
ATOM      9  C   UNL     1       4.311  -1.259  -0.363  0.00  0.00    +0.012 C 
ATOM     10  C   UNL     1       4.800   0.383   1.474  0.00  0.00    +0.019 C 
ATOM     11  C   UNL     1       5.642  -0.845  -1.013  0.00  0.00    +0.085 C 
ATOM     12  C   UNL     1       6.105   0.736   0.763  0.00  0.00    +0.081 C 
ATOM     33  H   UNL     1       7.476  -0.120  -0.482  0.00  0.00    +0.122 HD
ENDROOT
BRANCH   9  13
ATOM     13  C   UNL     1       3.335  -1.776  -1.422  0.00  0.00    +0.064 C 
BRANCH  13  15
ATOM      3  O   UNL     1       0.683  -3.673   0.105  0.00  0.00    -0.356 OA
ATOM      7  N   UNL     1       1.962  -3.554  -0.427  0.00  0.00    -0.083 NA
ATOM     15  C   UNL     1       2.064  -2.274  -0.797  0.00  0.00    +0.084 A 
ATOM     17  C   UNL     1       0.894  -1.544  -0.525  0.00  0.00    +0.074 A 
ATOM     18  C   UNL     1       0.058  -2.470   0.041  0.00  0.00    +0.175 A 
BRANCH  18  20
ATOM     20  C   UNL     1      -1.312  -2.416   0.565  0.00  0.00    +0.306 C 
BRANCH  20   4
ATOM      4  O   UNL     1      -2.221  -2.013  -0.463  0.00  0.00    -0.484 OA
BRANCH   4  26
ATOM     26  C   UNL     1      -3.528  -1.857  -0.094  0.00  0.00    +0.121 A 
ATOM     28  C   UNL     1      -3.912  -2.090   1.227  0.00  0.00    +0.045 A 
ATOM     29  C   UNL     1      -4.478  -1.467  -1.038  0.00  0.00    +0.045 A 
ATOM     30  C   UNL     1      -5.246  -1.931   1.603  0.00  0.00    +0.004 A 
ATOM     31  C   UNL     1      -5.811  -1.308  -0.662  0.00  0.00    +0.004 A 
ATOM     32  C   UNL     1      -6.196  -1.540   0.659  0.00  0.00    +0.000 A 
ENDBRANCH   4  26
ENDBRANCH  20   4
ENDBRANCH  18  20
ENDBRANCH  13  15
ENDBRANCH   9  13
BRANCH   8  14
ATOM     14  C   UNL     1       3.131   1.039  -0.309  0.00  0.00    +0.099 C 
BRANCH  14  16
ATOM      2  O   UNL     1       1.838   1.603   1.657  0.00  0.00    -0.276 OA
ATOM      6  N   UNL     1       1.640   2.912  -0.253  0.00  0.00    -0.311 N 
ATOM     16  C   UNL     1       2.143   1.857   0.495  0.00  0.00    +0.214 C 
ATOM     34  H   UNL     1       1.942   3.026  -1.216  0.00  0.00    +0.149 HD
BRANCH   6  19
ATOM     19  C   UNL     1       0.675   3.855   0.263  0.00  0.00    +0.139 C 
BRANCH  19  21
ATOM      1  F   UNL     1      -4.619   2.180  -0.671  0.00  0.00    -0.205 F 
ATOM     21  C   UNL     1      -0.737   3.409   0.014  0.00  0.00    -0.030 A 
ATOM     22  C   UNL     1      -1.390   3.783  -1.161  0.00  0.00    +0.008 A 
ATOM     23  C   UNL     1      -1.395   2.620   0.957  0.00  0.00    +0.008 A 
ATOM     24  C   UNL     1      -2.701   3.369  -1.392  0.00  0.00    +0.038 A 
ATOM     25  C   UNL     1      -2.707   2.205   0.726  0.00  0.00    +0.038 A 
ATOM     27  C   UNL     1      -3.360   2.580  -0.449  0.00  0.00    +0.123 A 
ENDBRANCH  19  21
ENDBRANCH   6  19
ENDBRANCH  14  16
ENDBRANCH   8  14
TORSDOF 9
