REMARK  Name = 11883404
REMARK  7 active torsions:
REMARK  status: ('A' for Active; 'I' for Inactive)
REMARK    1  A    between atoms: O_6  and  C_15
REMARK    2  A    between atoms: O_6  and  C_19
REMARK    3  A    between atoms: N_9  and  C_14
REMARK    4  A    between atoms: N_10  and  C_20
REMARK    5  A    between atoms: N_11  and  C_21
REMARK    6  A    between atoms: C_20  and  C_22
REMARK    7  A    between atoms: C_25  and  C_28
REMARK                            x       y       z     vdW  Elec       q    Type
REMARK                         _______ _______ _______ _____ _____    ______ ____
ROOT
ATOM      4  O   UNL     1      -1.949   0.802   1.235  0.00  0.00    -0.368 OA
ATOM      5  O   UNL     1      -3.214   2.340  -1.097  0.00  0.00    -0.368 OA
ATOM     12  C   UNL     1      -3.443   1.006  -0.595  0.00  0.00    +0.173 C 
ATOM     13  C   UNL     1      -2.097   0.466  -0.155  0.00  0.00    +0.192 C 
ATOM     14  C   UNL     1      -4.246   1.063   0.683  0.00  0.00    +0.131 C 
ATOM     15  C   UNL     1      -1.135   1.240  -1.023  0.00  0.00    +0.235 C 
ATOM     16  C   UNL     1      -3.179   1.361   1.722  0.00  0.00    +0.185 C 
ATOM     17  C   UNL     1      -1.802   2.594  -1.111  0.00  0.00    +0.207 C 
ENDROOT
BRANCH  14   9
ATOM      7  O   UNL     1      -6.947   0.323  -0.018  0.00  0.00    -0.253 OA
ATOM      9  N   UNL     1      -4.899  -0.196   0.947  0.00  0.00    -0.292 N 
ATOM     10  N   UNL     1      -6.591  -1.756   0.949  0.00  0.00    -0.300 N 
ATOM     18  C   UNL     1      -6.213  -0.469   0.572  0.00  0.00    +0.300 C 
ATOM     29  H   UNL     1      -4.357  -0.942   1.371  0.00  0.00    +0.151 HD
ATOM     30  H   UNL     1      -5.914  -2.344   1.425  0.00  0.00    +0.150 HD
BRANCH  10  20
ATOM     20  C   UNL     1      -7.903  -2.296   0.681  0.00  0.00    +0.102 C 
ATOM     22  C   UNL     1      -8.022  -2.783  -0.748  0.00  0.00    +0.024 C 
ENDBRANCH  10  20
ENDBRANCH  14   9
BRANCH  15   6
ATOM      6  O   UNL     1       0.166   1.323  -0.486  0.00  0.00    -0.442 OA
BRANCH   6  19
ATOM      8  O   UNL     1       0.778  -0.535  -1.670  0.00  0.00    -0.226 OA
ATOM     11  N   UNL     1       2.287   0.585  -0.273  0.00  0.00    -0.251 N 
ATOM     19  C   UNL     1       1.069   0.360  -0.886  0.00  0.00    +0.405 C 
ATOM     31  H   UNL     1       2.334   1.387   0.351  0.00  0.00    +0.158 HD
BRANCH  11  21
ATOM     21  C   UNL     1       3.479  -0.163  -0.406  0.00  0.00    +0.037 A 
ATOM     23  C   UNL     1       4.623   0.217   0.297  0.00  0.00    +0.035 A 
ATOM     24  C   UNL     1       3.511  -1.280  -1.239  0.00  0.00    +0.023 A 
ATOM     25  C   UNL     1       5.799  -0.522   0.166  0.00  0.00    +0.057 A 
ATOM     26  C   UNL     1       4.687  -2.019  -1.371  0.00  0.00    +0.002 A 
ATOM     27  C   UNL     1       5.831  -1.639  -0.668  0.00  0.00    +0.012 A 
BRANCH  25  28
ATOM      1  F   UNL     1       8.097  -0.928   0.693  0.00  0.00    -0.166 F 
ATOM      2  F   UNL     1       7.457   1.143   0.614  0.00  0.00    -0.166 F 
ATOM      3  F   UNL     1       6.834  -0.122   2.269  0.00  0.00    -0.166 F 
ATOM     28  C   UNL     1       7.021  -0.116   0.917  0.00  0.00    +0.417 C 
ENDBRANCH  25  28
ENDBRANCH  11  21
ENDBRANCH   6  19
ENDBRANCH  15   6
TORSDOF 6
