REMARK  Name = 26743712
REMARK  7 active torsions:
REMARK  status: ('A' for Active; 'I' for Inactive)
REMARK    1  A    between atoms: O_4  and  C_17
REMARK    2  A    between atoms: O_6  and  C_28
REMARK    3  A    between atoms: O_6  and  C_29
REMARK    4  A    between atoms: N_7  and  C_11
REMARK    5  A    between atoms: C_10  and  C_11
REMARK    6  A    between atoms: C_12  and  C_21
REMARK    7  A    between atoms: C_22  and  C_23
REMARK                            x       y       z     vdW  Elec       q    Type
REMARK                         _______ _______ _______ _____ _____    ______ ____
ROOT
ATOM      5  O   UNL     1      -1.091  -2.616   1.712  0.00  0.00    -0.336 OA
ATOM      8  N   UNL     1      -0.533  -1.044   0.217  0.00  0.00    -0.190 NA
ATOM      9  N   UNL     1       0.272  -2.360   1.906  0.00  0.00    -0.056 NA
ATOM     21  C   UNL     1      -1.487  -1.800   0.700  0.00  0.00    +0.245 A 
ATOM     22  C   UNL     1       0.527  -1.422   0.989  0.00  0.00    +0.202 A 
ENDROOT
BRANCH  22  23
ATOM     23  C   UNL     1       1.828  -0.845   0.816  0.00  0.00    +0.023 A 
ATOM     24  C   UNL     1       2.036   0.130  -0.160  0.00  0.00    +0.015 A 
ATOM     25  C   UNL     1       2.888  -1.260   1.623  0.00  0.00    +0.015 A 
ATOM     26  C   UNL     1       3.302   0.690  -0.329  0.00  0.00    +0.046 A 
ATOM     27  C   UNL     1       4.154  -0.700   1.454  0.00  0.00    +0.046 A 
ATOM     28  C   UNL     1       4.361   0.275   0.478  0.00  0.00    +0.130 A 
BRANCH  28   6
ATOM      6  O   UNL     1       5.597   0.821   0.314  0.00  0.00    -0.406 OA
BRANCH   6  29
ATOM      1  F   UNL     1       7.572   0.623  -0.760  0.00  0.00    -0.133 F 
ATOM      2  F   UNL     1       5.854  -0.464  -1.560  0.00  0.00    -0.133 F 
ATOM      3  F   UNL     1       5.972   1.735  -1.749  0.00  0.00    -0.133 F 
ATOM     29  C   UNL     1       6.234   0.678  -0.950  0.00  0.00    +0.575 C 
ENDBRANCH   6  29
ENDBRANCH  28   6
ENDBRANCH  22  23
BRANCH  21  12
ATOM      7  N   UNL     1      -3.447  -0.625  -0.287  0.00  0.00    -0.289 NA
ATOM     12  C   UNL     1      -2.942  -1.887   0.293  0.00  0.00    +0.148 C 
ATOM     15  C   UNL     1      -4.498  -0.996  -1.232  0.00  0.00    +0.116 C 
ATOM     16  C   UNL     1      -3.195  -2.949  -0.793  0.00  0.00    +0.061 C 
ATOM     17  C   UNL     1      -3.885  -2.198  -1.925  0.00  0.00    +0.130 C 
BRANCH  17   4
ATOM      4  O   UNL     1      -4.869  -3.009  -2.538  0.00  0.00    -0.390 OA
ATOM     30  H   UNL     1      -4.419  -3.794  -2.894  0.00  0.00    +0.210 HD
ENDBRANCH  17   4
BRANCH   7  11
ATOM     11  C   UNL     1      -3.920   0.320   0.717  0.00  0.00    +0.088 C 
BRANCH  11  10
ATOM     10  C   UNL     1      -3.928   1.743   0.163  0.00  0.00    +0.003 C 
ATOM     13  C   UNL     1      -4.402   2.738   1.231  0.00  0.00    +0.005 C 
ATOM     14  C   UNL     1      -2.538   2.128  -0.363  0.00  0.00    +0.005 C 
ATOM     18  C   UNL     1      -4.368   4.175   0.718  0.00  0.00    +0.000 C 
ATOM     19  C   UNL     1      -2.507   3.567  -0.873  0.00  0.00    +0.000 C 
ATOM     20  C   UNL     1      -2.988   4.551   0.188  0.00  0.00    +0.000 C 
ENDBRANCH  11  10
ENDBRANCH   7  11
ENDBRANCH  21  12
TORSDOF 7
