REMARK  Name = 56775455
REMARK  11 active torsions:
REMARK  status: ('A' for Active; 'I' for Inactive)
REMARK    1  A    between atoms: O_6  and  C_26
REMARK    2  A    between atoms: O_6  and  C_27
REMARK    3  A    between atoms: N_7  and  C_9
REMARK    4  A    between atoms: N_7  and  C_14
REMARK    5  A    between atoms: C_9  and  C_12
REMARK    6  A    between atoms: C_12  and  C_13
REMARK    7  A    between atoms: C_14  and  C_18
REMARK    8  A    between atoms: C_15  and  C_17
REMARK    9  A    between atoms: C_15  and  C_19
REMARK   10  A    between atoms: C_15  and  C_20
REMARK   11  A    between atoms: C_15  and  C_21
REMARK                            x       y       z     vdW  Elec       q    Type
REMARK                         _______ _______ _______ _____ _____    ______ ____
ROOT
ATOM      7  N   UNL     1      -0.400   1.200  -0.216  0.00  0.00    -0.302 NA
ATOM     28  H   UNL     1      -0.768   0.355  -0.651  0.00  0.00    +0.123 HD
ENDROOT
BRANCH   7   9
ATOM      4  O   UNL     1      -1.159   4.050  -1.181  0.00  0.00    -0.376 OA
ATOM      9  C   UNL     1      -1.371   2.268  -0.025  0.00  0.00    +0.072 C 
ATOM     10  C   UNL     1      -0.627   3.594   0.083  0.00  0.00    +0.184 C 
ATOM     11  C   UNL     1      -1.815   2.779  -1.391  0.00  0.00    +0.184 C 
BRANCH   9  12
ATOM     12  C   UNL     1      -2.437   1.927   1.025  0.00  0.00    +0.085 C 
BRANCH  12  13
ATOM      5  O   UNL     1      -5.092   0.047  -0.448  0.00  0.00    -0.359 OA
ATOM      8  N   UNL     1      -4.465   1.246  -0.128  0.00  0.00    -0.083 NA
ATOM     13  C   UNL     1      -3.358   0.892   0.530  0.00  0.00    +0.086 A 
ATOM     16  C   UNL     1      -3.234  -0.503   0.655  0.00  0.00    +0.071 A 
ATOM     17  C   UNL     1      -4.349  -0.987   0.023  0.00  0.00    +0.143 A 
BRANCH  17  15
ATOM     15  C   UNL     1      -4.894  -2.400  -0.241  0.00  0.00    +0.023 C 
ATOM     19  C   UNL     1      -6.230  -2.420  -1.019  0.00  0.00    +0.019 C 
ATOM     20  C   UNL     1      -5.139  -3.122   1.102  0.00  0.00    +0.019 C 
ATOM     21  C   UNL     1      -3.871  -3.205  -1.071  0.00  0.00    +0.019 C 
ENDBRANCH  17  15
ENDBRANCH  12  13
ENDBRANCH   9  12
ENDBRANCH   7   9
BRANCH   7  14
ATOM     14  C   UNL     1       0.226   0.867   1.062  0.00  0.00    +0.117 C 
BRANCH  14  18
ATOM     18  C   UNL     1       1.587   0.253   0.875  0.00  0.00    -0.033 A 
ATOM     22  C   UNL     1       1.704  -1.076   0.467  0.00  0.00    +0.008 A 
ATOM     23  C   UNL     1       2.733   1.012   1.111  0.00  0.00    +0.008 A 
ATOM     24  C   UNL     1       2.965  -1.645   0.294  0.00  0.00    +0.046 A 
ATOM     25  C   UNL     1       3.995   0.444   0.938  0.00  0.00    +0.046 A 
ATOM     26  C   UNL     1       4.111  -0.885   0.529  0.00  0.00    +0.130 A 
BRANCH  26   6
ATOM      6  O   UNL     1       5.342  -1.440   0.360  0.00  0.00    -0.406 OA
BRANCH   6  27
ATOM      1  F   UNL     1       7.004  -1.823  -1.119  0.00  0.00    -0.133 F 
ATOM      2  F   UNL     1       5.530  -0.285  -1.605  0.00  0.00    -0.133 F 
ATOM      3  F   UNL     1       7.025   0.064  -0.015  0.00  0.00    -0.133 F 
ATOM     27  C   UNL     1       6.221  -0.853  -0.594  0.00  0.00    +0.575 C 
ENDBRANCH   6  27
ENDBRANCH  26   6
ENDBRANCH  14  18
ENDBRANCH   7  14
TORSDOF 8
