REMARK  Name = 40777056
REMARK  10 active torsions:
REMARK  status: ('A' for Active; 'I' for Inactive)
REMARK    1  A    between atoms: S_2  and  C_24
REMARK    2  A    between atoms: S_2  and  C_29
REMARK    3  A    between atoms: O_4  and  C_30
REMARK    4  A    between atoms: N_7  and  C_17
REMARK    5  A    between atoms: C_11  and  C_18
REMARK    6  A    between atoms: C_12  and  C_17
REMARK    7  A    between atoms: C_20  and  C_23
REMARK    8  A    between atoms: C_21  and  C_24
REMARK    9  A    between atoms: C_22  and  C_25
REMARK   10  A    between atoms: C_29  and  C_30
REMARK                            x       y       z     vdW  Elec       q    Type
REMARK                         _______ _______ _______ _____ _____    ______ ____
ROOT
ATOM      6  N   UNL     1      -0.705   2.464   0.970  0.00  0.00    -0.297 NA
ATOM     10  C   UNL     1      -0.397   0.086   1.987  0.00  0.00    +0.002 C 
ATOM     11  C   UNL     1       0.981   0.700   1.611  0.00  0.00    +0.055 C 
ATOM     12  C   UNL     1      -1.613   1.500   0.293  0.00  0.00    +0.074 C 
ATOM     13  C   UNL     1      -1.299   0.055   0.735  0.00  0.00    +0.024 C 
ATOM     14  C   UNL     1      -1.054   1.052   2.996  0.00  0.00    +0.019 C 
ATOM     15  C   UNL     1       0.704   2.018   0.833  0.00  0.00    +0.094 C 
ATOM     16  C   UNL     1      -1.048   2.476   2.412  0.00  0.00    +0.085 C 
ENDROOT
BRANCH  11  18
ATOM      8  N   UNL     1       1.610  -1.454   0.637  0.00  0.00    -0.237 NA
ATOM      9  N   UNL     1       3.769  -1.827  -0.367  0.00  0.00    -0.232 NA
ATOM     18  C   UNL     1       1.993  -0.188   0.902  0.00  0.00    +0.050 A 
ATOM     19  C   UNL     1       3.231   0.325   0.569  0.00  0.00    +0.052 A 
ATOM     20  C   UNL     1       4.086  -0.549  -0.071  0.00  0.00    +0.081 A 
ATOM     22  C   UNL     1       2.533  -2.208   0.010  0.00  0.00    +0.127 A 
ATOM     25  C   UNL     1       2.146  -3.614  -0.301  0.00  0.00    +0.088 C 
BRANCH  20  23
ATOM      1  S   UNL     1       6.651  -1.322  -0.526  0.00  0.00    -0.095 S 
ATOM     23  C   UNL     1       5.407  -0.146  -0.474  0.00  0.00    +0.038 A 
ATOM     26  C   UNL     1       5.859   1.101  -0.846  0.00  0.00    +0.017 A 
ATOM     27  C   UNL     1       7.244   1.091  -1.178  0.00  0.00    +0.008 A 
ATOM     28  C   UNL     1       7.799  -0.163  -1.047  0.00  0.00    +0.046 A 
ENDBRANCH  20  23
ENDBRANCH  11  18
BRANCH  12  17
ATOM     17  C   UNL     1      -1.589   1.649  -1.229  0.00  0.00    +0.123 C 
BRANCH  17   7
ATOM      3  O   UNL     1      -4.349   2.271  -1.839  0.00  0.00    -0.275 OA
ATOM      7  N   UNL     1      -2.556   0.790  -1.841  0.00  0.00    -0.313 N 
ATOM     21  C   UNL     1      -3.872   1.169  -2.101  0.00  0.00    +0.223 C 
ATOM     31  H   UNL     1      -2.258  -0.149  -2.087  0.00  0.00    +0.149 HD
BRANCH  21  24
ATOM     24  C   UNL     1      -4.698   0.075  -2.736  0.00  0.00    +0.165 C 
BRANCH  24   2
ATOM      2  S   UNL     1      -6.115  -0.283  -1.670  0.00  0.00    -0.140 S 
BRANCH   2  29
ATOM     29  C   UNL     1      -5.281  -1.333  -0.457  0.00  0.00    +0.189 C 
BRANCH  29  30
ATOM      5  O   UNL     1      -7.464  -1.946   0.359  0.00  0.00    -0.250 OA
ATOM     30  C   UNL     1      -6.271  -1.783   0.579  0.00  0.00    +0.315 C 
BRANCH  30   4
ATOM      4  O   UNL     1      -5.699  -2.006   1.789  0.00  0.00    -0.480 OA
ATOM     32  H   UNL     1      -6.355  -2.305   2.454  0.00  0.00    +0.295 HD
ENDBRANCH  30   4
ENDBRANCH  29  30
ENDBRANCH   2  29
ENDBRANCH  24   2
ENDBRANCH  21  24
ENDBRANCH  17   7
ENDBRANCH  12  17
TORSDOF 9
