REMARK  Name = 45360628
REMARK  12 active torsions:
REMARK  status: ('A' for Active; 'I' for Inactive)
REMARK    1  A    between atoms: N_5  and  C_9
REMARK    2  A    between atoms: N_5  and  C_17
REMARK    3  A    between atoms: N_6  and  C_22
REMARK    4  A    between atoms: N_7  and  C_25
REMARK    5  A    between atoms: N_7  and  C_28
REMARK    6  A    between atoms: N_7  and  C_29
REMARK    7  A    between atoms: C_10  and  C_15
REMARK    8  A    between atoms: C_15  and  C_16
REMARK    9  A    between atoms: C_16  and  C_18
REMARK   10  A    between atoms: C_17  and  C_19
REMARK   11  A    between atoms: C_22  and  C_26
REMARK   12  A    between atoms: C_22  and  C_27
REMARK                            x       y       z     vdW  Elec       q    Type
REMARK                         _______ _______ _______ _____ _____    ______ ____
ROOT
ATOM      1  O   UNL     1      -0.597  -4.974  -0.399  0.00  0.00    -0.274 OA
ATOM      3  N   UNL     1      -2.071  -1.635  -0.316  0.00  0.00    -0.286 NA
ATOM      4  N   UNL     1      -2.146  -4.102   1.019  0.00  0.00    -0.313 N 
ATOM      8  C   UNL     1      -1.385  -2.773  -0.943  0.00  0.00    +0.145 C 
ATOM      9  C   UNL     1       0.041  -0.823  -0.701  0.00  0.00    +0.070 C 
ATOM     10  C   UNL     1      -3.264  -1.996   0.441  0.00  0.00    +0.075 C 
ATOM     11  C   UNL     1       0.029  -2.252  -1.244  0.00  0.00    +0.048 C 
ATOM     12  C   UNL     1      -1.051  -0.837   0.360  0.00  0.00    +0.104 C 
ATOM     13  C   UNL     1      -2.929  -3.002   1.532  0.00  0.00    +0.123 C 
ATOM     14  C   UNL     1      -1.323  -4.028  -0.078  0.00  0.00    +0.230 C 
ATOM     30  H   UNL     1      -2.111  -4.951   1.575  0.00  0.00    +0.149 HD
ENDROOT
BRANCH   9   5
ATOM      5  N   UNL     1       1.341  -0.418  -0.189  0.00  0.00    -0.308 NA
ATOM     31  H   UNL     1       1.218   0.379   0.436  0.00  0.00    +0.123 HD
BRANCH   5  17
ATOM     17  C   UNL     1       2.234  -0.035  -1.275  0.00  0.00    +0.116 C 
BRANCH  17  19
ATOM     19  C   UNL     1       3.591   0.374  -0.766  0.00  0.00    -0.033 A 
ATOM     20  C   UNL     1       3.766   1.625  -0.175  0.00  0.00    +0.007 A 
ATOM     21  C   UNL     1       4.673  -0.498  -0.887  0.00  0.00    +0.007 A 
ATOM     23  C   UNL     1       5.023   2.004   0.296  0.00  0.00    +0.023 A 
ATOM     24  C   UNL     1       5.930  -0.118  -0.416  0.00  0.00    +0.023 A 
ATOM     25  C   UNL     1       6.105   1.133   0.175  0.00  0.00    +0.029 A 
BRANCH  25   7
ATOM      7  N   UNL     1       7.376   1.516   0.652  0.00  0.00    -0.336 N 
ATOM     28  C   UNL     1       7.568   2.814   1.268  0.00  0.00    +0.129 C 
ATOM     29  C   UNL     1       8.505   0.614   0.538  0.00  0.00    +0.129 C 
ENDBRANCH  25   7
ENDBRANCH  17  19
ENDBRANCH   5  17
ENDBRANCH   9   5
BRANCH  10  15
ATOM     15  C   UNL     1      -3.991  -0.781   1.018  0.00  0.00    +0.029 C 
BRANCH  15  16
ATOM     16  C   UNL     1      -4.290   0.247  -0.064  0.00  0.00    +0.097 C 
BRANCH  16  18
ATOM      2  O   UNL     1      -5.283   1.606   1.676  0.00  0.00    -0.276 OA
ATOM      6  N   UNL     1      -5.261   2.402  -0.504  0.00  0.00    -0.313 N 
ATOM     18  C   UNL     1      -4.994   1.473   0.490  0.00  0.00    +0.213 C 
ATOM     32  H   UNL     1      -4.930   2.228  -1.449  0.00  0.00    +0.149 HD
BRANCH   6  22
ATOM     22  C   UNL     1      -5.926   3.654  -0.230  0.00  0.00    +0.067 C 
ATOM     26  C   UNL     1      -6.758   4.085  -1.431  0.00  0.00    +0.027 C 
ATOM     27  C   UNL     1      -4.913   4.725   0.153  0.00  0.00    +0.027 C 
ENDBRANCH   6  22
ENDBRANCH  16  18
ENDBRANCH  15  16
ENDBRANCH  10  15
TORSDOF 8
