REMARK  Name = 51136820
REMARK  5 active torsions:
REMARK  status: ('A' for Active; 'I' for Inactive)
REMARK    1  A    between atoms: N_3  and  C_10
REMARK    2  A    between atoms: N_4  and  C_20
REMARK    3  A    between atoms: C_11  and  C_19
REMARK    4  A    between atoms: C_21  and  C_24
REMARK    5  A    between atoms: C_30  and  C_32
REMARK                            x       y       z     vdW  Elec       q    Type
REMARK                         _______ _______ _______ _____ _____    ______ ____
ROOT
ATOM      1  O   UNL     1      -3.138   2.736   0.004  0.00  0.00    -0.336 OA
ATOM      5  N   UNL     1      -1.493   1.296   0.488  0.00  0.00    -0.190 NA
ATOM      6  N   UNL     1      -1.972   3.276  -0.552  0.00  0.00    -0.056 NA
ATOM     19  C   UNL     1      -2.768   1.572   0.598  0.00  0.00    +0.245 A 
ATOM     21  C   UNL     1      -1.046   2.370  -0.225  0.00  0.00    +0.202 A 
ENDROOT
BRANCH  21  24
ATOM      2  O   UNL     1       6.302  -2.742   2.136  0.00  0.00    -0.276 OA
ATOM      7  N   UNL     1       3.487   0.730  -0.232  0.00  0.00    -0.312 N 
ATOM      8  N   UNL     1       5.327  -1.369   0.534  0.00  0.00    -0.299 N 
ATOM      9  N   UNL     1       3.021   2.776  -1.315  0.00  0.00    -0.240 NA
ATOM     22  C   UNL     1       3.309  -0.017   1.017  0.00  0.00    +0.125 C 
ATOM     23  C   UNL     1       4.668   0.441  -1.049  0.00  0.00    +0.125 C 
ATOM     24  C   UNL     1       0.334   2.508  -0.594  0.00  0.00    +0.027 A 
ATOM     25  C   UNL     1       4.650  -0.540   1.528  0.00  0.00    +0.126 C 
ATOM     26  C   UNL     1       5.109  -1.012  -0.869  0.00  0.00    +0.126 C 
ATOM     27  C   UNL     1       2.575   1.714  -0.608  0.00  0.00    +0.122 A 
ATOM     28  C   UNL     1       1.255   1.534  -0.226  0.00  0.00    +0.055 A 
ATOM     29  C   UNL     1       0.754   3.616  -1.321  0.00  0.00    +0.031 A 
ATOM     30  C   UNL     1       6.117  -2.439   0.955  0.00  0.00    +0.213 C 
ATOM     31  C   UNL     1       2.096   3.703  -1.654  0.00  0.00    +0.113 A 
ATOM     32  C   UNL     1       6.775  -3.251  -0.134  0.00  0.00    +0.109 C 
ENDBRANCH  21  24
BRANCH  19  11
ATOM      3  N   UNL     1      -3.583  -0.665   1.323  0.00  0.00    -0.288 NA
ATOM     11  C   UNL     1      -3.865   0.784   1.282  0.00  0.00    +0.146 C 
ATOM     12  C   UNL     1      -4.245  -1.181   2.521  0.00  0.00    +0.085 C 
ATOM     15  C   UNL     1      -4.057   1.187   2.755  0.00  0.00    +0.030 C 
ATOM     16  C   UNL     1      -3.925  -0.109   3.543  0.00  0.00    +0.017 C 
BRANCH   3  10
ATOM      4  N   UNL     1      -3.330  -2.996  -2.222  0.00  0.00    -0.305 NA
ATOM     10  C   UNL     1      -4.006  -1.369   0.115  0.00  0.00    +0.060 C 
ATOM     13  C   UNL     1      -3.337  -0.776  -1.128  0.00  0.00    +0.034 C 
ATOM     14  C   UNL     1      -3.673  -2.859   0.226  0.00  0.00    +0.034 C 
ATOM     17  C   UNL     1      -3.693  -1.581  -2.381  0.00  0.00    +0.085 C 
ATOM     18  C   UNL     1      -4.019  -3.596  -1.071  0.00  0.00    +0.085 C 
ATOM     20  C   UNL     1      -3.631  -3.742  -3.444  0.00  0.00    +0.104 C 
ENDBRANCH   3  10
ENDBRANCH  19  11
TORSDOF 3
