REMARK  Name = 26742300
REMARK  9 active torsions:
REMARK  status: ('A' for Active; 'I' for Inactive)
REMARK    1  A    between atoms: S_1  and  C_23
REMARK    2  A    between atoms: S_1  and  C_25
REMARK    3  A    between atoms: S_2  and  C_26
REMARK    4  A    between atoms: S_2  and  C_28
REMARK    5  A    between atoms: O_6  and  C_27
REMARK    6  A    between atoms: N_10  and  C_21
REMARK    7  A    between atoms: C_20  and  C_23
REMARK    8  A    between atoms: C_24  and  C_26
REMARK    9  A    between atoms: C_25  and  C_27
REMARK                            x       y       z     vdW  Elec       q    Type
REMARK                         _______ _______ _______ _____ _____    ______ ____
ROOT
ATOM      3  O   UNL     1       0.197   2.829   1.228  0.00  0.00    -0.266 OA
ATOM      4  O   UNL     1      -2.627  -1.484   2.670  0.00  0.00    -0.275 OA
ATOM      8  N   UNL     1      -3.236  -0.773   0.543  0.00  0.00    -0.300 N 
ATOM      9  N   UNL     1      -1.317   1.690  -0.141  0.00  0.00    -0.310 N 
ATOM     11  C   UNL     1      -3.834   1.641   0.319  0.00  0.00    +0.027 C 
ATOM     12  C   UNL     1      -2.923   0.426  -1.614  0.00  0.00    +0.054 C 
ATOM     13  C   UNL     1      -3.965   1.458  -1.188  0.00  0.00    +0.018 C 
ATOM     14  C   UNL     1      -4.082   0.309   1.048  0.00  0.00    +0.113 C 
ATOM     15  C   UNL     1      -2.449   2.220   0.631  0.00  0.00    +0.130 C 
ATOM     16  C   UNL     1      -3.213  -0.919  -0.920  0.00  0.00    +0.117 C 
ATOM     17  C   UNL     1      -1.520   0.891  -1.270  0.00  0.00    +0.027 A 
ATOM     18  C   UNL     1      -0.477   0.514  -2.028  0.00  0.00    +0.024 A 
ATOM     19  C   UNL     1      -0.030   2.112   0.252  0.00  0.00    +0.273 A 
ATOM     20  C   UNL     1      -2.595  -1.624   1.444  0.00  0.00    +0.225 C 
ATOM     21  C   UNL     1       1.107   1.651  -0.605  0.00  0.00    +0.099 A 
ATOM     22  C   UNL     1       0.862   0.903  -1.686  0.00  0.00    +0.030 A 
ENDROOT
BRANCH  21  10
ATOM      5  O   UNL     1       3.516   0.184  -1.096  0.00  0.00    -0.275 OA
ATOM     10  N   UNL     1       2.370   2.028  -0.251  0.00  0.00    -0.281 N 
ATOM     24  C   UNL     1       3.502   1.273  -0.524  0.00  0.00    +0.227 C 
ATOM     29  H   UNL     1       2.446   2.778   0.431  0.00  0.00    +0.155 HD
BRANCH  24  26
ATOM     26  C   UNL     1       4.771   1.921  -0.023  0.00  0.00    +0.164 C 
BRANCH  26   2
ATOM      2  S   UNL     1       5.582   0.797   1.139  0.00  0.00    -0.155 S 
ATOM     28  C   UNL     1       4.578   1.151   2.601  0.00  0.00    +0.085 C 
ENDBRANCH  26   2
ENDBRANCH  24  26
ENDBRANCH  21  10
BRANCH  20  23
ATOM     23  C   UNL     1      -1.817  -2.772   0.854  0.00  0.00    +0.165 C 
BRANCH  23   1
ATOM      1  S   UNL     1      -0.136  -2.202   0.564  0.00  0.00    -0.140 S 
BRANCH   1  25
ATOM     25  C   UNL     1       0.561  -3.724  -0.125  0.00  0.00    +0.189 C 
BRANCH  25  27
ATOM      7  O   UNL     1       2.737  -2.722   0.135  0.00  0.00    -0.250 OA
ATOM     27  C   UNL     1       2.007  -3.503  -0.462  0.00  0.00    +0.315 C 
BRANCH  27   6
ATOM      6  O   UNL     1       2.429  -4.276  -1.495  0.00  0.00    -0.480 OA
ATOM     30  H   UNL     1       3.377  -4.127  -1.700  0.00  0.00    +0.295 HD
ENDBRANCH  27   6
ENDBRANCH  25  27
ENDBRANCH   1  25
ENDBRANCH  23   1
ENDBRANCH  20  23
TORSDOF 8
