REMARK  Name = 45783758
REMARK  6 active torsions:
REMARK  status: ('A' for Active; 'I' for Inactive)
REMARK    1  A    between atoms: S_1  and  C_21
REMARK    2  A    between atoms: S_1  and  C_25
REMARK    3  A    between atoms: N_5  and  C_15
REMARK    4  A    between atoms: C_11  and  C_16
REMARK    5  A    between atoms: C_15  and  C_17
REMARK    6  A    between atoms: C_20  and  C_24
REMARK                            x       y       z     vdW  Elec       q    Type
REMARK                         _______ _______ _______ _____ _____    ______ ____
ROOT
ATOM      5  N   UNL     1      -3.376   0.154  -0.533  0.00  0.00    -0.287 NA
ATOM     11  C   UNL     1      -3.150  -0.724   0.633  0.00  0.00    +0.146 C 
ATOM     12  C   UNL     1      -4.011  -1.970   0.356  0.00  0.00    +0.030 C 
ATOM     13  C   UNL     1      -4.713  -0.162  -1.035  0.00  0.00    +0.085 C 
ATOM     14  C   UNL     1      -4.729  -1.675  -0.953  0.00  0.00    +0.017 C 
ENDROOT
BRANCH  11  16
ATOM      2  O   UNL     1      -1.152  -0.730   2.040  0.00  0.00    -0.336 OA
ATOM      6  N   UNL     1      -0.842  -1.623   0.010  0.00  0.00    -0.190 NA
ATOM      7  N   UNL     1       0.190  -1.128   1.991  0.00  0.00    -0.056 NA
ATOM     16  C   UNL     1      -1.687  -1.058   0.835  0.00  0.00    +0.245 A 
ATOM     20  C   UNL     1       0.295  -1.645   0.763  0.00  0.00    +0.207 A 
BRANCH  20  24
ATOM      8  N   UNL     1       3.028  -2.701  -1.549  0.00  0.00    -0.220 NA
ATOM      9  N   UNL     1       0.982  -1.606  -2.012  0.00  0.00    -0.342 N 
ATOM     10  N   UNL     1       3.608  -3.306   0.710  0.00  0.00    -0.243 NA
ATOM     24  C   UNL     1       1.522  -2.193   0.259  0.00  0.00    +0.080 A 
ATOM     26  C   UNL     1       1.874  -2.185  -1.075  0.00  0.00    +0.130 A 
ATOM     27  C   UNL     1       2.437  -2.772   1.115  0.00  0.00    +0.127 A 
ATOM     28  C   UNL     1       3.836  -3.237  -0.615  0.00  0.00    +0.223 A 
ATOM     29  H   UNL     1       1.283  -1.611  -2.980  0.00  0.00    +0.144 HD
ATOM     30  H   UNL     1      -0.013  -1.659  -1.837  0.00  0.00    +0.144 HD
ENDBRANCH  20  24
ENDBRANCH  11  16
BRANCH   5  15
ATOM     15  C   UNL     1      -3.228   1.570  -0.222  0.00  0.00    +0.120 C 
BRANCH  15  17
ATOM     17  C   UNL     1      -1.781   1.986  -0.176  0.00  0.00    -0.033 A 
ATOM     18  C   UNL     1      -1.252   2.542   0.988  0.00  0.00    +0.007 A 
ATOM     19  C   UNL     1      -0.970   1.813  -1.298  0.00  0.00    +0.007 A 
ATOM     21  C   UNL     1       0.899   2.755  -0.091  0.00  0.00    +0.088 A 
ATOM     22  C   UNL     1       0.088   2.927   1.030  0.00  0.00    +0.027 A 
ATOM     23  C   UNL     1       0.370   2.198  -1.256  0.00  0.00    +0.027 A 
BRANCH  21   1
ATOM      1  S   UNL     1       2.577   3.233  -0.036  0.00  0.00    -0.006 S 
ATOM      3  O   UNL     1       3.038   3.494  -1.393  0.00  0.00    -0.170 OA
ATOM      4  O   UNL     1       2.717   4.262   0.985  0.00  0.00    -0.170 OA
ATOM     25  C   UNL     1       3.433   1.780   0.530  0.00  0.00    +0.200 C 
ENDBRANCH  21   1
ENDBRANCH  15  17
ENDBRANCH   5  15
TORSDOF 5
