REMARK  Name = 11886156
REMARK  7 active torsions:
REMARK  status: ('A' for Active; 'I' for Inactive)
REMARK    1  A    between atoms: N_7  and  C_16
REMARK    2  A    between atoms: N_8  and  C_17
REMARK    3  A    between atoms: N_10  and  C_27
REMARK    4  A    between atoms: N_13  and  C_33
REMARK    5  A    between atoms: C_20  and  C_22
REMARK    6  A    between atoms: C_27  and  C_29
REMARK    7  A    between atoms: C_36  and  C_39
REMARK                            x       y       z     vdW  Elec       q    Type
REMARK                         _______ _______ _______ _____ _____    ______ ____
ROOT
ATOM      4  O   UNL     1      -1.665  -3.860   0.646  0.00  0.00    -0.370 OA
ATOM      5  O   UNL     1      -1.504  -0.870   1.609  0.00  0.00    -0.370 OA
ATOM     14  C   UNL     1      -1.821  -1.499   0.354  0.00  0.00    +0.176 C 
ATOM     15  C   UNL     1      -0.918  -2.709   0.219  0.00  0.00    +0.171 C 
ATOM     16  C   UNL     1      -3.226  -2.070   0.404  0.00  0.00    +0.168 C 
ATOM     17  C   UNL     1       0.219  -2.437   1.177  0.00  0.00    +0.131 C 
ATOM     18  C   UNL     1      -3.007  -3.470   0.966  0.00  0.00    +0.190 C 
ATOM     19  C   UNL     1      -0.457  -1.609   2.254  0.00  0.00    +0.185 C 
ENDROOT
BRANCH  17   8
ATOM      6  O   UNL     1       2.984  -2.401   1.925  0.00  0.00    -0.252 OA
ATOM      8  N   UNL     1       1.277  -1.695   0.535  0.00  0.00    -0.292 N 
ATOM     13  N   UNL     1       3.405  -0.918   0.154  0.00  0.00    -0.269 N 
ATOM     21  C   UNL     1       2.609  -1.732   0.965  0.00  0.00    +0.304 C 
ATOM     40  H   UNL     1       1.035  -1.063  -0.223  0.00  0.00    +0.151 HD
ATOM     41  H   UNL     1       2.934  -0.430  -0.604  0.00  0.00    +0.156 HD
BRANCH  13  33
ATOM     33  C   UNL     1       4.796  -0.686   0.257  0.00  0.00    +0.035 A 
ATOM     34  C   UNL     1       5.430   0.167  -0.647  0.00  0.00    +0.035 A 
ATOM     35  C   UNL     1       5.534  -1.310   1.263  0.00  0.00    +0.023 A 
ATOM     36  C   UNL     1       6.803   0.395  -0.545  0.00  0.00    +0.057 A 
ATOM     37  C   UNL     1       6.906  -1.082   1.365  0.00  0.00    +0.002 A 
ATOM     38  C   UNL     1       7.541  -0.230   0.461  0.00  0.00    +0.012 A 
BRANCH  36  39
ATOM      1  F   UNL     1       8.823   1.435  -1.292  0.00  0.00    -0.166 F 
ATOM      2  F   UNL     1       7.370   0.904  -2.812  0.00  0.00    -0.166 F 
ATOM      3  F   UNL     1       6.981   2.575  -1.476  0.00  0.00    -0.166 F 
ATOM     39  C   UNL     1       7.481   1.306  -1.511  0.00  0.00    +0.417 C 
ENDBRANCH  36  39
ENDBRANCH  13  33
ENDBRANCH  17   8
BRANCH  16   7
ATOM      7  N   UNL     1      -3.899  -2.021  -0.897  0.00  0.00    -0.217 N 
ATOM      9  N   UNL     1      -3.772  -3.028  -1.773  0.00  0.00    -0.043 NA
ATOM     11  N   UNL     1      -5.079  -1.433  -2.619  0.00  0.00    -0.108 NA
ATOM     12  N   UNL     1      -4.496  -2.663  -2.823  0.00  0.00    -0.023 NA
ATOM     20  C   UNL     1      -4.696  -1.054  -1.421  0.00  0.00    +0.182 A 
BRANCH  20  22
ATOM     22  C   UNL     1      -5.044   0.171  -0.747  0.00  0.00    +0.021 A 
ATOM     28  C   UNL     1      -4.244   1.303  -0.900  0.00  0.00    +0.016 A 
ATOM     29  C   UNL     1      -4.582   2.489  -0.248  0.00  0.00    -0.033 A 
ATOM     30  C   UNL     1      -6.181   0.224   0.059  0.00  0.00    +0.011 A 
ATOM     31  C   UNL     1      -5.720   2.542   0.558  0.00  0.00    +0.005 A 
ATOM     32  C   UNL     1      -6.519   1.410   0.711  0.00  0.00    +0.001 A 
BRANCH  29  27
ATOM     27  C   UNL     1      -3.728   3.700  -0.413  0.00  0.00    +0.119 C 
BRANCH  27  10
ATOM     10  N   UNL     1      -2.675   3.776   0.589  0.00  0.00    -0.298 NA
ATOM     23  C   UNL     1      -1.533   2.922   0.265  0.00  0.00    +0.085 C 
ATOM     24  C   UNL     1      -2.118   5.123   0.712  0.00  0.00    +0.085 C 
ATOM     25  C   UNL     1      -0.443   3.443   1.189  0.00  0.00    +0.017 C 
ATOM     26  C   UNL     1      -0.830   4.889   1.486  0.00  0.00    +0.017 C 
ENDBRANCH  27  10
ENDBRANCH  29  27
ENDBRANCH  20  22
ENDBRANCH  16   7
TORSDOF 7
