REMARK  Name = 45783809
REMARK  9 active torsions:
REMARK  status: ('A' for Active; 'I' for Inactive)
REMARK    1  A    between atoms: O_2  and  C_15
REMARK    2  A    between atoms: O_2  and  C_24
REMARK    3  A    between atoms: N_3  and  C_12
REMARK    4  A    between atoms: N_7  and  C_26
REMARK    5  A    between atoms: N_7  and  C_27
REMARK    6  A    between atoms: N_7  and  C_28
REMARK    7  A    between atoms: C_8  and  C_13
REMARK    8  A    between atoms: C_12  and  C_14
REMARK    9  A    between atoms: C_17  and  C_20
REMARK                            x       y       z     vdW  Elec       q    Type
REMARK                         _______ _______ _______ _____ _____    ______ ____
ROOT
ATOM      3  N   UNL     1      -3.410  -0.894  -0.521  0.00  0.00    -0.287 NA
ATOM      8  C   UNL     1      -2.827  -1.690   0.578  0.00  0.00    +0.146 C 
ATOM      9  C   UNL     1      -2.939  -3.151   0.104  0.00  0.00    +0.030 C 
ATOM     10  C   UNL     1      -3.651  -3.080  -1.239  0.00  0.00    +0.017 C 
ATOM     11  C   UNL     1      -4.388  -1.758  -1.183  0.00  0.00    +0.085 C 
ENDROOT
BRANCH   8  13
ATOM      1  O   UNL     1      -1.156  -0.897   2.175  0.00  0.00    -0.336 OA
ATOM      4  N   UNL     1      -0.354  -1.254   0.115  0.00  0.00    -0.190 NA
ATOM      5  N   UNL     1       0.206  -0.576   2.227  0.00  0.00    -0.056 NA
ATOM     13  C   UNL     1      -1.403  -1.286   0.897  0.00  0.00    +0.245 A 
ATOM     17  C   UNL     1       0.609  -0.812   0.975  0.00  0.00    +0.204 A 
BRANCH  17  20
ATOM      6  N   UNL     1       4.228   0.036   1.101  0.00  0.00    -0.240 NA
ATOM     20  C   UNL     1       1.966  -0.618   0.551  0.00  0.00    +0.041 A 
ATOM     22  C   UNL     1       2.351  -0.874  -0.760  0.00  0.00    +0.016 A 
ATOM     23  C   UNL     1       2.933  -0.168   1.435  0.00  0.00    +0.124 A 
ATOM     25  C   UNL     1       3.673  -0.677  -1.142  0.00  0.00    +0.044 A 
ATOM     26  C   UNL     1       4.564  -0.224  -0.182  0.00  0.00    +0.121 A 
BRANCH  26   7
ATOM      7  N   UNL     1       5.908  -0.029  -0.586  0.00  0.00    -0.321 N 
ATOM     27  C   UNL     1       6.304  -0.298  -1.951  0.00  0.00    +0.130 C 
ATOM     28  C   UNL     1       6.891   0.449   0.361  0.00  0.00    +0.130 C 
ENDBRANCH  26   7
ENDBRANCH  17  20
ENDBRANCH   8  13
BRANCH   3  12
ATOM     12  C   UNL     1      -4.001   0.359  -0.071  0.00  0.00    +0.124 C 
BRANCH  12  14
ATOM     14  C   UNL     1      -2.958   1.421   0.160  0.00  0.00    +0.008 A 
ATOM     15  C   UNL     1      -2.114   1.826  -0.874  0.00  0.00    +0.124 A 
ATOM     16  C   UNL     1      -2.842   2.000   1.423  0.00  0.00    +0.008 A 
ATOM     18  C   UNL     1      -1.152   2.810  -0.644  0.00  0.00    +0.046 A 
ATOM     19  C   UNL     1      -1.881   2.984   1.653  0.00  0.00    +0.001 A 
ATOM     21  C   UNL     1      -1.036   3.389   0.620  0.00  0.00    +0.004 A 
BRANCH  15   2
ATOM      2  O   UNL     1      -2.213   1.270  -2.114  0.00  0.00    -0.495 OA
ATOM     24  C   UNL     1      -1.309   1.744  -3.110  0.00  0.00    +0.277 C 
ENDBRANCH  15   2
ENDBRANCH  12  14
ENDBRANCH   3  12
TORSDOF 6
