REMARK  Name = 11866214
REMARK  4 active torsions:
REMARK  status: ('A' for Active; 'I' for Inactive)
REMARK    1  A    between atoms: C_10  and  C_18
REMARK    2  A    between atoms: C_15  and  C_22
REMARK    3  A    between atoms: C_17  and  C_23
REMARK    4  A    between atoms: C_25  and  C_26
REMARK                            x       y       z     vdW  Elec       q    Type
REMARK                         _______ _______ _______ _____ _____    ______ ____
ROOT
ATOM      2  S   UNL     1      -0.817  -2.315   0.403  0.00  0.00    -0.057 S 
ATOM      4  O   UNL     1       4.701   1.833   0.178  0.00  0.00    -0.461 OA
ATOM      5  O   UNL     1       6.586   3.130   0.413  0.00  0.00    -0.251 OA
ATOM      6  O   UNL     1      -3.230   1.628  -0.146  0.00  0.00    -0.270 OA
ATOM      7  N   UNL     1      -0.627   0.229  -0.021  0.00  0.00    -0.229 NA
ATOM      8  N   UNL     1      -2.850  -0.669   0.220  0.00  0.00    -0.261 N 
ATOM      9  C   UNL     1       3.179  -0.176   0.143  0.00  0.00    +0.045 C 
ATOM     10  C   UNL     1       3.164  -1.670  -0.404  0.00  0.00    -0.021 C 
ATOM     11  C   UNL     1       4.463   0.523  -0.339  0.00  0.00    +0.184 C 
ATOM     12  C   UNL     1       5.686  -0.230   0.148  0.00  0.00    +0.044 C 
ATOM     13  C   UNL     1       4.498  -2.398  -0.053  0.00  0.00    +0.008 C 
ATOM     14  C   UNL     1       5.759  -1.619  -0.453  0.00  0.00    +0.008 C 
ATOM     15  C   UNL     1       1.859   0.606  -0.195  0.00  0.00    +0.043 C 
ATOM     16  C   UNL     1       1.993  -2.448   0.272  0.00  0.00    +0.051 C 
ATOM     17  C   UNL     1       6.779   0.766  -0.189  0.00  0.00    +0.101 C 
ATOM     18  C   UNL     1       2.977  -1.728  -1.944  0.00  0.00    +0.012 C 
ATOM     19  C   UNL     1       0.658  -0.281   0.022  0.00  0.00    +0.057 A 
ATOM     20  C   UNL     1       0.738  -1.646   0.220  0.00  0.00    +0.015 A 
ATOM     21  C   UNL     1       6.061   2.054   0.171  0.00  0.00    +0.311 C 
ATOM     22  C   UNL     1       1.720   1.899   0.620  0.00  0.00    +0.014 C 
ATOM     23  C   UNL     1       8.048   0.560   0.617  0.00  0.00    +0.019 C 
ATOM     24  C   UNL     1      -1.484  -0.749   0.176  0.00  0.00    +0.165 A 
ATOM     25  C   UNL     1      -3.630   0.488   0.060  0.00  0.00    +0.250 C 
ATOM     32  H   UNL     1      -3.302  -1.570   0.339  0.00  0.00    +0.157 HD
ENDROOT
BRANCH  25  26
ATOM      1 CL   UNL     1      -8.363   2.035  -1.315  0.00  0.00    -0.081 Cl
ATOM      3  F   UNL     1      -9.150  -0.319   0.308  0.00  0.00    -0.204 F 
ATOM     26  C   UNL     1      -5.101   0.278   0.124  0.00  0.00    +0.039 A 
ATOM     27  C   UNL     1      -5.928   1.154  -0.547  0.00  0.00    +0.036 A 
ATOM     28  C   UNL     1      -5.588  -0.788   0.850  0.00  0.00    +0.016 A 
ATOM     29  C   UNL     1      -7.307   0.955  -0.488  0.00  0.00    +0.077 A 
ATOM     30  C   UNL     1      -6.968  -0.987   0.909  0.00  0.00    +0.040 A 
ATOM     31  C   UNL     1      -7.827  -0.115   0.240  0.00  0.00    +0.142 A 
ENDBRANCH  25  26
TORSDOF 1
