REMARK  Name = 75536724
REMARK  9 active torsions:
REMARK  status: ('A' for Active; 'I' for Inactive)
REMARK    1  A    between atoms: O_2  and  C_11
REMARK    2  A    between atoms: N_5  and  C_9
REMARK    3  A    between atoms: N_5  and  C_10
REMARK    4  A    between atoms: N_7  and  C_18
REMARK    5  A    between atoms: N_8  and  C_22
REMARK    6  A    between atoms: C_12  and  C_18
REMARK    7  A    between atoms: C_19  and  C_20
REMARK    8  A    between atoms: C_22  and  C_23
REMARK    9  A    between atoms: C_22  and  C_24
REMARK                            x       y       z     vdW  Elec       q    Type
REMARK                         _______ _______ _______ _____ _____    ______ ____
ROOT
ATOM      1  O   UNL     1       1.456   0.516   1.240  0.00  0.00    -0.371 OA
ATOM      9  C   UNL     1      -0.569   0.525  -0.000  0.00  0.00    +0.111 C 
ATOM     11  C   UNL     1       0.522   1.173  -0.831  0.00  0.00    +0.164 C 
ATOM     12  C   UNL     1       1.771   0.619  -0.159  0.00  0.00    +0.165 C 
ATOM     15  C   UNL     1       0.029   0.602   1.395  0.00  0.00    +0.181 C 
ENDROOT
BRANCH  11   2
ATOM      2  O   UNL     1       0.456   0.813  -2.197  0.00  0.00    -0.388 OA
ATOM     26  H   UNL     1       0.488  -0.157  -2.260  0.00  0.00    +0.210 HD
ENDBRANCH  11   2
BRANCH   9   5
ATOM      5  N   UNL     1      -1.856   1.195  -0.102  0.00  0.00    -0.306 NA
ATOM     25  H   UNL     1      -2.050   1.437  -1.073  0.00  0.00    +0.123 HD
BRANCH   5  10
ATOM      3  O   UNL     1      -7.170  -1.735  -1.095  0.00  0.00    -0.276 OA
ATOM      6  N   UNL     1      -5.633  -0.662   0.278  0.00  0.00    -0.302 N 
ATOM     10  C   UNL     1      -2.924   0.349   0.424  0.00  0.00    +0.057 C 
ATOM     13  C   UNL     1      -4.126   1.211   0.831  0.00  0.00    +0.037 C 
ATOM     14  C   UNL     1      -3.340  -0.689  -0.626  0.00  0.00    +0.037 C 
ATOM     16  C   UNL     1      -5.293   0.340   1.296  0.00  0.00    +0.109 C 
ATOM     17  C   UNL     1      -4.521  -1.522  -0.131  0.00  0.00    +0.109 C 
ATOM     19  C   UNL     1      -6.901  -0.861  -0.266  0.00  0.00    +0.212 C 
ATOM     20  C   UNL     1      -7.992   0.067   0.205  0.00  0.00    +0.109 C 
ENDBRANCH   5  10
ENDBRANCH   9   5
BRANCH  12  18
ATOM     18  C   UNL     1       2.995   1.498  -0.346  0.00  0.00    +0.140 C 
BRANCH  18   7
ATOM      4  O   UNL     1       4.920  -0.329  -1.477  0.00  0.00    -0.253 OA
ATOM      7  N   UNL     1       4.143   0.940   0.307  0.00  0.00    -0.297 N 
ATOM      8  N   UNL     1       6.056  -0.330   0.546  0.00  0.00    -0.297 N 
ATOM     21  C   UNL     1       5.031   0.057  -0.315  0.00  0.00    +0.300 C 
ATOM     27  H   UNL     1       4.312   1.188   1.277  0.00  0.00    +0.150 HD
ATOM     28  H   UNL     1       6.104   0.102   1.464  0.00  0.00    +0.150 HD
BRANCH   8  22
ATOM     22  C   UNL     1       7.107  -1.238   0.152  0.00  0.00    +0.068 C 
ATOM     23  C   UNL     1       7.571  -2.061   1.347  0.00  0.00    +0.027 C 
ATOM     24  C   UNL     1       8.266  -0.475  -0.476  0.00  0.00    +0.027 C 
ENDBRANCH   8  22
ENDBRANCH  18   7
ENDBRANCH  12  18
TORSDOF 6
