REMARK  Name = 40780675
REMARK  11 active torsions:
REMARK  status: ('A' for Active; 'I' for Inactive)
REMARK    1  A    between atoms: S_1  and  N_11
REMARK    2  A    between atoms: S_1  and  C_26
REMARK    3  A    between atoms: O_3  and  C_13
REMARK    4  A    between atoms: O_4  and  C_14
REMARK    5  A    between atoms: O_8  and  C_24
REMARK    6  A    between atoms: O_8  and  C_30
REMARK    7  A    between atoms: N_10  and  C_23
REMARK    8  A    between atoms: N_11  and  C_17
REMARK    9  A    between atoms: C_12  and  C_16
REMARK   10  A    between atoms: C_15  and  C_17
REMARK   11  A    between atoms: C_16  and  C_18
REMARK                            x       y       z     vdW  Elec       q    Type
REMARK                         _______ _______ _______ _____ _____    ______ ____
ROOT
ATOM     16  C   UNL     1      -1.327  -2.045   0.381  0.00  0.00    +0.130 C 
ENDROOT
BRANCH  16  18
ATOM      5  O   UNL     1      -0.691  -1.994  -1.902  0.00  0.00    -0.276 OA
ATOM      9  N   UNL     1       1.012  -1.742  -0.344  0.00  0.00    -0.298 N 
ATOM     10  N   UNL     1       3.317  -0.211   0.213  0.00  0.00    -0.324 N 
ATOM     18  C   UNL     1      -0.313  -1.927  -0.729  0.00  0.00    +0.218 C 
ATOM     19  C   UNL     1       1.500  -1.657   1.034  0.00  0.00    +0.126 C 
ATOM     20  C   UNL     1       2.065  -1.641  -1.352  0.00  0.00    +0.126 C 
ATOM     21  C   UNL     1       2.286  -0.364   1.250  0.00  0.00    +0.124 C 
ATOM     22  C   UNL     1       2.857  -0.347  -1.178  0.00  0.00    +0.124 C 
BRANCH  10  23
ATOM     23  C   UNL     1       4.424   0.610   0.455  0.00  0.00    +0.072 A 
ATOM     24  C   UNL     1       5.654   0.337  -0.142  0.00  0.00    +0.141 A 
ATOM     25  C   UNL     1       4.287   1.712   1.300  0.00  0.00    +0.027 A 
ATOM     27  C   UNL     1       6.749   1.165   0.106  0.00  0.00    +0.047 A 
ATOM     28  C   UNL     1       5.382   2.540   1.548  0.00  0.00    +0.002 A 
ATOM     29  C   UNL     1       6.613   2.267   0.952  0.00  0.00    +0.004 A 
BRANCH  24   8
ATOM      8  O   UNL     1       5.808  -0.734  -0.970  0.00  0.00    -0.493 OA
ATOM     30  C   UNL     1       7.102  -0.935  -1.535  0.00  0.00    +0.277 C 
ENDBRANCH  24   8
ENDBRANCH  10  23
ENDBRANCH  16  18
BRANCH  16  12
ATOM      2  O   UNL     1      -3.168  -0.903  -0.650  0.00  0.00    -0.366 OA
ATOM     12  C   UNL     1      -2.722  -2.206  -0.207  0.00  0.00    +0.158 C 
ATOM     13  C   UNL     1      -3.748  -2.686   0.814  0.00  0.00    +0.175 C 
ATOM     14  C   UNL     1      -4.261  -1.380   1.385  0.00  0.00    +0.175 C 
ATOM     15  C   UNL     1      -4.297  -0.500   0.146  0.00  0.00    +0.165 C 
BRANCH  13   3
ATOM      3  O   UNL     1      -4.789  -3.363   0.111  0.00  0.00    -0.387 OA
ATOM     31  H   UNL     1      -4.409  -4.179  -0.257  0.00  0.00    +0.210 HD
ENDBRANCH  13   3
BRANCH  14   4
ATOM      4  O   UNL     1      -5.531  -1.495   1.990  0.00  0.00    -0.387 OA
ATOM     32  H   UNL     1      -5.458  -2.159   2.697  0.00  0.00    +0.210 HD
ENDBRANCH  14   4
BRANCH  15  17
ATOM     17  C   UNL     1      -4.199   0.982   0.458  0.00  0.00    +0.139 C 
BRANCH  17  11
ATOM     11  N   UNL     1      -4.233   1.767  -0.740  0.00  0.00    -0.192 NA
ATOM     33  H   UNL     1      -3.416   1.643  -1.353  0.00  0.00    +0.148 HD
BRANCH  11   1
ATOM      1  S   UNL     1      -4.923   3.351  -0.728  0.00  0.00    +0.027 S 
ATOM      6  O   UNL     1      -6.299   3.263  -0.281  0.00  0.00    -0.158 OA
ATOM      7  O   UNL     1      -4.585   4.040  -1.959  0.00  0.00    -0.158 OA
ATOM     26  C   UNL     1      -3.970   4.095   0.576  0.00  0.00    +0.214 C 
ENDBRANCH  11   1
ENDBRANCH  17  11
ENDBRANCH  15  17
ENDBRANCH  16  12
TORSDOF 9
