REMARK  Name = 51137527
REMARK  7 active torsions:
REMARK  status: ('A' for Active; 'I' for Inactive)
REMARK    1  A    between atoms: N_4  and  C_12
REMARK    2  A    between atoms: N_7  and  C_24
REMARK    3  A    between atoms: N_7  and  C_27
REMARK    4  A    between atoms: N_7  and  C_28
REMARK    5  A    between atoms: C_8  and  C_13
REMARK    6  A    between atoms: C_12  and  C_14
REMARK    7  A    between atoms: C_15  and  C_18
REMARK                            x       y       z     vdW  Elec       q    Type
REMARK                         _______ _______ _______ _____ _____    ______ ____
ROOT
ATOM      4  N   UNL     1      -2.476  -0.934  -0.267  0.00  0.00    -0.297 NA
ATOM      8  C   UNL     1      -0.643  -2.280   0.307  0.00  0.00    +0.092 C 
ATOM      9  C   UNL     1      -1.164  -1.558   1.562  0.00  0.00    +0.029 C 
ATOM     10  C   UNL     1      -1.278  -1.525  -0.868  0.00  0.00    +0.097 C 
ATOM     11  C   UNL     1      -2.034  -0.426   1.032  0.00  0.00    +0.085 C 
ENDROOT
BRANCH   8  13
ATOM      3  O   UNL     1       1.548  -1.196   0.176  0.00  0.00    -0.420 OA
ATOM      5  N   UNL     1       1.633  -3.431   0.138  0.00  0.00    -0.112 NA
ATOM      6  N   UNL     1       2.928  -2.953   0.058  0.00  0.00    -0.107 NA
ATOM     13  C   UNL     1       0.862  -2.371   0.205  0.00  0.00    +0.222 A 
ATOM     15  C   UNL     1       2.830  -1.644   0.083  0.00  0.00    +0.248 A 
BRANCH  15  18
ATOM     18  C   UNL     1       3.846  -0.633   0.030  0.00  0.00    +0.039 A 
ATOM     22  C   UNL     1       5.189  -0.999  -0.065  0.00  0.00    +0.015 A 
ATOM     23  C   UNL     1       3.491   0.715   0.072  0.00  0.00    +0.015 A 
ATOM     24  C   UNL     1       5.822   1.333  -0.075  0.00  0.00    +0.029 A 
ATOM     25  C   UNL     1       6.177  -0.015  -0.117  0.00  0.00    +0.024 A 
ATOM     26  C   UNL     1       4.479   1.698   0.020  0.00  0.00    +0.024 A 
BRANCH  24   7
ATOM      7  N   UNL     1       6.822   2.327  -0.126  0.00  0.00    -0.336 N 
ATOM     27  C   UNL     1       6.463   3.731  -0.090  0.00  0.00    +0.129 C 
ATOM     28  C   UNL     1       8.220   1.957  -0.223  0.00  0.00    +0.129 C 
ENDBRANCH  24   7
ENDBRANCH  15  18
ENDBRANCH   8  13
BRANCH   4  12
ATOM     12  C   UNL     1      -3.060   0.106  -1.100  0.00  0.00    +0.119 C 
BRANCH  12  14
ATOM      1  F   UNL     1      -6.407   2.915   1.074  0.00  0.00    -0.202 F 
ATOM      2  F   UNL     1      -8.399   1.193   0.337  0.00  0.00    -0.202 F 
ATOM     14  C   UNL     1      -4.487   0.396  -0.716  0.00  0.00    -0.030 A 
ATOM     16  C   UNL     1      -4.792   1.544   0.016  0.00  0.00    +0.046 A 
ATOM     17  C   UNL     1      -5.503  -0.482  -1.092  0.00  0.00    +0.008 A 
ATOM     19  C   UNL     1      -6.114   1.813   0.371  0.00  0.00    +0.159 A 
ATOM     20  C   UNL     1      -6.824  -0.213  -0.736  0.00  0.00    +0.041 A 
ATOM     21  C   UNL     1      -7.130   0.934  -0.004  0.00  0.00    +0.158 A 
ENDBRANCH  12  14
ENDBRANCH   4  12
TORSDOF 5
