REMARK  Name = 75536735
REMARK  9 active torsions:
REMARK  status: ('A' for Active; 'I' for Inactive)
REMARK    1  A    between atoms: O_2  and  C_9
REMARK    2  A    between atoms: N_4  and  C_8
REMARK    3  A    between atoms: N_4  and  C_13
REMARK    4  A    between atoms: N_5  and  C_12
REMARK    5  A    between atoms: N_6  and  C_16
REMARK    6  A    between atoms: C_10  and  C_12
REMARK    7  A    between atoms: C_13  and  C_14
REMARK    8  A    between atoms: C_16  and  C_19
REMARK    9  A    between atoms: C_16  and  C_20
REMARK                            x       y       z     vdW  Elec       q    Type
REMARK                         _______ _______ _______ _____ _____    ______ ____
ROOT
ATOM      1  O   UNL     1       3.192   0.588   0.736  0.00  0.00    -0.371 OA
ATOM      8  C   UNL     1       1.963  -1.430   0.898  0.00  0.00    +0.111 C 
ATOM      9  C   UNL     1       2.769  -1.476  -0.388  0.00  0.00    +0.164 C 
ATOM     10  C   UNL     1       3.354  -0.072  -0.534  0.00  0.00    +0.165 C 
ATOM     11  C   UNL     1       2.701  -0.362   1.690  0.00  0.00    +0.181 C 
ENDROOT
BRANCH   9   2
ATOM      2  O   UNL     1       3.836  -2.409  -0.200  0.00  0.00    -0.388 OA
ATOM     24  H   UNL     1       4.368  -2.410  -1.014  0.00  0.00    +0.210 HD
ENDBRANCH   9   2
BRANCH   8   4
ATOM      4  N   UNL     1       0.580  -1.029   0.653  0.00  0.00    -0.305 NA
ATOM     23  H   UNL     1       0.202  -0.587   1.492  0.00  0.00    +0.123 HD
BRANCH   4  13
ATOM     13  C   UNL     1      -0.250  -2.182   0.322  0.00  0.00    +0.118 C 
BRANCH  13  14
ATOM      7  N   UNL     1      -3.832  -1.109   0.911  0.00  0.00    -0.263 NA
ATOM     14  C   UNL     1      -1.677  -1.786   0.050  0.00  0.00    -0.015 A 
ATOM     17  C   UNL     1      -2.169  -1.727  -1.249  0.00  0.00    +0.008 A 
ATOM     18  C   UNL     1      -2.541  -1.470   1.086  0.00  0.00    +0.115 A 
ATOM     21  C   UNL     1      -3.491  -1.359  -1.470  0.00  0.00    +0.020 A 
ATOM     22  C   UNL     1      -4.275  -1.062  -0.366  0.00  0.00    +0.111 A 
ENDBRANCH  13  14
ENDBRANCH   4  13
ENDBRANCH   8   4
BRANCH  10  12
ATOM     12  C   UNL     1       2.663   0.766  -1.599  0.00  0.00    +0.140 C 
BRANCH  12   5
ATOM      3  O   UNL     1       1.452   2.880  -0.054  0.00  0.00    -0.253 OA
ATOM      5  N   UNL     1       1.268   0.934  -1.309  0.00  0.00    -0.297 N 
ATOM      6  N   UNL     1      -0.624   1.911  -0.422  0.00  0.00    -0.297 N 
ATOM     15  C   UNL     1       0.760   1.991  -0.549  0.00  0.00    +0.300 C 
ATOM     25  H   UNL     1       0.617   0.242  -1.667  0.00  0.00    +0.150 HD
ATOM     26  H   UNL     1      -1.099   1.100  -0.806  0.00  0.00    +0.150 HD
BRANCH   6  16
ATOM     16  C   UNL     1      -1.400   2.881   0.316  0.00  0.00    +0.068 C 
ATOM     19  C   UNL     1      -2.782   3.043  -0.304  0.00  0.00    +0.027 C 
ATOM     20  C   UNL     1      -1.495   2.479   1.782  0.00  0.00    +0.027 C 
ENDBRANCH   6  16
ENDBRANCH  12   5
ENDBRANCH  10  12
TORSDOF 7
