REMARK  Name = 75368629
REMARK  7 active torsions:
REMARK  status: ('A' for Active; 'I' for Inactive)
REMARK    1  A    between atoms: O_5  and  C_28
REMARK    2  A    between atoms: O_5  and  C_30
REMARK    3  A    between atoms: N_7  and  C_15
REMARK    4  A    between atoms: N_8  and  C_16
REMARK    5  A    between atoms: C_15  and  C_17
REMARK    6  A    between atoms: C_16  and  C_18
REMARK    7  A    between atoms: C_25  and  C_29
REMARK                            x       y       z     vdW  Elec       q    Type
REMARK                         _______ _______ _______ _____ _____    ______ ____
ROOT
ATOM      4  O   UNL     1       3.245   3.245  -0.348  0.00  0.00    -0.252 OA
ATOM      6  N   UNL     1       1.066   2.380  -0.207  0.00  0.00    -0.278 N 
ATOM      7  N   UNL     1      -1.388   1.621   0.940  0.00  0.00    -0.295 NA
ATOM      8  N   UNL     1       2.591   1.233  -1.391  0.00  0.00    -0.279 N 
ATOM      9  C   UNL     1       0.319   1.292  -0.802  0.00  0.00    +0.109 C 
ATOM     10  C   UNL     1      -0.559   0.613   0.247  0.00  0.00    +0.109 C 
ATOM     11  C   UNL     1       1.401   0.400  -1.408  0.00  0.00    +0.133 C 
ATOM     12  C   UNL     1       0.372   3.347   0.619  0.00  0.00    +0.125 C 
ATOM     13  C   UNL     1      -0.540   2.625   1.614  0.00  0.00    +0.104 C 
ATOM     14  C   UNL     1       2.405   2.397  -0.618  0.00  0.00    +0.305 C 
ENDROOT
BRANCH   7  15
ATOM     15  C   UNL     1      -2.276   0.974   1.905  0.00  0.00    +0.119 C 
BRANCH  15  17
ATOM     17  C   UNL     1      -3.456   0.323   1.232  0.00  0.00    -0.033 A 
ATOM     19  C   UNL     1      -4.516   1.106   0.773  0.00  0.00    +0.005 A 
ATOM     20  C   UNL     1      -3.489  -1.062   1.067  0.00  0.00    +0.005 A 
ATOM     23  C   UNL     1      -5.608   0.504   0.149  0.00  0.00    +0.012 A 
ATOM     24  C   UNL     1      -4.582  -1.664   0.444  0.00  0.00    +0.012 A 
ATOM     25  C   UNL     1      -5.641  -0.881  -0.015  0.00  0.00    +0.055 A 
BRANCH  25  29
ATOM      1  F   UNL     1      -7.466  -2.423   0.105  0.00  0.00    -0.166 F 
ATOM      2  F   UNL     1      -6.477  -2.219  -1.814  0.00  0.00    -0.166 F 
ATOM      3  F   UNL     1      -7.753  -0.621  -1.076  0.00  0.00    -0.166 F 
ATOM     29  C   UNL     1      -6.808  -1.524  -0.685  0.00  0.00    +0.417 C 
ENDBRANCH  25  29
ENDBRANCH  15  17
ENDBRANCH   7  15
BRANCH   8  16
ATOM     16  C   UNL     1       3.837   0.802  -1.984  0.00  0.00    +0.144 C 
BRANCH  16  18
ATOM     18  C   UNL     1       4.606  -0.115  -1.070  0.00  0.00    -0.030 A 
ATOM     21  C   UNL     1       5.300   0.409   0.021  0.00  0.00    +0.009 A 
ATOM     22  C   UNL     1       4.623  -1.488  -1.314  0.00  0.00    +0.009 A 
ATOM     26  C   UNL     1       6.012  -0.441   0.868  0.00  0.00    +0.046 A 
ATOM     27  C   UNL     1       5.334  -2.338  -0.467  0.00  0.00    +0.046 A 
ATOM     28  C   UNL     1       6.029  -1.815   0.623  0.00  0.00    +0.120 A 
BRANCH  28   5
ATOM      5  O   UNL     1       6.722  -2.644   1.450  0.00  0.00    -0.495 OA
ATOM     30  C   UNL     1       6.697  -4.037   1.142  0.00  0.00    +0.277 C 
ENDBRANCH  28   5
ENDBRANCH  16  18
ENDBRANCH   8  16
TORSDOF 6
