REMARK  Name = 7050334
REMARK  7 active torsions:
REMARK  status: ('A' for Active; 'I' for Inactive)
REMARK    1  A    between atoms: S_2  and  C_30
REMARK    2  A    between atoms: S_2  and  C_32
REMARK    3  A    between atoms: O_7  and  C_25
REMARK    4  A    between atoms: O_7  and  C_31
REMARK    5  A    between atoms: N_9  and  C_18
REMARK    6  A    between atoms: N_10  and  C_12
REMARK    7  A    between atoms: C_19  and  C_22
REMARK                            x       y       z     vdW  Elec       q    Type
REMARK                         _______ _______ _______ _____ _____    ______ ____
ROOT
ATOM      4  O   UNL     1      -2.511  -1.334   1.879  0.00  0.00    -0.273 OA
ATOM      5  O   UNL     1      -3.123   1.452  -1.785  0.00  0.00    -0.252 OA
ATOM      8  N   UNL     1      -1.267   0.726  -0.597  0.00  0.00    -0.273 N 
ATOM      9  N   UNL     1      -3.269  -0.052   0.039  0.00  0.00    -0.193 N 
ATOM     11  C   UNL     1      -0.953  -0.101   0.537  0.00  0.00    +0.166 C 
ATOM     12  C   UNL     1       0.914   1.531   1.071  0.00  0.00    +0.077 C 
ATOM     13  C   UNL     1      -0.263   0.710   1.628  0.00  0.00    +0.054 C 
ATOM     14  C   UNL     1       0.492   2.359  -0.155  0.00  0.00    +0.041 C 
ATOM     15  C   UNL     1      -0.214   1.511  -1.215  0.00  0.00    +0.112 C 
ATOM     16  C   UNL     1      -2.340  -0.577   0.931  0.00  0.00    +0.248 C 
ATOM     17  C   UNL     1      -2.630   0.767  -0.897  0.00  0.00    +0.316 C 
ENDROOT
BRANCH   9  18
ATOM      1 CL   UNL     1      -7.720  -0.521  -2.509  0.00  0.00    -0.081 Cl
ATOM      3  F   UNL     1      -8.751  -0.999   0.229  0.00  0.00    -0.204 F 
ATOM     18  C   UNL     1      -4.679  -0.294   0.083  0.00  0.00    +0.047 A 
ATOM     20  C   UNL     1      -5.430  -0.290  -1.095  0.00  0.00    +0.047 A 
ATOM     21  C   UNL     1      -5.312  -0.537   1.306  0.00  0.00    +0.027 A 
ATOM     23  C   UNL     1      -6.804  -0.527  -1.052  0.00  0.00    +0.078 A 
ATOM     24  C   UNL     1      -6.685  -0.774   1.349  0.00  0.00    +0.041 A 
ATOM     27  C   UNL     1      -7.432  -0.769   0.170  0.00  0.00    +0.142 A 
ENDBRANCH   9  18
BRANCH  12  10
ATOM      6  O   UNL     1       3.631   2.263   1.256  0.00  0.00    -0.270 OA
ATOM     10  N   UNL     1       2.041   0.682   0.757  0.00  0.00    -0.308 N 
ATOM     19  C   UNL     1       3.357   1.123   0.876  0.00  0.00    +0.248 C 
ATOM     33  H   UNL     1       1.843  -0.224   0.346  0.00  0.00    +0.149 HD
BRANCH  19  22
ATOM     22  C   UNL     1       4.394   0.134   0.551  0.00  0.00    +0.078 A 
ATOM     25  C   UNL     1       5.615   0.540   0.033  0.00  0.00    +0.133 A 
ATOM     26  C   UNL     1       4.124  -1.210   0.773  0.00  0.00    +0.018 A 
ATOM     28  C   UNL     1       6.586  -0.415  -0.270  0.00  0.00    +0.061 A 
ATOM     29  C   UNL     1       5.094  -2.165   0.470  0.00  0.00    +0.015 A 
ATOM     30  C   UNL     1       6.325  -1.767  -0.051  0.00  0.00    +0.011 A 
BRANCH  30   2
ATOM      2  S   UNL     1       7.565  -2.988  -0.437  0.00  0.00    -0.128 S 
ATOM     32  C   UNL     1       7.806  -2.720  -2.216  0.00  0.00    +0.090 C 
ENDBRANCH  30   2
BRANCH  25   7
ATOM      7  O   UNL     1       5.889   1.857  -0.188  0.00  0.00    -0.494 OA
ATOM     31  C   UNL     1       5.552   2.382  -1.471  0.00  0.00    +0.277 C 
ENDBRANCH  25   7
ENDBRANCH  19  22
ENDBRANCH  12  10
TORSDOF 5
