REMARK  Name = 11882007
REMARK  13 active torsions:
REMARK  status: ('A' for Active; 'I' for Inactive)
REMARK    1  A    between atoms: S_1  and  C_22
REMARK    2  A    between atoms: S_1  and  C_26
REMARK    3  A    between atoms: O_2  and  C_13
REMARK    4  A    between atoms: O_3  and  C_15
REMARK    5  A    between atoms: N_9  and  C_14
REMARK    6  A    between atoms: N_10  and  C_20
REMARK    7  A    between atoms: N_12  and  C_25
REMARK    8  A    between atoms: N_12  and  C_27
REMARK    9  A    between atoms: C_17  and  C_19
REMARK   10  A    between atoms: C_20  and  C_21
REMARK   11  A    between atoms: C_20  and  C_24
REMARK   12  A    between atoms: C_21  and  C_22
REMARK   13  A    between atoms: C_23  and  C_25
REMARK                            x       y       z     vdW  Elec       q    Type
REMARK                         _______ _______ _______ _____ _____    ______ ____
ROOT
ATOM     13  C   UNL     1      -2.432   1.749   0.670  0.00  0.00    +0.167 C 
ATOM     14  C   UNL     1      -2.772   0.697  -0.403  0.00  0.00    +0.127 C 
ATOM     15  C   UNL     1      -1.097   2.443   0.373  0.00  0.00    +0.149 C 
ATOM     16  C   UNL     1       0.059   1.438   0.226  0.00  0.00    +0.074 C 
ATOM     17  C   UNL     1      -0.335   0.179  -0.492  0.00  0.00    +0.015 C 
ATOM     18  C   UNL     1      -1.598  -0.162  -0.788  0.00  0.00    +0.006 C 
ENDROOT
BRANCH  17  19
ATOM      4  O   UNL     1       0.603  -1.428  -1.927  0.00  0.00    -0.271 OA
ATOM     10  N   UNL     1       1.831  -0.708  -0.081  0.00  0.00    -0.300 N 
ATOM     19  C   UNL     1       0.730  -0.734  -0.919  0.00  0.00    +0.241 C 
ATOM     29  H   UNL     1       1.810  -0.175   0.781  0.00  0.00    +0.150 HD
BRANCH  10  20
ATOM     20  C   UNL     1       3.006  -1.523  -0.296  0.00  0.00    +0.160 C 
BRANCH  20  24
ATOM      8  O   UNL     1       2.115  -3.005   1.412  0.00  0.00    -0.274 OA
ATOM     11  N   UNL     1       3.286  -3.925  -0.336  0.00  0.00    -0.328 N 
ATOM     24  C   UNL     1       2.757  -2.868   0.374  0.00  0.00    +0.231 C 
ATOM     32  H   UNL     1       3.178  -4.879  -0.007  0.00  0.00    +0.145 HD
ATOM     33  H   UNL     1       3.811  -3.798  -1.195  0.00  0.00    +0.145 HD
ENDBRANCH  20  24
BRANCH  20  21
ATOM     21  C   UNL     1       4.269  -0.869   0.267  0.00  0.00    +0.054 C 
BRANCH  21  22
ATOM     22  C   UNL     1       4.578   0.465  -0.401  0.00  0.00    +0.168 C 
BRANCH  22   1
ATOM      1  S   UNL     1       6.054   1.181   0.250  0.00  0.00    -0.034 S 
ATOM      6  O   UNL     1       5.833   1.482   1.654  0.00  0.00    -0.175 OA
ATOM      7  O   UNL     1       7.179   0.358  -0.161  0.00  0.00    -0.175 OA
ATOM     26  C   UNL     1       6.177   2.728  -0.617  0.00  0.00    +0.194 C 
ENDBRANCH  22   1
ENDBRANCH  21  22
ENDBRANCH  20  21
ENDBRANCH  10  20
ENDBRANCH  17  19
BRANCH  14   9
ATOM      5  O   UNL     1      -5.603   1.138  -0.804  0.00  0.00    -0.274 OA
ATOM      9  N   UNL     1      -3.857  -0.157   0.014  0.00  0.00    -0.305 N 
ATOM     23  C   UNL     1      -5.194   0.136  -0.222  0.00  0.00    +0.227 C 
ATOM     28  H   UNL     1      -3.631  -0.995   0.543  0.00  0.00    +0.149 HD
BRANCH  23  25
ATOM     25  C   UNL     1      -6.116  -0.920   0.353  0.00  0.00    +0.177 C 
BRANCH  25  12
ATOM     12  N   UNL     1      -7.495  -0.529   0.093  0.00  0.00    -0.311 NA
ATOM     27  C   UNL     1      -8.425  -1.519   0.619  0.00  0.00    +0.101 C 
ATOM     34  H   UNL     1      -7.683   0.370   0.535  0.00  0.00    +0.122 HD
ENDBRANCH  25  12
ENDBRANCH  23  25
ENDBRANCH  14   9
BRANCH  13   2
ATOM      2  O   UNL     1      -2.346   1.118   1.950  0.00  0.00    -0.387 OA
ATOM     30  H   UNL     1      -3.201   0.687   2.118  0.00  0.00    +0.210 HD
ENDBRANCH  13   2
BRANCH  15   3
ATOM      3  O   UNL     1      -1.208   3.236  -0.807  0.00  0.00    -0.389 OA
ATOM     31  H   UNL     1      -1.286   2.642  -1.571  0.00  0.00    +0.210 HD
ENDBRANCH  15   3
TORSDOF 11
