REMARK  Name = 7682015
REMARK  5 active torsions:
REMARK  status: ('A' for Active; 'I' for Inactive)
REMARK    1  A    between atoms: N_7  and  C_16
REMARK    2  A    between atoms: N_9  and  C_29
REMARK    3  A    between atoms: C_12  and  C_17
REMARK    4  A    between atoms: C_20  and  C_24
REMARK    5  A    between atoms: C_22  and  C_25
REMARK                            x       y       z     vdW  Elec       q    Type
REMARK                         _______ _______ _______ _____ _____    ______ ____
ROOT
ATOM      2  O   UNL     1      -0.755   3.925  -1.265  0.00  0.00    -0.268 OA
ATOM      4  O   UNL     1       2.764  -1.510   1.743  0.00  0.00    -0.268 OA
ATOM      5  N   UNL     1       1.912   0.315   0.548  0.00  0.00    -0.282 N 
ATOM      6  N   UNL     1       0.022   2.435   0.326  0.00  0.00    -0.293 N 
ATOM     12  C   UNL     1       0.547   0.122   1.052  0.00  0.00    +0.179 C 
ATOM     13  C   UNL     1      -0.177   1.429   1.378  0.00  0.00    +0.140 C 
ATOM     14  C   UNL     1       2.107   1.393  -0.438  0.00  0.00    +0.128 C 
ATOM     15  C   UNL     1       1.423   2.682  -0.002  0.00  0.00    +0.127 C 
ATOM     20  C   UNL     1      -0.994   3.113  -0.370  0.00  0.00    +0.263 C 
ATOM     22  C   UNL     1       2.903  -0.603   0.923  0.00  0.00    +0.267 C 
ENDROOT
BRANCH  20  24
ATOM      9  N   UNL     1      -3.317   2.307  -0.850  0.00  0.00    -0.346 N 
ATOM     24  C   UNL     1      -2.372   2.816   0.003  0.00  0.00    +0.104 A 
ATOM     26  C   UNL     1      -2.964   2.986   1.235  0.00  0.00    +0.032 A 
ATOM     27  C   UNL     1      -4.502   2.149  -0.181  0.00  0.00    +0.086 A 
ATOM     28  C   UNL     1      -4.312   2.564   1.119  0.00  0.00    +0.020 A 
ATOM     29  C   UNL     1      -3.111   1.980  -2.244  0.00  0.00    +0.149 C 
ENDBRANCH  20  24
BRANCH  22  25
ATOM     10  N   UNL     1       4.261  -0.636  -1.052  0.00  0.00    -0.247 NA
ATOM     11  N   UNL     1       6.580  -0.184   0.460  0.00  0.00    -0.259 NA
ATOM     25  C   UNL     1       4.224  -0.501   0.288  0.00  0.00    +0.144 A 
ATOM     30  C   UNL     1       5.363  -0.279   1.031  0.00  0.00    +0.143 A 
ATOM     31  C   UNL     1       5.479  -0.541  -1.623  0.00  0.00    +0.131 A 
ATOM     32  C   UNL     1       6.617  -0.319  -0.880  0.00  0.00    +0.130 A 
ENDBRANCH  22  25
BRANCH  12  17
ATOM      1  O   UNL     1       0.066  -0.530  -1.196  0.00  0.00    -0.274 OA
ATOM      7  N   UNL     1      -1.137  -1.505   0.543  0.00  0.00    -0.302 N 
ATOM     17  C   UNL     1      -0.180  -0.665   0.000  0.00  0.00    +0.236 C 
ATOM     33  H   UNL     1      -1.247  -1.542   1.552  0.00  0.00    +0.150 HD
BRANCH   7  16
ATOM      3  O   UNL     1      -3.828  -1.444   1.015  0.00  0.00    -0.274 OA
ATOM      8  N   UNL     1      -4.076  -3.571   0.220  0.00  0.00    -0.314 N 
ATOM     16  C   UNL     1      -1.986  -2.350  -0.255  0.00  0.00    +0.159 C 
ATOM     18  C   UNL     1      -1.339  -3.709  -0.485  0.00  0.00    +0.033 C 
ATOM     19  C   UNL     1      -2.326  -4.635  -1.176  0.00  0.00    +0.021 C 
ATOM     21  C   UNL     1      -3.539  -4.822  -0.283  0.00  0.00    +0.104 C 
ATOM     23  C   UNL     1      -3.353  -2.412   0.418  0.00  0.00    +0.233 C 
ATOM     34  H   UNL     1      -5.011  -3.601   0.615  0.00  0.00    +0.149 HD
ENDBRANCH   7  16
ENDBRANCH  12  17
TORSDOF 4
