REMARK  Name = 38030943
REMARK  14 active torsions:
REMARK  status: ('A' for Active; 'I' for Inactive)
REMARK    1  A    between atoms: O_2  and  C_23
REMARK    2  A    between atoms: O_2  and  C_26
REMARK    3  A    between atoms: N_5  and  C_16
REMARK    4  A    between atoms: N_5  and  C_22
REMARK    5  A    between atoms: N_8  and  C_31
REMARK    6  A    between atoms: C_9  and  C_13
REMARK    7  A    between atoms: C_10  and  C_16
REMARK    8  A    between atoms: C_12  and  C_17
REMARK    9  A    between atoms: C_13  and  C_18
REMARK   10  A    between atoms: C_13  and  C_19
REMARK   11  A    between atoms: C_14  and  C_20
REMARK   12  A    between atoms: C_17  and  C_21
REMARK   13  A    between atoms: C_22  and  C_23
REMARK   14  A    between atoms: C_24  and  C_25
REMARK                            x       y       z     vdW  Elec       q    Type
REMARK                         _______ _______ _______ _____ _____    ______ ____
ROOT
ATOM      9  C   UNL     1       2.062   0.650  -1.415  0.00  0.00    +0.000 C 
ATOM     10  C   UNL     1       3.608   0.693  -1.502  0.00  0.00    +0.029 C 
ATOM     11  C   UNL     1       1.508   2.030  -1.028  0.00  0.00    +0.012 C 
ATOM     12  C   UNL     1       2.061   2.522   0.323  0.00  0.00    +0.024 C 
ATOM     14  C   UNL     1       3.563   2.345   0.415  0.00  0.00    -0.073 C 
ATOM     15  C   UNL     1       4.239   1.534  -0.417  0.00  0.00    -0.023 C 
ATOM     20  C   UNL     1       4.278   3.158   1.459  0.00  0.00    +0.039 C 
ENDROOT
BRANCH   9  13
ATOM     13  C   UNL     1       1.430   0.188  -2.731  0.00  0.00    -0.013 C 
ATOM     18  C   UNL     1       0.051  -0.413  -2.477  0.00  0.00    +0.007 C 
ATOM     19  C   UNL     1       1.341   1.350  -3.715  0.00  0.00    +0.007 C 
ENDBRANCH   9  13
BRANCH  10  16
ATOM     16  C   UNL     1       4.203  -0.719  -1.465  0.00  0.00    +0.088 C 
BRANCH  16   5
ATOM      5  N   UNL     1       3.933  -1.356  -0.188  0.00  0.00    -0.313 NA
ATOM     32  H   UNL     1       4.324  -0.809   0.578  0.00  0.00    +0.122 HD
BRANCH   5  22
ATOM     22  C   UNL     1       4.487  -2.704  -0.146  0.00  0.00    +0.109 C 
BRANCH  22  23
ATOM     23  C   UNL     1       4.161  -3.378   1.178  0.00  0.00    +0.174 C 
BRANCH  23   2
ATOM      2  O   UNL     1       4.704  -4.692   1.167  0.00  0.00    -0.382 OA
ATOM     26  C   UNL     1       4.451  -5.370   2.390  0.00  0.00    +0.194 C 
ENDBRANCH  23   2
ENDBRANCH  22  23
ENDBRANCH   5  22
ENDBRANCH  16   5
ENDBRANCH  10  16
BRANCH  12  17
ATOM     17  C   UNL     1       1.354   1.830   1.494  0.00  0.00    +0.105 C 
BRANCH  17  21
ATOM      1  O   UNL     1      -0.878   0.973   1.001  0.00  0.00    -0.420 OA
ATOM      6  N   UNL     1      -0.849   3.087   1.734  0.00  0.00    -0.112 NA
ATOM      7  N   UNL     1      -2.164   2.735   1.496  0.00  0.00    -0.107 NA
ATOM     21  C   UNL     1      -0.133   2.029   1.432  0.00  0.00    +0.218 A 
ATOM     24  C   UNL     1      -2.133   1.494   1.070  0.00  0.00    +0.248 A 
BRANCH  24  25
ATOM     25  C   UNL     1      -3.198   0.619   0.674  0.00  0.00    +0.039 A 
ATOM     27  C   UNL     1      -4.519   1.065   0.712  0.00  0.00    +0.015 A 
ATOM     28  C   UNL     1      -2.913  -0.679   0.251  0.00  0.00    +0.015 A 
ATOM     29  C   UNL     1      -5.555   0.214   0.327  0.00  0.00    +0.033 A 
ATOM     30  C   UNL     1      -3.949  -1.531  -0.134  0.00  0.00    +0.033 A 
ATOM     31  C   UNL     1      -5.269  -1.084  -0.096  0.00  0.00    +0.126 A 
BRANCH  31   8
ATOM      3  O   UNL     1      -7.504  -1.528  -0.451  0.00  0.00    -0.126 OA
ATOM      4  O   UNL     1      -6.045  -3.114  -0.868  0.00  0.00    -0.126 OA
ATOM      8  N   UNL     1      -6.323  -1.950  -0.490  0.00  0.00    +0.056 N 
ENDBRANCH  31   8
ENDBRANCH  24  25
ENDBRANCH  17  21
ENDBRANCH  12  17
TORSDOF 10
