REMARK  Name = 25314503
REMARK  6 active torsions:
REMARK  status: ('A' for Active; 'I' for Inactive)
REMARK    1  A    between atoms: O_3  and  C_9
REMARK    2  A    between atoms: N_5  and  C_8
REMARK    3  A    between atoms: N_6  and  C_10
REMARK    4  A    between atoms: N_7  and  C_21
REMARK    5  A    between atoms: C_15  and  C_19
REMARK    6  A    between atoms: C_19  and  C_22
REMARK                            x       y       z     vdW  Elec       q    Type
REMARK                         _______ _______ _______ _____ _____    ______ ____
ROOT
ATOM      1  O   UNL     1       2.271  -2.598  -1.512  0.00  0.00    -0.342 OA
ATOM      2  O   UNL     1       2.576  -4.387  -0.068  0.00  0.00    -0.347 OA
ATOM      8  C   UNL     1       0.984  -2.665   0.526  0.00  0.00    +0.143 C 
ATOM      9  C   UNL     1       2.084  -1.875   1.270  0.00  0.00    +0.159 C 
ATOM     10  C   UNL     1       3.235  -1.409   0.351  0.00  0.00    +0.136 C 
ATOM     11  C   UNL     1       1.595  -3.493  -0.620  0.00  0.00    +0.270 C 
ATOM     12  C   UNL     1       3.504  -2.375  -0.822  0.00  0.00    +0.170 C 
ATOM     16  C   UNL     1       3.841  -3.791  -0.394  0.00  0.00    +0.196 C 
ENDROOT
BRANCH  10   6
ATOM      4  O   UNL     1       3.922   1.089   1.596  0.00  0.00    -0.253 OA
ATOM      6  N   UNL     1       2.961  -0.083  -0.159  0.00  0.00    -0.291 N 
ATOM      7  N   UNL     1       2.952   2.212  -0.189  0.00  0.00    -0.297 N 
ATOM     20  C   UNL     1       3.333   1.073   0.516  0.00  0.00    +0.300 C 
ATOM     33  H   UNL     1       2.408   0.005  -1.007  0.00  0.00    +0.151 HD
ATOM     35  H   UNL     1       2.405   2.085  -1.035  0.00  0.00    +0.151 HD
BRANCH   7  21
ATOM     21  C   UNL     1       3.210   3.556   0.277  0.00  0.00    +0.074 C 
ATOM     23  C   UNL     1       3.440   4.512  -0.898  0.00  0.00    +0.022 C 
ATOM     24  C   UNL     1       2.079   4.051   1.184  0.00  0.00    +0.022 C 
ATOM     25  C   UNL     1       2.154   4.809  -1.670  0.00  0.00    +0.002 C 
ATOM     26  C   UNL     1       0.796   4.349   0.409  0.00  0.00    +0.002 C 
ATOM     27  C   UNL     1       1.047   5.311  -0.748  0.00  0.00    +0.000 C 
ENDBRANCH   7  21
ENDBRANCH  10   6
BRANCH   8   5
ATOM      5  N   UNL     1      -0.022  -1.746  -0.009  0.00  0.00    -0.293 NA
ATOM     13  C   UNL     1      -0.950  -1.327   1.051  0.00  0.00    +0.085 C 
ATOM     14  C   UNL     1      -0.743  -2.368  -1.128  0.00  0.00    +0.085 C 
ATOM     15  C   UNL     1      -2.748  -0.895  -0.674  0.00  0.00    -0.004 C 
ATOM     17  C   UNL     1      -1.977  -0.324   0.520  0.00  0.00    +0.019 C 
ATOM     18  C   UNL     1      -1.762  -1.401  -1.733  0.00  0.00    +0.019 C 
BRANCH  15  19
ATOM     19  C   UNL     1      -3.699   0.144  -1.262  0.00  0.00    +0.038 C 
BRANCH  19  22
ATOM     22  C   UNL     1      -4.954   0.273  -0.443  0.00  0.00    -0.047 A 
ATOM     28  C   UNL     1      -6.061  -0.524  -0.732  0.00  0.00    +0.003 A 
ATOM     29  C   UNL     1      -5.011   1.191   0.606  0.00  0.00    +0.003 A 
ATOM     30  C   UNL     1      -7.225  -0.404   0.027  0.00  0.00    +0.000 A 
ATOM     31  C   UNL     1      -6.175   1.311   1.365  0.00  0.00    +0.000 A 
ATOM     32  C   UNL     1      -7.282   0.514   1.076  0.00  0.00    +0.000 A 
ENDBRANCH  19  22
ENDBRANCH  15  19
ENDBRANCH   8   5
BRANCH   9   3
ATOM      3  O   UNL     1       2.624  -2.728   2.288  0.00  0.00    -0.388 OA
ATOM     34  H   UNL     1       3.272  -2.209   2.794  0.00  0.00    +0.210 HD
ENDBRANCH   9   3
TORSDOF 6
