REMARK  Name = 45361598
REMARK  13 active torsions:
REMARK  status: ('A' for Active; 'I' for Inactive)
REMARK    1  A    between atoms: O_2  and  C_11
REMARK    2  A    between atoms: O_5  and  C_26
REMARK    3  A    between atoms: O_5  and  C_29
REMARK    4  A    between atoms: N_6  and  C_15
REMARK    5  A    between atoms: N_7  and  C_25
REMARK    6  A    between atoms: C_8  and  C_18
REMARK    7  A    between atoms: C_10  and  C_20
REMARK    8  A    between atoms: C_14  and  C_19
REMARK    9  A    between atoms: C_19  and  C_21
REMARK   10  A    between atoms: C_19  and  C_22
REMARK   11  A    between atoms: C_23  and  C_24
REMARK   12  A    between atoms: C_24  and  C_26
REMARK   13  A    between atoms: C_25  and  C_27
REMARK                            x       y       z     vdW  Elec       q    Type
REMARK                         _______ _______ _______ _____ _____    ______ ____
ROOT
ATOM      8  C   UNL     1       0.442  -0.448  -1.610  0.00  0.00    -0.027 C 
ATOM      9  C   UNL     1       0.684  -0.611  -0.072  0.00  0.00    +0.028 C 
ATOM     10  C   UNL     1       2.163  -1.051   0.218  0.00  0.00    +0.012 C 
ATOM     11  C   UNL     1      -0.417  -1.496   0.581  0.00  0.00    +0.122 C 
ATOM     12  C   UNL     1      -0.987   0.094  -1.853  0.00  0.00    +0.007 C 
ATOM     13  C   UNL     1       1.441   0.592  -2.169  0.00  0.00    +0.009 C 
ATOM     14  C   UNL     1      -1.847  -1.010   0.247  0.00  0.00    +0.029 C 
ATOM     15  C   UNL     1       3.160  -0.039  -0.414  0.00  0.00    +0.076 C 
ATOM     16  C   UNL     1      -2.069  -0.791  -1.249  0.00  0.00    +0.007 C 
ATOM     17  C   UNL     1       2.894   0.231  -1.895  0.00  0.00    +0.023 C 
ATOM     18  C   UNL     1       0.607  -1.781  -2.382  0.00  0.00    +0.011 C 
ATOM     20  C   UNL     1       2.479  -1.203   1.715  0.00  0.00    +0.010 C 
ENDROOT
BRANCH  15   6
ATOM      4  O   UNL     1       5.491   1.635  -0.107  0.00  0.00    -0.276 OA
ATOM      6  N   UNL     1       4.533  -0.474  -0.267  0.00  0.00    -0.312 N 
ATOM     23  C   UNL     1       5.589   0.411  -0.125  0.00  0.00    +0.215 C 
ATOM     32  H   UNL     1       4.728  -1.469  -0.334  0.00  0.00    +0.149 HD
BRANCH  23  24
ATOM     24  C   UNL     1       6.914  -0.323   0.012  0.00  0.00    +0.124 C 
BRANCH  24  26
ATOM     26  C   UNL     1       8.100   0.617   0.171  0.00  0.00    +0.168 C 
BRANCH  26   5
ATOM      5  O   UNL     1       7.940   1.383   1.357  0.00  0.00    -0.382 OA
ATOM     29  C   UNL     1       9.030   2.272   1.554  0.00  0.00    +0.194 C 
ENDBRANCH  26   5
ENDBRANCH  24  26
ENDBRANCH  23  24
ENDBRANCH  15   6
BRANCH  11   2
ATOM      2  O   UNL     1      -0.289  -1.445   2.002  0.00  0.00    -0.391 OA
ATOM     33  H   UNL     1      -0.393  -0.520   2.282  0.00  0.00    +0.210 HD
ENDBRANCH  11   2
BRANCH  14  19
ATOM     19  C   UNL     1      -2.914  -1.968   0.789  0.00  0.00    +0.077 C 
ATOM     21  C   UNL     1      -2.726  -3.357   0.190  0.00  0.00    +0.017 C 
BRANCH  19  22
ATOM      3  O   UNL     1      -4.928  -1.704  -0.529  0.00  0.00    -0.276 OA
ATOM      7  N   UNL     1      -4.769  -0.574   1.490  0.00  0.00    -0.310 N 
ATOM     22  C   UNL     1      -4.306  -1.418   0.491  0.00  0.00    +0.216 C 
ATOM     34  H   UNL     1      -4.175  -0.373   2.289  0.00  0.00    +0.149 HD
BRANCH   7  25
ATOM     25  C   UNL     1      -6.061   0.070   1.432  0.00  0.00    +0.146 C 
BRANCH  25  27
ATOM      1  S   UNL     1      -7.371   1.938  -0.152  0.00  0.00    -0.100 S 
ATOM     27  C   UNL     1      -6.000   1.387   0.713  0.00  0.00    +0.007 A 
ATOM     28  C   UNL     1      -4.949   2.274   0.636  0.00  0.00    +0.013 A 
ATOM     30  C   UNL     1      -5.274   3.421  -0.143  0.00  0.00    +0.008 A 
ATOM     31  C   UNL     1      -6.560   3.368  -0.632  0.00  0.00    +0.045 A 
ENDBRANCH  25  27
ENDBRANCH   7  25
ENDBRANCH  19  22
ENDBRANCH  14  19
TORSDOF 9
