REMARK  Name = 40777983
REMARK  11 active torsions:
REMARK  status: ('A' for Active; 'I' for Inactive)
REMARK    1  A    between atoms: O_2  and  C_11
REMARK    2  A    between atoms: O_3  and  C_12
REMARK    3  A    between atoms: N_7  and  C_21
REMARK    4  A    between atoms: N_8  and  C_15
REMARK    5  A    between atoms: N_9  and  C_33
REMARK    6  A    between atoms: N_9  and  C_34
REMARK    7  A    between atoms: N_9  and  C_35
REMARK    8  A    between atoms: C_10  and  C_14
REMARK    9  A    between atoms: C_13  and  C_15
REMARK   10  A    between atoms: C_14  and  C_16
REMARK   11  A    between atoms: C_22  and  C_25
REMARK                            x       y       z     vdW  Elec       q    Type
REMARK                         _______ _______ _______ _____ _____    ______ ____
ROOT
ATOM      1  O   UNL     1      -4.079   0.841   0.814  0.00  0.00    -0.366 OA
ATOM     10  C   UNL     1      -3.761   1.763  -0.254  0.00  0.00    +0.159 C 
ATOM     11  C   UNL     1      -4.712   1.436  -1.401  0.00  0.00    +0.175 C 
ATOM     12  C   UNL     1      -4.974  -0.040  -1.182  0.00  0.00    +0.176 C 
ATOM     13  C   UNL     1      -5.040  -0.116   0.334  0.00  0.00    +0.167 C 
ENDROOT
BRANCH  11   2
ATOM      2  O   UNL     1      -5.911   2.185  -1.208  0.00  0.00    -0.387 OA
ATOM     36  H   UNL     1      -5.691   3.124  -1.334  0.00  0.00    +0.210 HD
ENDBRANCH  11   2
BRANCH  12   3
ATOM      3  O   UNL     1      -6.166  -0.492  -1.788  0.00  0.00    -0.387 OA
ATOM     37  H   UNL     1      -6.103  -0.296  -2.738  0.00  0.00    +0.210 HD
ENDBRANCH  12   3
BRANCH  10  14
ATOM     14  C   UNL     1      -2.297   1.565  -0.620  0.00  0.00    +0.130 C 
BRANCH  14  16
ATOM      4  O   UNL     1      -1.931   2.857   1.339  0.00  0.00    -0.276 OA
ATOM      6  N   UNL     1      -0.040   2.111   0.213  0.00  0.00    -0.298 N 
ATOM      7  N   UNL     1       2.824   1.729   0.034  0.00  0.00    -0.327 N 
ATOM     16  C   UNL     1      -1.416   2.238   0.405  0.00  0.00    +0.218 C 
ATOM     17  C   UNL     1       0.570   1.375  -0.897  0.00  0.00    +0.126 C 
ATOM     18  C   UNL     1       0.880   2.728   1.166  0.00  0.00    +0.126 C 
ATOM     19  C   UNL     1       2.007   1.814  -1.179  0.00  0.00    +0.124 C 
ATOM     20  C   UNL     1       2.163   1.917   1.328  0.00  0.00    +0.124 C 
BRANCH   7  21
ATOM     21  C   UNL     1       4.198   1.511  -0.038  0.00  0.00    +0.030 A 
ATOM     23  C   UNL     1       4.920   1.971  -1.140  0.00  0.00    +0.023 A 
ATOM     24  C   UNL     1       4.852   0.834   0.991  0.00  0.00    +0.023 A 
ATOM     26  C   UNL     1       6.296   1.754  -1.212  0.00  0.00    +0.002 A 
ATOM     27  C   UNL     1       6.228   0.617   0.919  0.00  0.00    +0.002 A 
ATOM     28  C   UNL     1       6.950   1.077  -0.182  0.00  0.00    +0.000 A 
ENDBRANCH   7  21
ENDBRANCH  14  16
ENDBRANCH  10  14
BRANCH  13  15
ATOM     15  C   UNL     1      -4.708  -1.493   0.882  0.00  0.00    +0.138 C 
BRANCH  15   8
ATOM      5  O   UNL     1      -2.289  -1.008   2.351  0.00  0.00    -0.270 OA
ATOM      8  N   UNL     1      -3.384  -1.894   0.508  0.00  0.00    -0.309 N 
ATOM     22  C   UNL     1      -2.263  -1.615   1.284  0.00  0.00    +0.244 C 
ATOM     38  H   UNL     1      -3.297  -2.449  -0.337  0.00  0.00    +0.149 HD
BRANCH  22  25
ATOM     25  C   UNL     1      -0.958  -2.077   0.743  0.00  0.00    +0.037 A 
ATOM     29  C   UNL     1       0.094  -2.366   1.613  0.00  0.00    +0.015 A 
ATOM     30  C   UNL     1      -0.784  -2.220  -0.633  0.00  0.00    +0.015 A 
ATOM     31  C   UNL     1       1.319  -2.799   1.106  0.00  0.00    +0.024 A 
ATOM     32  C   UNL     1       0.441  -2.653  -1.141  0.00  0.00    +0.024 A 
ATOM     33  C   UNL     1       1.492  -2.943  -0.271  0.00  0.00    +0.029 A 
BRANCH  33   9
ATOM      9  N   UNL     1       2.731  -3.381  -0.784  0.00  0.00    -0.336 N 
ATOM     34  C   UNL     1       3.830  -3.685   0.111  0.00  0.00    +0.129 C 
ATOM     35  C   UNL     1       2.918  -3.541  -2.213  0.00  0.00    +0.129 C 
ENDBRANCH  33   9
ENDBRANCH  22  25
ENDBRANCH  15   8
ENDBRANCH  13  15
TORSDOF 9
