REMARK  Name = 7155460
REMARK  5 active torsions:
REMARK  status: ('A' for Active; 'I' for Inactive)
REMARK    1  A    between atoms: O_3  and  C_28
REMARK    2  A    between atoms: N_4  and  C_13
REMARK    3  A    between atoms: C_13  and  C_18
REMARK    4  A    between atoms: C_14  and  C_19
REMARK    5  A    between atoms: C_23  and  C_28
REMARK                            x       y       z     vdW  Elec       q    Type
REMARK                         _______ _______ _______ _____ _____    ______ ____
ROOT
ATOM      1  O   UNL     1      -1.822   3.017  -2.665  0.00  0.00    -0.268 OA
ATOM      4  N   UNL     1       0.922   1.728   1.283  0.00  0.00    -0.294 NA
ATOM      5  N   UNL     1      -1.583   1.808  -0.673  0.00  0.00    -0.311 N 
ATOM      6  C   UNL     1      -1.218   2.988   1.577  0.00  0.00    +0.024 C 
ATOM      7  C   UNL     1      -1.274   0.544   1.476  0.00  0.00    +0.051 C 
ATOM      8  C   UNL     1      -1.896   1.759   2.159  0.00  0.00    +0.017 C 
ATOM      9  C   UNL     1       0.301   2.936   1.837  0.00  0.00    +0.090 C 
ATOM     10  C   UNL     1       0.246   0.515   1.763  0.00  0.00    +0.094 C 
ATOM     11  C   UNL     1      -1.553   3.067   0.086  0.00  0.00    +0.130 C 
ATOM     12  C   UNL     1      -1.544   0.552  -0.034  0.00  0.00    +0.034 A 
ATOM     14  C   UNL     1      -1.724  -0.583  -0.762  0.00  0.00    +0.002 A 
ATOM     15  C   UNL     1      -1.767   1.946  -2.060  0.00  0.00    +0.252 A 
ATOM     16  C   UNL     1      -1.911  -0.477  -2.198  0.00  0.00    +0.015 A 
ATOM     17  C   UNL     1      -1.922   0.694  -2.833  0.00  0.00    +0.071 A 
ENDROOT
BRANCH  14  19
ATOM     19  C   UNL     1      -1.712  -1.873  -0.129  0.00  0.00    -0.016 A 
ATOM     21  C   UNL     1      -0.512  -2.562   0.015  0.00  0.00    +0.008 A 
ATOM     22  C   UNL     1      -2.902  -2.425   0.338  0.00  0.00    +0.008 A 
ATOM     25  C   UNL     1      -0.501  -3.814   0.630  0.00  0.00    +0.001 A 
ATOM     26  C   UNL     1      -2.891  -3.676   0.953  0.00  0.00    +0.001 A 
ATOM     27  C   UNL     1      -1.690  -4.371   1.099  0.00  0.00    +0.000 A 
ENDBRANCH  14  19
BRANCH   4  13
ATOM     13  C   UNL     1       2.350   1.687   1.586  0.00  0.00    +0.158 C 
BRANCH  13  18
ATOM      2  O   UNL     1       2.691   0.297  -0.344  0.00  0.00    -0.461 OA
ATOM     18  C   UNL     1       3.027   0.508   0.939  0.00  0.00    +0.119 A 
ATOM     20  C   UNL     1       3.920  -0.392   1.407  0.00  0.00    +0.046 A 
ATOM     23  C   UNL     1       3.403  -0.796  -0.725  0.00  0.00    +0.131 A 
ATOM     24  C   UNL     1       4.175  -1.256   0.316  0.00  0.00    +0.047 A 
BRANCH  23  28
ATOM     28  C   UNL     1       3.214  -1.244  -2.112  0.00  0.00    +0.230 C 
BRANCH  28   3
ATOM      3  O   UNL     1       4.176  -0.576  -2.930  0.00  0.00    -0.387 OA
ATOM     29  H   UNL     1       3.957   0.372  -2.924  0.00  0.00    +0.210 HD
ENDBRANCH  28   3
ENDBRANCH  23  28
ENDBRANCH  13  18
ENDBRANCH   4  13
TORSDOF 5
