REMARK  Name = 75537002
REMARK  2 active torsions:
REMARK  status: ('A' for Active; 'I' for Inactive)
REMARK    1  A    between atoms: N_6  and  C_14
REMARK    2  A    between atoms: C_15  and  C_16
REMARK                            x       y       z     vdW  Elec       q    Type
REMARK                         _______ _______ _______ _____ _____    ______ ____
ROOT
ATOM      1  O   UNL     1      -4.347  -0.941  -0.258  0.00  0.00    -0.252 OA
ATOM      2  O   UNL     1       2.503  -2.316  -0.184  0.00  0.00    -0.267 OA
ATOM      4  N   UNL     1      -2.026  -0.573  -0.263  0.00  0.00    -0.278 N 
ATOM      5  N   UNL     1       0.644  -1.011   0.368  0.00  0.00    -0.292 N 
ATOM      6  N   UNL     1      -3.384   1.184   0.085  0.00  0.00    -0.287 N 
ATOM      8  C   UNL     1      -1.136   0.574  -0.210  0.00  0.00    +0.112 C 
ATOM      9  C   UNL     1       0.038   0.287   0.721  0.00  0.00    +0.132 C 
ATOM     10  C   UNL     1      -2.042   1.718   0.237  0.00  0.00    +0.133 C 
ATOM     11  C   UNL     1      -1.485  -1.898  -0.507  0.00  0.00    +0.128 C 
ATOM     12  C   UNL     1      -0.284  -2.150   0.404  0.00  0.00    +0.127 C 
ATOM     13  C   UNL     1      -3.375  -0.203  -0.161  0.00  0.00    +0.305 C 
ATOM     14  C   UNL     1      -4.560   1.995   0.306  0.00  0.00    +0.133 C 
ATOM     15  C   UNL     1       1.990  -1.226   0.066  0.00  0.00    +0.285 C 
ENDROOT
BRANCH  15  16
ATOM      3  O   UNL     1       2.611   0.929  -0.859  0.00  0.00    -0.350 OA
ATOM      7  N   UNL     1       3.567   1.930  -0.738  0.00  0.00    -0.086 NA
ATOM     16  C   UNL     1       2.884  -0.062   0.028  0.00  0.00    +0.222 A 
ATOM     17  C   UNL     1       4.009   0.256   0.742  0.00  0.00    +0.077 A 
ATOM     18  C   UNL     1       4.392   1.506   0.224  0.00  0.00    +0.157 A 
ENDBRANCH  15  16
TORSDOF 1
