REMARK  Name = 45784069
REMARK  4 active torsions:
REMARK  status: ('A' for Active; 'I' for Inactive)
REMARK    1  A    between atoms: O_2  and  C_17
REMARK    2  A    between atoms: O_2  and  C_25
REMARK    3  A    between atoms: N_6  and  C_19
REMARK    4  A    between atoms: C_7  and  C_11
REMARK                            x       y       z     vdW  Elec       q    Type
REMARK                         _______ _______ _______ _____ _____    ______ ____
ROOT
ATOM      1  O   UNL     1       2.887  -0.796   1.762  0.00  0.00    -0.252 OA
ATOM      3  N   UNL     1       1.471  -1.478   0.089  0.00  0.00    -0.285 N 
ATOM      6  N   UNL     1       3.407  -0.283  -0.454  0.00  0.00    -0.269 N 
ATOM      7  C   UNL     1      -0.739  -2.356   0.160  0.00  0.00    +0.074 C 
ATOM      8  C   UNL     1      -0.149  -2.572  -1.241  0.00  0.00    +0.032 C 
ATOM      9  C   UNL     1       0.521  -2.110   0.999  0.00  0.00    +0.120 C 
ATOM     10  C   UNL     1       1.032  -1.611  -1.298  0.00  0.00    +0.110 C 
ATOM     12  C   UNL     1       2.626  -0.842   0.558  0.00  0.00    +0.306 C 
ATOM     27  H   UNL     1       3.072  -0.363  -1.409  0.00  0.00    +0.156 HD
ENDROOT
BRANCH   7  11
ATOM      4  N   UNL     1      -3.104  -1.527  -0.076  0.00  0.00    -0.341 N 
ATOM      5  N   UNL     1      -1.578   0.025   0.378  0.00  0.00    -0.232 NA
ATOM     11  C   UNL     1      -1.785  -1.255   0.162  0.00  0.00    +0.113 A 
ATOM     13  C   UNL     1      -3.793  -0.344  -0.009  0.00  0.00    +0.070 A 
ATOM     14  C   UNL     1      -2.820   0.610   0.275  0.00  0.00    +0.089 A 
ATOM     15  C   UNL     1      -5.145  -0.035  -0.169  0.00  0.00    +0.073 A 
ATOM     16  C   UNL     1      -3.198   1.956   0.412  0.00  0.00    +0.033 A 
ATOM     17  C   UNL     1      -5.504   1.310  -0.029  0.00  0.00    +0.122 A 
ATOM     18  C   UNL     1      -4.549   2.289   0.256  0.00  0.00    +0.048 A 
ATOM     26  H   UNL     1      -3.501  -2.437  -0.269  0.00  0.00    +0.167 HD
BRANCH  17   2
ATOM      2  O   UNL     1      -6.811   1.670  -0.174  0.00  0.00    -0.495 OA
ATOM     25  C   UNL     1      -7.740   0.629  -0.464  0.00  0.00    +0.277 C 
ENDBRANCH  17   2
ENDBRANCH   7  11
BRANCH   6  19
ATOM     19  C   UNL     1       4.627   0.424  -0.321  0.00  0.00    +0.035 A 
ATOM     20  C   UNL     1       5.263   0.937  -1.451  0.00  0.00    +0.023 A 
ATOM     21  C   UNL     1       5.193   0.607   0.941  0.00  0.00    +0.023 A 
ATOM     22  C   UNL     1       6.464   1.634  -1.320  0.00  0.00    +0.002 A 
ATOM     23  C   UNL     1       6.394   1.303   1.072  0.00  0.00    +0.002 A 
ATOM     24  C   UNL     1       7.030   1.816  -0.058  0.00  0.00    +0.000 A 
ENDBRANCH   6  19
TORSDOF 3
