REMARK  Name = 45784365
REMARK  17 active torsions:
REMARK  status: ('A' for Active; 'I' for Inactive)
REMARK    1  A    between atoms: O_1  and  C_11
REMARK    2  A    between atoms: O_4  and  C_28
REMARK    3  A    between atoms: O_4  and  C_35
REMARK    4  A    between atoms: O_5  and  C_29
REMARK    5  A    between atoms: O_5  and  C_36
REMARK    6  A    between atoms: N_6  and  C_15
REMARK    7  A    between atoms: N_7  and  C_25
REMARK    8  A    between atoms: N_7  and  C_26
REMARK    9  A    between atoms: C_8  and  C_18
REMARK   10  A    between atoms: C_10  and  C_20
REMARK   11  A    between atoms: C_13  and  C_19
REMARK   12  A    between atoms: C_19  and  C_21
REMARK   13  A    between atoms: C_19  and  C_22
REMARK   14  A    between atoms: C_23  and  C_24
REMARK   15  A    between atoms: C_24  and  C_27
REMARK   16  A    between atoms: C_25  and  C_28
REMARK   17  A    between atoms: C_26  and  C_29
REMARK                            x       y       z     vdW  Elec       q    Type
REMARK                         _______ _______ _______ _____ _____    ______ ____
ROOT
ATOM      8  C   UNL     1       0.170  -2.325  -0.411  0.00  0.00    -0.027 C 
ATOM      9  C   UNL     1      -0.098  -0.785  -0.348  0.00  0.00    +0.028 C 
ATOM     10  C   UNL     1      -1.554  -0.450  -0.834  0.00  0.00    +0.012 C 
ATOM     11  C   UNL     1       1.040   0.014  -1.047  0.00  0.00    +0.122 C 
ATOM     12  C   UNL     1       1.567  -2.630   0.179  0.00  0.00    +0.007 C 
ATOM     13  C   UNL     1       2.444  -0.371  -0.526  0.00  0.00    +0.029 C 
ATOM     14  C   UNL     1      -0.878  -3.055   0.461  0.00  0.00    +0.009 C 
ATOM     15  C   UNL     1      -2.596  -1.247  -0.000  0.00  0.00    +0.076 C 
ATOM     16  C   UNL     1       2.688  -1.880  -0.528  0.00  0.00    +0.007 C 
ATOM     17  C   UNL     1      -2.312  -2.748   0.053  0.00  0.00    +0.023 C 
ATOM     18  C   UNL     1       0.108  -2.881  -1.856  0.00  0.00    +0.011 C 
ATOM     20  C   UNL     1      -1.895   1.048  -0.772  0.00  0.00    +0.010 C 
ENDROOT
BRANCH  15   6
ATOM      3  O   UNL     1      -5.021  -1.241   1.550  0.00  0.00    -0.275 OA
ATOM      6  N   UNL     1      -3.942  -1.052  -0.497  0.00  0.00    -0.312 N 
ATOM     23  C   UNL     1      -5.051  -1.067   0.334  0.00  0.00    +0.218 C 
ATOM     37  H   UNL     1      -4.066  -0.965  -1.501  0.00  0.00    +0.149 HD
BRANCH  23  24
ATOM     24  C   UNL     1      -6.330  -0.832  -0.447  0.00  0.00    +0.130 C 
BRANCH  24  27
ATOM     27  C   UNL     1      -7.083   0.394  -0.003  0.00  0.00    -0.039 A 
ATOM     30  C   UNL     1      -8.044   0.296   1.004  0.00  0.00    +0.004 A 
ATOM     31  C   UNL     1      -6.821   1.628  -0.598  0.00  0.00    +0.004 A 
ATOM     32  C   UNL     1      -8.742   1.432   1.415  0.00  0.00    +0.000 A 
ATOM     33  C   UNL     1      -7.519   2.763  -0.187  0.00  0.00    +0.000 A 
ATOM     34  C   UNL     1      -8.479   2.665   0.820  0.00  0.00    +0.000 A 
ENDBRANCH  24  27
ENDBRANCH  23  24
ENDBRANCH  15   6
BRANCH  11   1
ATOM      1  O   UNL     1       0.875   1.408  -0.784  0.00  0.00    -0.391 OA
ATOM     38  H   UNL     1       0.918   1.541   0.178  0.00  0.00    +0.210 HD
ENDBRANCH  11   1
BRANCH  13  19
ATOM     19  C   UNL     1       3.557   0.329  -1.316  0.00  0.00    +0.078 C 
ATOM     21  C   UNL     1       3.470  -0.078  -2.788  0.00  0.00    +0.017 C 
BRANCH  19  22
ATOM      2  O   UNL     1       5.514  -1.038  -1.137  0.00  0.00    -0.275 OA
ATOM      7  N   UNL     1       5.433   0.784   0.287  0.00  0.00    -0.297 N 
ATOM     22  C   UNL     1       4.920  -0.036  -0.724  0.00  0.00    +0.219 C 
BRANCH   7  25
ATOM     25  C   UNL     1       6.720   0.451   0.887  0.00  0.00    +0.136 C 
BRANCH  25  28
ATOM     28  C   UNL     1       6.557  -0.464   2.087  0.00  0.00    +0.178 C 
BRANCH  28   4
ATOM      4  O   UNL     1       5.894  -1.655   1.686  0.00  0.00    -0.381 OA
ATOM     35  C   UNL     1       5.712  -2.545   2.779  0.00  0.00    +0.194 C 
ENDBRANCH  28   4
ENDBRANCH  25  28
ENDBRANCH   7  25
BRANCH   7  26
ATOM     26  C   UNL     1       4.814   2.002   0.806  0.00  0.00    +0.136 C 
BRANCH  26  29
ATOM     29  C   UNL     1       5.268   3.229   0.037  0.00  0.00    +0.178 C 
BRANCH  29   5
ATOM      5  O   UNL     1       4.614   4.380   0.555  0.00  0.00    -0.381 OA
ATOM     36  C   UNL     1       5.003   5.558  -0.138  0.00  0.00    +0.194 C 
ENDBRANCH  29   5
ENDBRANCH  26  29
ENDBRANCH   7  26
ENDBRANCH  19  22
ENDBRANCH  13  19
TORSDOF 12
