REMARK  Name = 40777175
REMARK  6 active torsions:
REMARK  status: ('A' for Active; 'I' for Inactive)
REMARK    1  A    between atoms: N_3  and  C_18
REMARK    2  A    between atoms: N_4  and  C_15
REMARK    3  A    between atoms: N_6  and  C_23
REMARK    4  A    between atoms: C_8  and  C_14
REMARK    5  A    between atoms: C_9  and  C_15
REMARK    6  A    between atoms: C_17  and  C_20
REMARK                            x       y       z     vdW  Elec       q    Type
REMARK                         _______ _______ _______ _____ _____    ______ ____
ROOT
ATOM      2  N   UNL     1      -0.200  -3.212   0.637  0.00  0.00    -0.297 NA
ATOM      7  C   UNL     1       0.932  -2.289  -1.519  0.00  0.00    +0.002 C 
ATOM      8  C   UNL     1       1.980  -2.459  -0.385  0.00  0.00    +0.055 C 
ATOM      9  C   UNL     1      -0.965  -2.047   0.120  0.00  0.00    +0.074 C 
ATOM     10  C   UNL     1      -0.200  -1.361  -1.032  0.00  0.00    +0.024 C 
ATOM     11  C   UNL     1       0.307  -3.680  -1.760  0.00  0.00    +0.019 C 
ATOM     12  C   UNL     1       1.203  -2.816   0.915  0.00  0.00    +0.094 C 
ATOM     13  C   UNL     1      -0.186  -4.252  -0.419  0.00  0.00    +0.085 C 
ENDROOT
BRANCH   8  14
ATOM      3  N   UNL     1       4.251  -1.561   0.306  0.00  0.00    -0.270 N 
ATOM      5  N   UNL     1       4.986  -0.442   0.429  0.00  0.00    -0.171 NA
ATOM     14  C   UNL     1       2.990  -1.342  -0.166  0.00  0.00    +0.044 A 
ATOM     16  C   UNL     1       2.894   0.014  -0.364  0.00  0.00    +0.053 A 
ATOM     17  C   UNL     1       4.152   0.516   0.018  0.00  0.00    +0.093 A 
ATOM     18  C   UNL     1       4.833  -2.832   0.669  0.00  0.00    +0.172 C 
BRANCH  17  20
ATOM     20  C   UNL     1       4.571   1.893   0.000  0.00  0.00    +0.002 A 
ATOM     21  C   UNL     1       3.635   2.909   0.193  0.00  0.00    +0.010 A 
ATOM     22  C   UNL     1       5.913   2.212  -0.210  0.00  0.00    +0.010 A 
ATOM     24  C   UNL     1       4.041   4.244   0.175  0.00  0.00    +0.001 A 
ATOM     25  C   UNL     1       6.318   3.546  -0.227  0.00  0.00    +0.001 A 
ATOM     26  C   UNL     1       5.382   4.562  -0.035  0.00  0.00    +0.000 A 
ENDBRANCH  17  20
ENDBRANCH   8  14
BRANCH   9  15
ATOM     15  C   UNL     1      -1.339  -1.058   1.226  0.00  0.00    +0.124 C 
BRANCH  15   4
ATOM      1  O   UNL     1      -4.201  -1.099   1.137  0.00  0.00    -0.253 OA
ATOM      4  N   UNL     1      -2.207  -0.012   0.711  0.00  0.00    -0.298 N 
ATOM      6  N   UNL     1      -4.163   1.033   0.155  0.00  0.00    -0.269 N 
ATOM     19  C   UNL     1      -3.597  -0.119   0.708  0.00  0.00    +0.304 C 
ATOM     32  H   UNL     1      -1.778   0.827   0.333  0.00  0.00    +0.150 HD
ATOM     33  H   UNL     1      -3.519   1.756  -0.155  0.00  0.00    +0.156 HD
BRANCH   6  23
ATOM     23  C   UNL     1      -5.535   1.322  -0.030  0.00  0.00    +0.035 A 
ATOM     27  C   UNL     1      -5.920   2.534  -0.605  0.00  0.00    +0.023 A 
ATOM     28  C   UNL     1      -6.503   0.398   0.361  0.00  0.00    +0.023 A 
ATOM     29  C   UNL     1      -7.273   2.820  -0.788  0.00  0.00    +0.002 A 
ATOM     30  C   UNL     1      -7.856   0.684   0.178  0.00  0.00    +0.002 A 
ATOM     31  C   UNL     1      -8.241   1.895  -0.397  0.00  0.00    +0.000 A 
ENDBRANCH   6  23
ENDBRANCH  15   4
ENDBRANCH   9  15
TORSDOF 5
