REMARK  Name = 75536676
REMARK  7 active torsions:
REMARK  status: ('A' for Active; 'I' for Inactive)
REMARK    1  A    between atoms: S_1  and  N_8
REMARK    2  A    between atoms: S_1  and  C_19
REMARK    3  A    between atoms: O_3  and  C_10
REMARK    4  A    between atoms: N_7  and  C_9
REMARK    5  A    between atoms: N_7  and  C_12
REMARK    6  A    between atoms: N_8  and  C_16
REMARK    7  A    between atoms: C_11  and  C_16
REMARK                            x       y       z     vdW  Elec       q    Type
REMARK                         _______ _______ _______ _____ _____    ______ ____
ROOT
ATOM      2  O   UNL     1      -0.438   0.693  -1.355  0.00  0.00    -0.371 OA
ATOM      9  C   UNL     1      -2.306   0.223   0.034  0.00  0.00    +0.111 C 
ATOM     10  C   UNL     1      -1.033   0.052   0.842  0.00  0.00    +0.164 C 
ATOM     11  C   UNL     1      -0.050   0.871   0.018  0.00  0.00    +0.164 C 
ATOM     13  C   UNL     1      -1.771   0.155  -1.387  0.00  0.00    +0.181 C 
ENDROOT
BRANCH  10   3
ATOM      3  O   UNL     1      -1.154   0.545   2.162  0.00  0.00    -0.388 OA
ATOM     26  H   UNL     1      -1.424   1.478   2.116  0.00  0.00    +0.210 HD
ENDBRANCH  10   3
BRANCH   9   7
ATOM      7  N   UNL     1      -3.312  -0.790   0.309  0.00  0.00    -0.306 NA
ATOM     25  H   UNL     1      -3.384  -0.949   1.313  0.00  0.00    +0.123 HD
BRANCH   7  12
ATOM      4  O   UNL     1      -7.473  -0.273   0.094  0.00  0.00    -0.380 OA
ATOM     12  C   UNL     1      -4.614  -0.397  -0.224  0.00  0.00    +0.058 C 
ATOM     14  C   UNL     1      -5.296   0.628   0.688  0.00  0.00    +0.047 C 
ATOM     15  C   UNL     1      -5.513  -1.625  -0.395  0.00  0.00    +0.047 C 
ATOM     17  C   UNL     1      -6.705   0.926   0.189  0.00  0.00    +0.161 C 
ATOM     18  C   UNL     1      -6.910  -1.202  -0.834  0.00  0.00    +0.161 C 
ENDBRANCH   7  12
ENDBRANCH   9   7
BRANCH  11  16
ATOM     16  C   UNL     1       1.394   0.441   0.203  0.00  0.00    +0.140 C 
BRANCH  16   8
ATOM      8  N   UNL     1       2.273   1.285  -0.630  0.00  0.00    -0.187 NA
ATOM     27  H   UNL     1       2.074   1.278  -1.638  0.00  0.00    +0.148 HD
BRANCH   8   1
ATOM      1  S   UNL     1       3.861   1.623  -0.121  0.00  0.00    +0.058 S 
ATOM      5  O   UNL     1       3.828   2.182   1.217  0.00  0.00    -0.153 OA
ATOM      6  O   UNL     1       4.559   2.319  -1.185  0.00  0.00    -0.153 OA
BRANCH   1  19
ATOM     19  C   UNL     1       4.561   0.003  -0.018  0.00  0.00    +0.105 A 
ATOM     20  C   UNL     1       5.190  -0.557  -1.130  0.00  0.00    +0.028 A 
ATOM     21  C   UNL     1       4.481  -0.716   1.175  0.00  0.00    +0.028 A 
ATOM     22  C   UNL     1       5.739  -1.837  -1.050  0.00  0.00    +0.002 A 
ATOM     23  C   UNL     1       5.030  -1.996   1.255  0.00  0.00    +0.002 A 
ATOM     24  C   UNL     1       5.659  -2.556   0.143  0.00  0.00    +0.000 A 
ENDBRANCH   1  19
ENDBRANCH   8   1
ENDBRANCH  16   8
ENDBRANCH  11  16
TORSDOF 7
