REMARK  Name = 45783492
REMARK  10 active torsions:
REMARK  status: ('A' for Active; 'I' for Inactive)
REMARK    1  A    between atoms: O_2  and  C_28
REMARK    2  A    between atoms: O_2  and  C_29
REMARK    3  A    between atoms: N_3  and  C_12
REMARK    4  A    between atoms: N_7  and  C_26
REMARK    5  A    between atoms: N_7  and  C_27
REMARK    6  A    between atoms: C_8  and  C_13
REMARK    7  A    between atoms: C_12  and  C_14
REMARK    8  A    between atoms: C_15  and  C_19
REMARK    9  A    between atoms: C_17  and  C_22
REMARK   10  A    between atoms: C_27  and  C_28
REMARK                            x       y       z     vdW  Elec       q    Type
REMARK                         _______ _______ _______ _____ _____    ______ ____
ROOT
ATOM      1  O   UNL     1      -2.133   1.573   1.172  0.00  0.00    -0.336 OA
ATOM      4  N   UNL     1      -1.016   0.949  -0.667  0.00  0.00    -0.190 NA
ATOM      5  N   UNL     1      -0.797   1.415   1.562  0.00  0.00    -0.056 NA
ATOM     13  C   UNL     1      -2.175   1.279  -0.154  0.00  0.00    +0.245 A 
ATOM     17  C   UNL     1      -0.202   1.046   0.424  0.00  0.00    +0.204 A 
ENDROOT
BRANCH  17  22
ATOM      6  N   UNL     1       3.347   0.622   1.450  0.00  0.00    -0.240 NA
ATOM     22  C   UNL     1       1.202   0.767   0.343  0.00  0.00    +0.041 A 
ATOM     23  C   UNL     1       1.789   0.384  -0.859  0.00  0.00    +0.016 A 
ATOM     24  C   UNL     1       2.018   0.870   1.458  0.00  0.00    +0.124 A 
ATOM     25  C   UNL     1       3.153   0.120  -0.907  0.00  0.00    +0.044 A 
ATOM     26  C   UNL     1       3.881   0.252   0.264  0.00  0.00    +0.119 A 
BRANCH  26   7
ATOM      7  N   UNL     1       5.270  -0.021   0.199  0.00  0.00    -0.327 N 
ATOM     30  H   UNL     1       5.792   0.083   1.062  0.00  0.00    +0.148 HD
BRANCH   7  27
ATOM     27  C   UNL     1       5.921  -0.418  -1.006  0.00  0.00    +0.131 C 
BRANCH  27  28
ATOM     28  C   UNL     1       7.396  -0.669  -0.742  0.00  0.00    +0.178 C 
BRANCH  28   2
ATOM      2  O   UNL     1       8.007   0.532  -0.289  0.00  0.00    -0.381 OA
ATOM     29  C   UNL     1       9.393   0.348  -0.034  0.00  0.00    +0.194 C 
ENDBRANCH  28   2
ENDBRANCH  27  28
ENDBRANCH   7  27
ENDBRANCH  26   7
ENDBRANCH  17  22
BRANCH  13   8
ATOM      3  N   UNL     1      -4.543   0.515  -0.187  0.00  0.00    -0.287 NA
ATOM      8  C   UNL     1      -3.529   1.378  -0.825  0.00  0.00    +0.146 C 
ATOM      9  C   UNL     1      -4.124   2.797  -0.757  0.00  0.00    +0.030 C 
ATOM     10  C   UNL     1      -5.496   2.622  -0.122  0.00  0.00    +0.017 C 
ATOM     11  C   UNL     1      -5.834   1.171  -0.395  0.00  0.00    +0.085 C 
BRANCH   3  12
ATOM     12  C   UNL     1      -4.534  -0.852  -0.692  0.00  0.00    +0.120 C 
BRANCH  12  14
ATOM     14  C   UNL     1      -3.432  -1.671  -0.074  0.00  0.00    -0.030 A 
ATOM     15  C   UNL     1      -2.455  -2.273  -0.867  0.00  0.00    -0.046 A 
ATOM     16  C   UNL     1      -3.399  -1.825   1.312  0.00  0.00    +0.005 A 
ATOM     18  C   UNL     1      -1.443  -3.027  -0.273  0.00  0.00    +0.003 A 
ATOM     19  C   UNL     1      -2.470  -2.123  -2.353  0.00  0.00    +0.044 C 
ATOM     20  C   UNL     1      -2.387  -2.579   1.905  0.00  0.00    +0.000 A 
ATOM     21  C   UNL     1      -1.409  -3.181   1.113  0.00  0.00    +0.000 A 
ENDBRANCH  12  14
ENDBRANCH   3  12
ENDBRANCH  13   8
TORSDOF 8
