REMARK  Name = 25338708
REMARK  7 active torsions:
REMARK  status: ('A' for Active; 'I' for Inactive)
REMARK    1  A    between atoms: O_3  and  C_21
REMARK    2  A    between atoms: O_3  and  C_24
REMARK    3  A    between atoms: N_4  and  C_14
REMARK    4  A    between atoms: N_5  and  C_9
REMARK    5  A    between atoms: N_7  and  C_18
REMARK    6  A    between atoms: C_10  and  C_13
REMARK    7  A    between atoms: C_16  and  C_17
REMARK                            x       y       z     vdW  Elec       q    Type
REMARK                         _______ _______ _______ _____ _____    ______ ____
ROOT
ATOM      2  O   UNL     1       1.078   1.998  -1.376  0.00  0.00    -0.253 OA
ATOM      5  N   UNL     1      -0.364   1.395   0.328  0.00  0.00    -0.295 N 
ATOM      7  N   UNL     1       1.774   0.561   0.345  0.00  0.00    -0.269 N 
ATOM     15  C   UNL     1       0.866   1.375  -0.338  0.00  0.00    +0.304 C 
ATOM     25  H   UNL     1      -0.484   0.796   1.139  0.00  0.00    +0.151 HD
ATOM     26  H   UNL     1       1.437   0.115   1.195  0.00  0.00    +0.156 HD
ENDROOT
BRANCH   5   9
ATOM      4  N   UNL     1      -3.256   1.379   1.188  0.00  0.00    -0.293 NA
ATOM      9  C   UNL     1      -1.502   2.150  -0.141  0.00  0.00    +0.090 C 
ATOM     10  C   UNL     1      -3.624   0.940  -0.172  0.00  0.00    +0.147 C 
ATOM     11  C   UNL     1      -2.405   1.307  -1.041  0.00  0.00    +0.052 C 
ATOM     12  C   UNL     1      -2.406   2.561   1.012  0.00  0.00    +0.107 C 
ATOM     14  C   UNL     1      -4.410   1.659   2.033  0.00  0.00    +0.105 C 
BRANCH  10  13
ATOM      1  O   UNL     1      -5.212  -0.829  -0.740  0.00  0.00    -0.336 OA
ATOM      6  N   UNL     1      -3.262  -1.575   0.072  0.00  0.00    -0.195 NA
ATOM      8  N   UNL     1      -5.306  -2.227  -0.722  0.00  0.00    -0.062 NA
ATOM     13  C   UNL     1      -3.978  -0.529  -0.257  0.00  0.00    +0.245 A 
ATOM     16  C   UNL     1      -4.119  -2.593  -0.231  0.00  0.00    +0.169 A 
ATOM     17  C   UNL     1      -3.762  -4.002  -0.030  0.00  0.00    +0.091 C 
ENDBRANCH  10  13
ENDBRANCH   5   9
BRANCH   7  18
ATOM     18  C   UNL     1       3.117   0.280   0.001  0.00  0.00    +0.038 A 
ATOM     19  C   UNL     1       3.881  -0.564   0.807  0.00  0.00    +0.069 A 
ATOM     20  C   UNL     1       3.676   0.845  -1.145  0.00  0.00    +0.023 A 
ATOM     21  C   UNL     1       5.205  -0.843   0.467  0.00  0.00    +0.122 A 
ATOM     22  C   UNL     1       5.000   0.566  -1.485  0.00  0.00    +0.005 A 
ATOM     23  C   UNL     1       5.764  -0.278  -0.679  0.00  0.00    +0.046 A 
BRANCH  21   3
ATOM      3  O   UNL     1       5.950  -1.666   1.254  0.00  0.00    -0.495 OA
ATOM     24  C   UNL     1       7.296  -1.908   0.848  0.00  0.00    +0.277 C 
ENDBRANCH  21   3
ENDBRANCH   7  18
TORSDOF 4
