REMARK  Name = 11912918
REMARK  7 active torsions:
REMARK  status: ('A' for Active; 'I' for Inactive)
REMARK    1  A    between atoms: N_4  and  C_10
REMARK    2  A    between atoms: N_5  and  C_11
REMARK    3  A    between atoms: C_15  and  C_18
REMARK    4  A    between atoms: C_16  and  C_17
REMARK    5  A    between atoms: C_16  and  C_20
REMARK    6  A    between atoms: C_16  and  C_21
REMARK    7  A    between atoms: C_16  and  C_22
REMARK                            x       y       z     vdW  Elec       q    Type
REMARK                         _______ _______ _______ _____ _____    ______ ____
ROOT
ATOM      1  O   UNL     1      -0.264   3.374  -0.548  0.00  0.00    -0.370 OA
ATOM      2  O   UNL     1      -0.111   1.185   1.671  0.00  0.00    -0.370 OA
ATOM      8  C   UNL     1       0.325   1.231   0.301  0.00  0.00    +0.171 C 
ATOM      9  C   UNL     1      -0.717   2.012  -0.476  0.00  0.00    +0.171 C 
ATOM     10  C   UNL     1       1.579   2.063   0.178  0.00  0.00    +0.130 C 
ATOM     11  C   UNL     1      -1.961   1.915   0.377  0.00  0.00    +0.130 C 
ATOM     12  C   UNL     1       1.032   3.474   0.060  0.00  0.00    +0.185 C 
ATOM     13  C   UNL     1      -1.388   1.831   1.780  0.00  0.00    +0.185 C 
ENDROOT
BRANCH  10   4
ATOM      4  N   UNL     1       2.296   1.702  -1.025  0.00  0.00    -0.306 N 
ATOM      6  N   UNL     1       3.403  -0.074   0.035  0.00  0.00    -0.219 NA
ATOM      7  N   UNL     1       3.798   0.418  -2.291  0.00  0.00    -0.223 NA
ATOM     14  C   UNL     1       3.192   0.651  -1.096  0.00  0.00    +0.216 A 
ATOM     17  C   UNL     1       4.283  -1.092  -0.069  0.00  0.00    +0.052 A 
ATOM     19  C   UNL     1       4.950  -1.412  -1.234  0.00  0.00    +0.043 A 
ATOM     23  C   UNL     1       4.666  -0.615  -2.323  0.00  0.00    +0.116 A 
ATOM     29  H   UNL     1       2.107   2.202  -1.887  0.00  0.00    +0.149 HD
BRANCH  17  16
ATOM     16  C   UNL     1       4.526  -1.898   1.163  0.00  0.00    +0.005 C 
ATOM     20  C   UNL     1       6.026  -1.843   1.587  0.00  0.00    +0.017 C 
ATOM     21  C   UNL     1       4.154  -3.397   0.940  0.00  0.00    +0.017 C 
ATOM     22  C   UNL     1       3.718  -1.452   2.426  0.00  0.00    +0.017 C 
ENDBRANCH  17  16
ENDBRANCH  10   4
BRANCH  11   5
ATOM      3  O   UNL     1      -4.782   1.542   0.761  0.00  0.00    -0.270 OA
ATOM      5  N   UNL     1      -2.726   0.736   0.052  0.00  0.00    -0.304 N 
ATOM     15  C   UNL     1      -4.093   0.649   0.276  0.00  0.00    +0.244 C 
ATOM     30  H   UNL     1      -2.204  -0.082  -0.243  0.00  0.00    +0.149 HD
BRANCH  15  18
ATOM     18  C   UNL     1      -4.730  -0.643  -0.087  0.00  0.00    +0.037 A 
ATOM     24  C   UNL     1      -5.876  -1.032   0.575  0.00  0.00    +0.013 A 
ATOM     25  C   UNL     1      -4.155  -1.413  -1.077  0.00  0.00    +0.013 A 
ATOM     26  C   UNL     1      -6.475  -2.244   0.231  0.00  0.00    +0.001 A 
ATOM     27  C   UNL     1      -4.754  -2.626  -1.421  0.00  0.00    +0.001 A 
ATOM     28  C   UNL     1      -5.913  -3.041  -0.766  0.00  0.00    +0.000 A 
ENDBRANCH  15  18
ENDBRANCH  11   5
TORSDOF 4
