REMARK  Name = 38026580
REMARK  8 active torsions:
REMARK  status: ('A' for Active; 'I' for Inactive)
REMARK    1  A    between atoms: S_1  and  N_6
REMARK    2  A    between atoms: S_1  and  C_15
REMARK    3  A    between atoms: N_5  and  C_14
REMARK    4  A    between atoms: N_6  and  C_9
REMARK    5  A    between atoms: C_10  and  C_13
REMARK    6  A    between atoms: C_15  and  C_16
REMARK    7  A    between atoms: C_16  and  C_18
REMARK    8  A    between atoms: C_17  and  C_19
REMARK                            x       y       z     vdW  Elec       q    Type
REMARK                         _______ _______ _______ _____ _____    ______ ____
ROOT
ATOM      5  N   UNL     1      -0.803  -2.284   1.027  0.00  0.00    -0.293 NA
ATOM      9  C   UNL     1      -2.513  -1.246  -0.173  0.00  0.00    +0.092 C 
ATOM     10  C   UNL     1      -0.267  -2.185  -0.344  0.00  0.00    +0.147 C 
ATOM     11  C   UNL     1      -1.304  -1.333  -1.101  0.00  0.00    +0.050 C 
ATOM     12  C   UNL     1      -2.262  -2.309   0.885  0.00  0.00    +0.105 C 
ATOM     14  C   UNL     1      -0.309  -3.447   1.754  0.00  0.00    +0.105 C 
ENDROOT
BRANCH  10  13
ATOM      2  O   UNL     1       2.081  -2.363  -0.999  0.00  0.00    -0.336 OA
ATOM      7  N   UNL     1       1.561  -0.442   0.028  0.00  0.00    -0.190 NA
ATOM      8  N   UNL     1       3.267  -1.620  -0.939  0.00  0.00    -0.056 NA
ATOM     13  C   UNL     1       1.127  -1.597  -0.408  0.00  0.00    +0.245 A 
ATOM     17  C   UNL     1       2.879  -0.501  -0.320  0.00  0.00    +0.202 A 
BRANCH  17  19
ATOM     19  C   UNL     1       3.783   0.576  -0.036  0.00  0.00    +0.022 A 
ATOM     20  C   UNL     1       3.320   1.722   0.611  0.00  0.00    +0.012 A 
ATOM     21  C   UNL     1       5.124   0.479  -0.408  0.00  0.00    +0.012 A 
ATOM     22  C   UNL     1       4.198   2.770   0.888  0.00  0.00    +0.001 A 
ATOM     23  C   UNL     1       6.002   1.526  -0.131  0.00  0.00    +0.001 A 
ATOM     24  C   UNL     1       5.539   2.672   0.517  0.00  0.00    +0.000 A 
ENDBRANCH  17  19
ENDBRANCH  10  13
BRANCH   9   6
ATOM      6  N   UNL     1      -2.569   0.097   0.459  0.00  0.00    -0.190 NA
ATOM     25  H   UNL     1      -2.361   0.157   1.463  0.00  0.00    +0.148 HD
BRANCH   6   1
ATOM      1  S   UNL     1      -3.483   1.320  -0.291  0.00  0.00    +0.030 S 
ATOM      3  O   UNL     1      -3.489   1.126  -1.727  0.00  0.00    -0.158 OA
ATOM      4  O   UNL     1      -3.094   2.593   0.285  0.00  0.00    -0.158 OA
BRANCH   1  15
ATOM     15  C   UNL     1      -5.109   0.937   0.320  0.00  0.00    +0.185 C 
BRANCH  15  16
ATOM     16  C   UNL     1      -6.145   1.911  -0.217  0.00  0.00    +0.021 C 
ATOM     18  C   UNL     1      -7.532   1.598   0.319  0.00  0.00    +0.005 C 
ENDBRANCH  15  16
ENDBRANCH   1  15
ENDBRANCH   6   1
ENDBRANCH   9   6
TORSDOF 6
