REMARK  Name = 25389372
REMARK  9 active torsions:
REMARK  status: ('A' for Active; 'I' for Inactive)
REMARK    1  A    between atoms: S_1  and  N_7
REMARK    2  A    between atoms: S_1  and  C_23
REMARK    3  A    between atoms: O_4  and  C_28
REMARK    4  A    between atoms: O_4  and  C_29
REMARK    5  A    between atoms: N_6  and  C_15
REMARK    6  A    between atoms: N_7  and  C_16
REMARK    7  A    between atoms: C_9  and  C_15
REMARK    8  A    between atoms: C_10  and  C_16
REMARK    9  A    between atoms: C_19  and  C_22
REMARK                            x       y       z     vdW  Elec       q    Type
REMARK                         _______ _______ _______ _____ _____    ______ ____
ROOT
ATOM      5  N   UNL     1       0.509   3.467  -0.225  0.00  0.00    -0.298 NA
ATOM      8  C   UNL     1       0.490   2.065   1.966  0.00  0.00    -0.003 C 
ATOM      9  C   UNL     1       1.626   1.603   1.025  0.00  0.00    +0.020 C 
ATOM     10  C   UNL     1      -0.853   2.918   0.017  0.00  0.00    +0.072 C 
ATOM     11  C   UNL     1      -0.858   1.960   1.229  0.00  0.00    +0.024 C 
ATOM     12  C   UNL     1       1.499   2.367  -0.312  0.00  0.00    +0.089 C 
ATOM     13  C   UNL     1       0.734   3.558   2.262  0.00  0.00    +0.019 C 
ATOM     14  C   UNL     1       0.869   4.322   0.933  0.00  0.00    +0.085 C 
ENDROOT
BRANCH   9  15
ATOM     15  C   UNL     1       1.652   0.091   0.809  0.00  0.00    +0.089 C 
BRANCH  15   6
ATOM      6  N   UNL     1       2.795  -0.257  -0.034  0.00  0.00    -0.302 NA
ATOM     17  C   UNL     1       2.603  -1.582  -0.638  0.00  0.00    +0.084 C 
ATOM     18  C   UNL     1       4.041  -0.204   0.742  0.00  0.00    +0.084 C 
ATOM     19  C   UNL     1       5.107  -1.874  -0.829  0.00  0.00    -0.012 C 
ATOM     20  C   UNL     1       3.766  -1.940  -1.566  0.00  0.00    +0.018 C 
ATOM     21  C   UNL     1       5.253  -0.514  -0.139  0.00  0.00    +0.018 C 
ATOM     22  C   UNL     1       6.270  -2.133  -1.783  0.00  0.00    +0.007 C 
ENDBRANCH  15   6
ENDBRANCH   9  15
BRANCH  10  16
ATOM     16  C   UNL     1      -1.447   2.260  -1.230  0.00  0.00    +0.124 C 
BRANCH  16   7
ATOM      7  N   UNL     1      -2.838   1.866  -0.953  0.00  0.00    -0.188 NA
ATOM     30  H   UNL     1      -3.464   2.608  -0.617  0.00  0.00    +0.148 HD
BRANCH   7   1
ATOM      1  S   UNL     1      -3.520   0.521  -1.744  0.00  0.00    +0.058 S 
ATOM      2  O   UNL     1      -2.812   0.286  -2.988  0.00  0.00    -0.153 OA
ATOM      3  O   UNL     1      -4.965   0.651  -1.741  0.00  0.00    -0.153 OA
BRANCH   1  23
ATOM     23  C   UNL     1      -3.118  -0.793  -0.632  0.00  0.00    +0.105 A 
ATOM     24  C   UNL     1      -1.920  -1.492  -0.783  0.00  0.00    +0.032 A 
ATOM     25  C   UNL     1      -3.999  -1.133   0.395  0.00  0.00    +0.032 A 
ATOM     26  C   UNL     1      -1.604  -2.531   0.093  0.00  0.00    +0.047 A 
ATOM     27  C   UNL     1      -3.683  -2.172   1.270  0.00  0.00    +0.047 A 
ATOM     28  C   UNL     1      -2.485  -2.870   1.119  0.00  0.00    +0.120 A 
BRANCH  28   4
ATOM      4  O   UNL     1      -2.176  -3.884   1.974  0.00  0.00    -0.495 OA
ATOM     29  C   UNL     1      -0.935  -4.556   1.762  0.00  0.00    +0.277 C 
ENDBRANCH  28   4
ENDBRANCH   1  23
ENDBRANCH   7   1
ENDBRANCH  16   7
ENDBRANCH  10  16
TORSDOF 7
