REMARK  Name = 26744196
REMARK  9 active torsions:
REMARK  status: ('A' for Active; 'I' for Inactive)
REMARK    1  A    between atoms: O_1  and  C_9
REMARK    2  A    between atoms: O_3  and  C_22
REMARK    3  A    between atoms: O_3  and  C_23
REMARK    4  A    between atoms: N_4  and  C_11
REMARK    5  A    between atoms: C_7  and  C_12
REMARK    6  A    between atoms: C_11  and  C_13
REMARK    7  A    between atoms: C_14  and  C_15
REMARK    8  A    between atoms: C_15  and  C_20
REMARK    9  A    between atoms: C_15  and  C_21
REMARK                            x       y       z     vdW  Elec       q    Type
REMARK                         _______ _______ _______ _____ _____    ______ ____
ROOT
ATOM      4  N   UNL     1      -1.993   1.217  -0.350  0.00  0.00    -0.285 NA
ATOM      7  C   UNL     1      -2.194   0.188   0.690  0.00  0.00    +0.149 C 
ATOM      8  C   UNL     1      -3.549  -0.458   0.348  0.00  0.00    +0.061 C 
ATOM      9  C   UNL     1      -4.053   0.305  -0.871  0.00  0.00    +0.130 C 
ATOM     10  C   UNL     1      -3.325   1.633  -0.785  0.00  0.00    +0.116 C 
ENDROOT
BRANCH   7  12
ATOM      2  O   UNL     1      -0.417  -0.943   1.931  0.00  0.00    -0.336 OA
ATOM      5  N   UNL     1      -0.602  -1.597  -0.203  0.00  0.00    -0.194 NA
ATOM      6  N   UNL     1       0.573  -1.913   1.735  0.00  0.00    -0.061 NA
ATOM     12  C   UNL     1      -1.063  -0.817   0.742  0.00  0.00    +0.245 A 
ATOM     14  C   UNL     1       0.401  -2.250   0.453  0.00  0.00    +0.174 A 
BRANCH  14  15
ATOM     15  C   UNL     1       1.239  -3.259  -0.204  0.00  0.00    +0.054 C 
ATOM     20  C   UNL     1       0.441  -4.493  -0.697  0.00  0.00    +0.015 C 
ATOM     21  C   UNL     1       2.066  -2.692  -1.387  0.00  0.00    +0.015 C 
ENDBRANCH  14  15
ENDBRANCH   7  12
BRANCH   9   1
ATOM      1  O   UNL     1      -5.457   0.471  -0.815  0.00  0.00    -0.390 OA
ATOM     24  H   UNL     1      -5.855  -0.416  -0.797  0.00  0.00    +0.210 HD
ENDBRANCH   9   1
BRANCH   4  11
ATOM     11  C   UNL     1      -1.188   2.344   0.105  0.00  0.00    +0.120 C 
BRANCH  11  13
ATOM     13  C   UNL     1       0.283   2.024   0.090  0.00  0.00    -0.033 A 
ATOM     16  C   UNL     1       1.027   2.108   1.267  0.00  0.00    +0.008 A 
ATOM     17  C   UNL     1       0.902   1.643  -1.100  0.00  0.00    +0.008 A 
ATOM     18  C   UNL     1       2.390   1.812   1.254  0.00  0.00    +0.046 A 
ATOM     19  C   UNL     1       2.265   1.347  -1.114  0.00  0.00    +0.046 A 
ATOM     22  C   UNL     1       3.009   1.431   0.063  0.00  0.00    +0.120 A 
BRANCH  22   3
ATOM      3  O   UNL     1       4.339   1.141   0.050  0.00  0.00    -0.495 OA
ATOM     23  C   UNL     1       4.907   0.759  -1.202  0.00  0.00    +0.277 C 
ENDBRANCH  22   3
ENDBRANCH  11  13
ENDBRANCH   4  11
TORSDOF 6
