REMARK  Name = 11883015
REMARK  15 active torsions:
REMARK  status: ('A' for Active; 'I' for Inactive)
REMARK    1  A    between atoms: O_2  and  C_15
REMARK    2  A    between atoms: O_3  and  C_20
REMARK    3  A    between atoms: O_6  and  C_29
REMARK    4  A    between atoms: O_6  and  C_33
REMARK    5  A    between atoms: N_8  and  C_26
REMARK    6  A    between atoms: C_10  and  C_18
REMARK    7  A    between atoms: C_12  and  C_20
REMARK    8  A    between atoms: C_12  and  C_21
REMARK    9  A    between atoms: C_13  and  C_23
REMARK   10  A    between atoms: C_23  and  C_24
REMARK   11  A    between atoms: C_26  and  C_29
REMARK   12  A    between atoms: C_27  and  C_28
REMARK   13  A    between atoms: C_28  and  C_30
REMARK   14  A    between atoms: C_28  and  C_31
REMARK   15  A    between atoms: C_28  and  C_32
REMARK                            x       y       z     vdW  Elec       q    Type
REMARK                         _______ _______ _______ _____ _____    ______ ____
ROOT
ATOM      1  S   UNL     1       0.210   2.977   0.273  0.00  0.00    -0.057 S 
ATOM      5  O   UNL     1       4.010   0.390  -0.363  0.00  0.00    -0.275 OA
ATOM      7  N   UNL     1       1.083   0.578  -0.143  0.00  0.00    -0.229 NA
ATOM      9  N   UNL     1       2.736   2.325   0.012  0.00  0.00    -0.264 N 
ATOM     10  C   UNL     1      -2.534  -0.677   0.310  0.00  0.00    -0.019 C 
ATOM     11  C   UNL     1      -3.158   0.670  -0.266  0.00  0.00    +0.011 C 
ATOM     12  C   UNL     1      -4.728   0.808  -0.221  0.00  0.00    +0.021 C 
ATOM     13  C   UNL     1      -1.033  -0.793  -0.224  0.00  0.00    +0.054 C 
ATOM     14  C   UNL     1      -3.339  -1.889  -0.228  0.00  0.00    +0.010 C 
ATOM     15  C   UNL     1      -5.374  -0.504  -0.749  0.00  0.00    +0.123 C 
ATOM     16  C   UNL     1      -2.402   1.921   0.271  0.00  0.00    +0.049 C 
ATOM     17  C   UNL     1      -4.846  -1.755  -0.055  0.00  0.00    +0.032 C 
ATOM     18  C   UNL     1      -2.536  -0.728   1.858  0.00  0.00    +0.012 C 
ATOM     19  C   UNL     1      -0.295   0.510  -0.054  0.00  0.00    +0.058 A 
ATOM     21  C   UNL     1      -5.164   1.955  -1.177  0.00  0.00    +0.016 C 
ATOM     22  C   UNL     1      -0.930   1.718   0.149  0.00  0.00    +0.015 A 
ATOM     25  C   UNL     1       1.460   1.827   0.021  0.00  0.00    +0.165 A 
ATOM     27  C   UNL     1       3.931   1.602  -0.175  0.00  0.00    +0.224 C 
ATOM     37  H   UNL     1       2.793   3.328   0.160  0.00  0.00    +0.157 HD
ENDROOT
BRANCH  27  28
ATOM     28  C   UNL     1       5.207   2.480  -0.124  0.00  0.00    +0.039 C 
ATOM     30  C   UNL     1       6.459   1.608  -0.314  0.00  0.00    +0.020 C 
ATOM     31  C   UNL     1       5.148   3.567  -1.209  0.00  0.00    +0.020 C 
ATOM     32  C   UNL     1       5.300   3.170   1.250  0.00  0.00    +0.020 C 
ENDBRANCH  27  28
BRANCH  15   2
ATOM      2  O   UNL     1      -6.793  -0.462  -0.601  0.00  0.00    -0.391 OA
ATOM     34  H   UNL     1      -7.154  -1.278  -0.985  0.00  0.00    +0.210 HD
ENDBRANCH  15   2
BRANCH  12  20
ATOM     20  C   UNL     1      -5.299   1.184   1.165  0.00  0.00    +0.165 C 
BRANCH  20   3
ATOM      3  O   UNL     1      -6.700   1.281   1.042  0.00  0.00    -0.394 OA
ATOM     35  H   UNL     1      -7.051   1.527   1.915  0.00  0.00    +0.209 HD
ENDBRANCH  20   3
ENDBRANCH  12  20
BRANCH  13  23
ATOM     23  C   UNL     1      -0.237  -1.969   0.359  0.00  0.00    +0.106 C 
BRANCH  23  24
ATOM      4  O   UNL     1       1.079  -1.923  -1.670  0.00  0.00    -0.276 OA
ATOM      8  N   UNL     1       1.573  -3.482  -0.018  0.00  0.00    -0.313 N 
ATOM     24  C   UNL     1       0.861  -2.428  -0.572  0.00  0.00    +0.214 C 
ATOM     36  H   UNL     1       1.319  -3.822   0.905  0.00  0.00    +0.149 HD
BRANCH   8  26
ATOM     26  C   UNL     1       2.680  -4.125  -0.688  0.00  0.00    +0.132 C 
BRANCH  26  29
ATOM     29  C   UNL     1       4.000  -3.458  -0.348  0.00  0.00    +0.178 C 
BRANCH  29   6
ATOM      6  O   UNL     1       4.202  -3.499   1.058  0.00  0.00    -0.381 OA
ATOM     33  C   UNL     1       5.427  -2.879   1.427  0.00  0.00    +0.194 C 
ENDBRANCH  29   6
ENDBRANCH  26  29
ENDBRANCH   8  26
ENDBRANCH  23  24
ENDBRANCH  13  23
TORSDOF 9
