REMARK  Name = 75366994
REMARK  8 active torsions:
REMARK  status: ('A' for Active; 'I' for Inactive)
REMARK    1  A    between atoms: O_2  and  C_8
REMARK    2  A    between atoms: O_4  and  C_17
REMARK    3  A    between atoms: O_4  and  C_18
REMARK    4  A    between atoms: N_5  and  C_13
REMARK    5  A    between atoms: C_7  and  C_12
REMARK    6  A    between atoms: C_9  and  C_13
REMARK    7  A    between atoms: C_12  and  C_14
REMARK    8  A    between atoms: C_16  and  C_17
REMARK                            x       y       z     vdW  Elec       q    Type
REMARK                         _______ _______ _______ _____ _____    ______ ____
ROOT
ATOM     12  C   UNL     1       2.579  -1.926   0.299  0.00  0.00    +0.090 C 
ENDROOT
BRANCH  12   7
ATOM      1  O   UNL     1       3.064   0.365   0.734  0.00  0.00    -0.369 OA
ATOM      7  C   UNL     1       3.290  -0.680  -0.215  0.00  0.00    +0.125 C 
ATOM      8  C   UNL     1       5.175   1.482   0.178  0.00  0.00    +0.145 C 
ATOM      9  C   UNL     1       3.664   1.625   0.407  0.00  0.00    +0.160 C 
ATOM     10  C   UNL     1       4.786  -0.938  -0.386  0.00  0.00    +0.034 C 
ATOM     11  C   UNL     1       5.511   0.345  -0.783  0.00  0.00    +0.036 C 
BRANCH   8   2
ATOM      2  O   UNL     1       5.805   1.196   1.430  0.00  0.00    -0.389 OA
ATOM     24  H   UNL     1       6.764   1.155   1.273  0.00  0.00    +0.210 HD
ENDBRANCH   8   2
BRANCH   9  13
ATOM     13  C   UNL     1       2.945   2.292  -0.764  0.00  0.00    +0.112 C 
BRANCH  13   5
ATOM      5  N   UNL     1       1.522   2.426  -0.489  0.00  0.00    -0.328 NA
ATOM     25  H   UNL     1       1.111   1.505  -0.345  0.00  0.00    +0.118 HD
ATOM     26  H   UNL     1       1.055   2.825  -1.303  0.00  0.00    +0.118 HD
ENDBRANCH  13   5
ENDBRANCH   9  13
ENDBRANCH  12   7
BRANCH  12  14
ATOM      3  O   UNL     1      -0.775  -2.144  -1.001  0.00  0.00    -0.356 OA
ATOM      6  N   UNL     1       0.596  -2.353  -1.093  0.00  0.00    -0.083 NA
ATOM     14  C   UNL     1       1.097  -1.867   0.046  0.00  0.00    +0.086 A 
ATOM     15  C   UNL     1       0.100  -1.345   0.888  0.00  0.00    +0.074 A 
ATOM     16  C   UNL     1      -1.058  -1.544   0.183  0.00  0.00    +0.175 A 
BRANCH  16  17
ATOM     17  C   UNL     1      -2.472  -1.248   0.447  0.00  0.00    +0.306 C 
BRANCH  17   4
ATOM      4  O   UNL     1      -2.896  -0.122  -0.326  0.00  0.00    -0.484 OA
BRANCH   4  18
ATOM     18  C   UNL     1      -4.179   0.304  -0.128  0.00  0.00    +0.121 A 
ATOM     19  C   UNL     1      -4.999  -0.354   0.789  0.00  0.00    +0.045 A 
ATOM     20  C   UNL     1      -4.669   1.397  -0.843  0.00  0.00    +0.045 A 
ATOM     21  C   UNL     1      -6.309   0.081   0.991  0.00  0.00    +0.004 A 
ATOM     22  C   UNL     1      -5.979   1.832  -0.641  0.00  0.00    +0.004 A 
ATOM     23  C   UNL     1      -6.799   1.174   0.276  0.00  0.00    +0.000 A 
ENDBRANCH   4  18
ENDBRANCH  17   4
ENDBRANCH  16  17
ENDBRANCH  12  14
TORSDOF 8
