REMARK  Name = 38031273
REMARK  14 active torsions:
REMARK  status: ('A' for Active; 'I' for Inactive)
REMARK    1  A    between atoms: O_3  and  C_31
REMARK    2  A    between atoms: O_3  and  C_32
REMARK    3  A    between atoms: N_4  and  C_15
REMARK    4  A    between atoms: N_6  and  C_23
REMARK    5  A    between atoms: C_8  and  C_12
REMARK    6  A    between atoms: C_9  and  C_15
REMARK    7  A    between atoms: C_11  and  C_16
REMARK    8  A    between atoms: C_12  and  C_17
REMARK    9  A    between atoms: C_12  and  C_18
REMARK   10  A    between atoms: C_13  and  C_19
REMARK   11  A    between atoms: C_16  and  C_20
REMARK   12  A    between atoms: C_22  and  C_24
REMARK   13  A    between atoms: C_23  and  C_25
REMARK   14  A    between atoms: C_23  and  C_26
REMARK                            x       y       z     vdW  Elec       q    Type
REMARK                         _______ _______ _______ _____ _____    ______ ____
ROOT
ATOM      8  C   UNL     1       1.951   0.809  -1.389  0.00  0.00    +0.000 C 
ATOM      9  C   UNL     1       3.499   0.801  -1.436  0.00  0.00    +0.032 C 
ATOM     10  C   UNL     1       1.436   2.173  -0.906  0.00  0.00    +0.012 C 
ATOM     11  C   UNL     1       1.968   2.534   0.494  0.00  0.00    +0.024 C 
ATOM     13  C   UNL     1       3.460   2.295   0.608  0.00  0.00    -0.073 C 
ATOM     14  C   UNL     1       4.130   1.528  -0.272  0.00  0.00    -0.022 C 
ATOM     19  C   UNL     1       4.175   2.994   1.730  0.00  0.00    +0.039 C 
ENDROOT
BRANCH   8  12
ATOM     12  C   UNL     1       1.339   0.478  -2.754  0.00  0.00    -0.013 C 
ATOM     17  C   UNL     1      -0.067  -0.090  -2.583  0.00  0.00    +0.007 C 
ATOM     18  C   UNL     1       1.317   1.718  -3.643  0.00  0.00    +0.007 C 
ENDBRANCH   8  12
BRANCH   9  15
ATOM     15  C   UNL     1       4.043  -0.631  -1.499  0.00  0.00    +0.113 C 
BRANCH  15   4
ATOM      2  O   UNL     1       2.488  -3.047  -1.241  0.00  0.00    -0.253 OA
ATOM      4  N   UNL     1       3.747  -1.339  -0.294  0.00  0.00    -0.299 N 
ATOM      6  N   UNL     1       2.848  -2.993   1.050  0.00  0.00    -0.297 N 
ATOM     21  C   UNL     1       2.981  -2.511  -0.250  0.00  0.00    +0.300 C 
ATOM     33  H   UNL     1       4.167  -1.018   0.573  0.00  0.00    +0.150 HD
ATOM     34  H   UNL     1       3.227  -2.437   1.812  0.00  0.00    +0.150 HD
BRANCH   6  23
ATOM     23  C   UNL     1       2.105  -4.189   1.370  0.00  0.00    +0.068 C 
ATOM     25  C   UNL     1       0.640  -3.852   1.614  0.00  0.00    +0.027 C 
ATOM     26  C   UNL     1       2.718  -4.893   2.574  0.00  0.00    +0.027 C 
ENDBRANCH   6  23
ENDBRANCH  15   4
ENDBRANCH   9  15
BRANCH  11  16
ATOM     16  C   UNL     1       1.206   1.777   1.587  0.00  0.00    +0.105 C 
BRANCH  16  20
ATOM      1  O   UNL     1      -1.040   1.046   0.973  0.00  0.00    -0.420 OA
ATOM      5  N   UNL     1      -0.957   3.091   1.875  0.00  0.00    -0.112 NA
ATOM      7  N   UNL     1      -2.277   2.809   1.578  0.00  0.00    -0.107 NA
ATOM     20  C   UNL     1      -0.271   2.035   1.505  0.00  0.00    +0.218 A 
ATOM     22  C   UNL     1      -2.278   1.606   1.053  0.00  0.00    +0.248 A 
BRANCH  22  24
ATOM     24  C   UNL     1      -3.362   0.805   0.562  0.00  0.00    +0.039 A 
ATOM     27  C   UNL     1      -4.667   1.296   0.605  0.00  0.00    +0.017 A 
ATOM     28  C   UNL     1      -3.111  -0.464   0.041  0.00  0.00    +0.017 A 
ATOM     29  C   UNL     1      -5.721   0.517   0.126  0.00  0.00    +0.046 A 
ATOM     30  C   UNL     1      -4.164  -1.243  -0.437  0.00  0.00    +0.046 A 
ATOM     31  C   UNL     1      -5.469  -0.752  -0.394  0.00  0.00    +0.120 A 
BRANCH  31   3
ATOM      3  O   UNL     1      -6.497  -1.511  -0.864  0.00  0.00    -0.495 OA
ATOM     32  C   UNL     1      -6.169  -2.799  -1.383  0.00  0.00    +0.277 C 
ENDBRANCH  31   3
ENDBRANCH  22  24
ENDBRANCH  16  20
ENDBRANCH  11  16
TORSDOF 8
