REMARK  Name = 51137143
REMARK  7 active torsions:
REMARK  status: ('A' for Active; 'I' for Inactive)
REMARK    1  A    between atoms: S_1  and  C_19
REMARK    2  A    between atoms: S_1  and  C_26
REMARK    3  A    between atoms: N_5  and  C_11
REMARK    4  A    between atoms: C_7  and  C_12
REMARK    5  A    between atoms: C_11  and  C_13
REMARK    6  A    between atoms: C_16  and  C_23
REMARK    7  A    between atoms: C_26  and  C_27
REMARK                            x       y       z     vdW  Elec       q    Type
REMARK                         _______ _______ _______ _____ _____    ______ ____
ROOT
ATOM      2  O   UNL     1       1.272  -1.916   0.580  0.00  0.00    -0.439 OA
ATOM      6  N   UNL     1       1.152   0.294   0.093  0.00  0.00    -0.213 NA
ATOM     12  C   UNL     1       0.504  -0.801   0.423  0.00  0.00    +0.201 A 
ATOM     14  C   UNL     1       2.460  -0.120   0.024  0.00  0.00    +0.111 A 
ATOM     15  C   UNL     1       2.537  -1.473   0.321  0.00  0.00    +0.155 A 
ATOM     18  C   UNL     1       3.639   0.575  -0.281  0.00  0.00    +0.058 A 
ATOM     19  C   UNL     1       4.846  -0.138  -0.271  0.00  0.00    +0.090 A 
ATOM     20  C   UNL     1       3.713  -2.213   0.342  0.00  0.00    +0.050 A 
ATOM     21  C   UNL     1       4.880  -1.504   0.035  0.00  0.00    +0.030 A 
ENDROOT
BRANCH  12   7
ATOM      5  N   UNL     1      -3.081  -0.179  -0.006  0.00  0.00    -0.297 NA
ATOM      7  C   UNL     1      -0.979  -0.984   0.651  0.00  0.00    +0.090 C 
ATOM      8  C   UNL     1      -1.572  -0.117   1.775  0.00  0.00    +0.029 C 
ATOM      9  C   UNL     1      -1.820  -0.644  -0.587  0.00  0.00    +0.097 C 
ATOM     10  C   UNL     1      -2.688   0.680   1.111  0.00  0.00    +0.085 C 
BRANCH   5  11
ATOM     11  C   UNL     1      -3.915   0.518  -0.974  0.00  0.00    +0.119 C 
BRANCH  11  13
ATOM     13  C   UNL     1      -5.348   0.604  -0.521  0.00  0.00    -0.030 A 
ATOM     16  C   UNL     1      -6.193  -0.503  -0.598  0.00  0.00    -0.046 A 
ATOM     17  C   UNL     1      -5.828   1.813  -0.018  0.00  0.00    +0.005 A 
ATOM     22  C   UNL     1      -7.518  -0.401  -0.172  0.00  0.00    +0.003 A 
ATOM     23  C   UNL     1      -5.703  -1.808  -1.133  0.00  0.00    +0.044 C 
ATOM     24  C   UNL     1      -7.152   1.916   0.408  0.00  0.00    +0.000 A 
ATOM     25  C   UNL     1      -7.997   0.808   0.331  0.00  0.00    +0.000 A 
ENDBRANCH  11  13
ENDBRANCH   5  11
ENDBRANCH  12   7
BRANCH  19   1
ATOM      1  S   UNL     1       6.337   0.695  -0.648  0.00  0.00    -0.003 S 
ATOM      3  O   UNL     1       7.308  -0.276  -1.128  0.00  0.00    -0.169 OA
ATOM      4  O   UNL     1       6.004   1.853  -1.465  0.00  0.00    -0.169 OA
BRANCH   1  26
ATOM     26  C   UNL     1       6.921   1.283   0.924  0.00  0.00    +0.168 C 
ATOM     27  C   UNL     1       8.223   2.040   0.784  0.00  0.00    +0.028 C 
ENDBRANCH   1  26
ENDBRANCH  19   1
TORSDOF 5
