REMARK  Name = 38027864
REMARK  16 active torsions:
REMARK  status: ('A' for Active; 'I' for Inactive)
REMARK    1  A    between atoms: O_3  and  C_30
REMARK    2  A    between atoms: O_3  and  C_31
REMARK    3  A    between atoms: N_4  and  C_13
REMARK    4  A    between atoms: N_5  and  C_24
REMARK    5  A    between atoms: C_6  and  C_10
REMARK    6  A    between atoms: C_7  and  C_13
REMARK    7  A    between atoms: C_9  and  C_14
REMARK    8  A    between atoms: C_10  and  C_15
REMARK    9  A    between atoms: C_10  and  C_16
REMARK   10  A    between atoms: C_11  and  C_17
REMARK   11  A    between atoms: C_14  and  C_18
REMARK   12  A    between atoms: C_19  and  C_20
REMARK   13  A    between atoms: C_20  and  C_21
REMARK   14  A    between atoms: C_20  and  C_22
REMARK   15  A    between atoms: C_20  and  C_23
REMARK   16  A    between atoms: C_24  and  C_25
REMARK                            x       y       z     vdW  Elec       q    Type
REMARK                         _______ _______ _______ _____ _____    ______ ____
ROOT
ATOM      6  C   UNL     1       1.279   0.620  -1.486  0.00  0.00    +0.000 C 
ATOM      7  C   UNL     1       2.793   0.510  -1.798  0.00  0.00    +0.032 C 
ATOM      8  C   UNL     1       0.905   2.073  -1.156  0.00  0.00    +0.012 C 
ATOM      9  C   UNL     1       1.692   2.618   0.051  0.00  0.00    +0.023 C 
ATOM     11  C   UNL     1       3.172   2.308  -0.057  0.00  0.00    -0.073 C 
ATOM     12  C   UNL     1       3.646   1.372  -0.898  0.00  0.00    -0.022 C 
ATOM     17  C   UNL     1       4.099   3.132   0.793  0.00  0.00    +0.039 C 
ENDROOT
BRANCH   6  10
ATOM     10  C   UNL     1       0.420   0.115  -2.650  0.00  0.00    -0.013 C 
ATOM     15  C   UNL     1      -0.949  -0.331  -2.146  0.00  0.00    +0.007 C 
ATOM     16  C   UNL     1       0.279   1.197  -3.716  0.00  0.00    +0.007 C 
ENDBRANCH   6  10
BRANCH   7  13
ATOM     13  C   UNL     1       3.270  -0.945  -1.714  0.00  0.00    +0.112 C 
BRANCH  13   4
ATOM      2  O   UNL     1       1.717  -3.167  -0.836  0.00  0.00    -0.275 OA
ATOM      4  N   UNL     1       3.174  -1.434  -0.374  0.00  0.00    -0.314 N 
ATOM     19  C   UNL     1       2.388  -2.532  -0.022  0.00  0.00    +0.218 C 
ATOM     32  H   UNL     1       3.747  -0.990   0.336  0.00  0.00    +0.149 HD
BRANCH  19  20
ATOM     20  C   UNL     1       2.427  -2.898   1.477  0.00  0.00    +0.039 C 
ATOM     21  C   UNL     1       1.926  -1.717   2.321  0.00  0.00    +0.020 C 
ATOM     22  C   UNL     1       1.508  -4.107   1.730  0.00  0.00    +0.020 C 
ATOM     23  C   UNL     1       3.857  -3.276   1.890  0.00  0.00    +0.020 C 
ENDBRANCH  19  20
ENDBRANCH  13   4
ENDBRANCH   7  13
BRANCH   9  14
ATOM     14  C   UNL     1       1.116   2.092   1.370  0.00  0.00    +0.103 C 
BRANCH  14  18
ATOM      1  O   UNL     1      -0.919   3.344   0.992  0.00  0.00    -0.276 OA
ATOM      5  N   UNL     1      -0.995   1.387   2.244  0.00  0.00    -0.311 N 
ATOM     18  C   UNL     1      -0.365   2.370   1.494  0.00  0.00    +0.214 C 
ATOM     33  H   UNL     1      -0.449   0.617   2.619  0.00  0.00    +0.149 HD
BRANCH   5  24
ATOM     24  C   UNL     1      -2.411   1.397   2.527  0.00  0.00    +0.139 C 
BRANCH  24  25
ATOM     25  C   UNL     1      -3.200   0.668   1.478  0.00  0.00    -0.030 A 
ATOM     26  C   UNL     1      -4.185   1.339   0.753  0.00  0.00    +0.009 A 
ATOM     27  C   UNL     1      -2.946  -0.680   1.227  0.00  0.00    +0.009 A 
ATOM     28  C   UNL     1      -4.917   0.661  -0.222  0.00  0.00    +0.046 A 
ATOM     29  C   UNL     1      -3.678  -1.358   0.252  0.00  0.00    +0.046 A 
ATOM     30  C   UNL     1      -4.663  -0.687  -0.472  0.00  0.00    +0.120 A 
BRANCH  30   3
ATOM      3  O   UNL     1      -5.376  -1.348  -1.424  0.00  0.00    -0.495 OA
ATOM     31  C   UNL     1      -5.066  -2.726  -1.629  0.00  0.00    +0.277 C 
ENDBRANCH  30   3
ENDBRANCH  24  25
ENDBRANCH   5  24
ENDBRANCH  14  18
ENDBRANCH   9  14
TORSDOF 9
