REMARK  Name = 11882510
REMARK  5 active torsions:
REMARK  status: ('A' for Active; 'I' for Inactive)
REMARK    1  A    between atoms: N_6  and  C_14
REMARK    2  A    between atoms: CA_18  and  CB_21
REMARK    3  A    between atoms: CB_21  and  CG_23
REMARK    4  A    between atoms: C_22  and  C_27
REMARK    5  A    between atoms: C_25  and  C_30
REMARK                            x       y       z     vdW  Elec       q    Type
REMARK                         _______ _______ _______ _____ _____    ______ ____
ROOT
ATOM      1  O   TRP A   2       1.724  -3.686   0.748  0.00  0.00    -0.274 OA
ATOM      2  O   UNK A   1       0.402   1.461   0.404  0.00  0.00    -0.274 OA
ATOM      5  N   UNK A   1       0.259  -2.029   0.018  0.00  0.00    -0.288 N 
ATOM      7  N   TRP A   2       1.928  -0.170   0.940  0.00  0.00    -0.302 N 
ATOM     13  C   UNK A   1       0.163  -0.719  -0.632  0.00  0.00    +0.164 C 
ATOM     14  C   UNK A   1      -2.287  -0.733   0.062  0.00  0.00    +0.113 C 
ATOM     15  C   UNK A   1      -1.273  -0.361  -1.036  0.00  0.00    +0.059 C 
ATOM     16  C   UNK A   1      -2.129  -2.188   0.559  0.00  0.00    +0.046 C 
ATOM     17  C   UNK A   1      -0.914  -2.893  -0.041  0.00  0.00    +0.110 C 
ATOM     18  CA  TRP A   2       2.557  -1.442   0.623  0.00  0.00    +0.163 C 
ATOM     19  C   TRP A   2       1.478  -2.506   0.500  0.00  0.00    +0.237 C 
ATOM     20  C   UNK A   1       0.791   0.300   0.306  0.00  0.00    +0.234 C 
ATOM     34  H   TRP A   2       2.425   0.469   1.553  0.00  0.00    +0.150 HD
ENDROOT
BRANCH  14   6
ATOM      6  N   UNK A   1      -3.667  -0.423  -0.340  0.00  0.00    -0.236 N 
ATOM      8  N   UNK A   1      -4.219  -1.063  -1.377  0.00  0.00    -0.064 NA
ATOM      9  N   UNK A   1      -5.454  -0.590  -1.510  0.00  0.00    -0.124 NA
ATOM     22  C   UNK A   1      -4.515   0.472   0.222  0.00  0.00    +0.156 A 
ATOM     25  C   UNK A   1      -5.650   0.351  -0.538  0.00  0.00    +0.179 A 
BRANCH  22  27
ATOM      3  O   UNK A   1      -4.436   0.976   2.531  0.00  0.00    -0.269 OA
ATOM     11  N   UNK A   1      -3.692   2.579   1.091  0.00  0.00    -0.324 N 
ATOM     27  C   UNK A   1      -4.238   1.314   1.341  0.00  0.00    +0.262 C 
ATOM     36  H   UNK A   1      -3.499   2.904   0.149  0.00  0.00    +0.145 HD
ATOM     37  H   UNK A   1      -3.470   3.211   1.852  0.00  0.00    +0.145 HD
ENDBRANCH  22  27
BRANCH  25  30
ATOM      4  O   UNK A   1      -7.066   1.946   0.482  0.00  0.00    -0.269 OA
ATOM     12  N   UNK A   1      -7.914   0.781  -1.284  0.00  0.00    -0.324 N 
ATOM     30  C   UNK A   1      -6.879   1.067  -0.389  0.00  0.00    +0.264 C 
ATOM     38  H   UNK A   1      -7.816   0.085  -2.017  0.00  0.00    +0.145 HD
ATOM     39  H   UNK A   1      -8.803   1.267  -1.226  0.00  0.00    +0.145 HD
ENDBRANCH  25  30
ENDBRANCH  14   6
BRANCH  18  21
ATOM     21  CB  TRP A   2       3.457  -1.377  -0.601  0.00  0.00    +0.069 C 
BRANCH  21  23
ATOM     10  NE1 TRP A   2       6.870  -0.451   0.306  0.00  0.00    -0.360 N 
ATOM     23  CG  TRP A   2       4.779  -0.725  -0.289  0.00  0.00    -0.020 A 
ATOM     24  CD2 TRP A   2       5.057   0.649  -0.388  0.00  0.00    +0.003 A 
ATOM     26  CD1 TRP A   2       5.887  -1.388   0.134  0.00  0.00    +0.087 A 
ATOM     28  CE2 TRP A   2       6.392   0.802  -0.005  0.00  0.00    +0.047 A 
ATOM     29  CE3 TRP A   2       4.324   1.792  -0.763  0.00  0.00    +0.010 A 
ATOM     31  CZ2 TRP A   2       7.031   2.046   0.022  0.00  0.00    +0.026 A 
ATOM     32  CZ3 TRP A   2       4.950   3.043  -0.740  0.00  0.00    +0.001 A 
ATOM     33  CH2 TRP A   2       6.284   3.166  -0.354  0.00  0.00    +0.002 A 
ATOM     35  HE1 TRP A   2       7.811  -0.649   0.617  0.00  0.00    +0.165 HD
ENDBRANCH  21  23
ENDBRANCH  18  21
TORSDOF 5
