REMARK  Name = 75536792
REMARK  6 active torsions:
REMARK  status: ('A' for Active; 'I' for Inactive)
REMARK    1  A    between atoms: O_4  and  C_11
REMARK    2  A    between atoms: N_6  and  C_9
REMARK    3  A    between atoms: N_6  and  C_10
REMARK    4  A    between atoms: N_7  and  C_19
REMARK    5  A    between atoms: C_14  and  C_19
REMARK    6  A    between atoms: C_20  and  C_21
REMARK                            x       y       z     vdW  Elec       q    Type
REMARK                         _______ _______ _______ _____ _____    ______ ____
ROOT
ATOM      3  O   UNL     1       0.555   0.317  -1.027  0.00  0.00    -0.371 OA
ATOM     10  C   UNL     1      -1.536  -0.483  -0.232  0.00  0.00    +0.111 C 
ATOM     11  C   UNL     1      -0.514  -1.602  -0.149  0.00  0.00    +0.164 C 
ATOM     14  C   UNL     1       0.788  -0.812  -0.168  0.00  0.00    +0.165 C 
ATOM     15  C   UNL     1      -0.864   0.466  -1.211  0.00  0.00    +0.181 C 
ENDROOT
BRANCH  11   4
ATOM      4  O   UNL     1      -0.645  -2.375   1.029  0.00  0.00    -0.388 OA
ATOM     27  H   UNL     1      -0.583  -1.778   1.794  0.00  0.00    +0.210 HD
ENDBRANCH  11   4
BRANCH  10   6
ATOM      6  N   UNL     1      -2.848  -0.923  -0.679  0.00  0.00    -0.306 NA
ATOM     26  H   UNL     1      -3.104  -1.794  -0.216  0.00  0.00    +0.123 HD
BRANCH   6   9
ATOM      1  F   UNL     1      -7.191  -0.305   0.665  0.00  0.00    -0.206 F 
ATOM      2  F   UNL     1      -7.485   1.849   0.652  0.00  0.00    -0.206 F 
ATOM      9  C   UNL     1      -3.856   0.101  -0.410  0.00  0.00    +0.054 C 
ATOM     12  C   UNL     1      -4.290   0.030   1.060  0.00  0.00    +0.024 C 
ATOM     13  C   UNL     1      -5.052  -0.088  -1.351  0.00  0.00    +0.024 C 
ATOM     16  C   UNL     1      -5.396   1.040   1.361  0.00  0.00    +0.077 C 
ATOM     17  C   UNL     1      -6.159   0.921  -1.051  0.00  0.00    +0.077 C 
ATOM     18  C   UNL     1      -6.571   0.877   0.411  0.00  0.00    +0.249 C 
ENDBRANCH   6   9
ENDBRANCH  10   6
BRANCH  14  19
ATOM     19  C   UNL     1       1.969  -1.615  -0.684  0.00  0.00    +0.138 C 
BRANCH  19   7
ATOM      5  O   UNL     1       3.868  -1.376   1.456  0.00  0.00    -0.270 OA
ATOM      7  N   UNL     1       3.170  -0.831  -0.688  0.00  0.00    -0.309 N 
ATOM     20  C   UNL     1       4.037  -0.774   0.399  0.00  0.00    +0.244 C 
ATOM     28  H   UNL     1       3.335  -0.255  -1.507  0.00  0.00    +0.149 HD
BRANCH  20  21
ATOM      8  N   UNL     1       7.457   1.762  -0.041  0.00  0.00    -0.263 NA
ATOM     21  C   UNL     1       5.225   0.105   0.246  0.00  0.00    +0.040 A 
ATOM     22  C   UNL     1       5.819   0.676   1.366  0.00  0.00    +0.033 A 
ATOM     23  C   UNL     1       5.745   0.362  -1.017  0.00  0.00    +0.033 A 
ATOM     24  C   UNL     1       6.923   1.490   1.170  0.00  0.00    +0.111 A 
ATOM     25  C   UNL     1       6.853   1.190  -1.107  0.00  0.00    +0.111 A 
ENDBRANCH  20  21
ENDBRANCH  19   7
ENDBRANCH  14  19
TORSDOF 6
