REMARK  Name = 26743312
REMARK  9 active torsions:
REMARK  status: ('A' for Active; 'I' for Inactive)
REMARK    1  A    between atoms: C_6  and  C_10
REMARK    2  A    between atoms: C_7  and  C_12
REMARK    3  A    between atoms: C_10  and  C_13
REMARK    4  A    between atoms: C_12  and  C_14
REMARK    5  A    between atoms: C_21  and  C_22
REMARK    6  A    between atoms: C_23  and  C_24
REMARK    7  A    between atoms: C_23  and  C_29
REMARK    8  A    between atoms: C_23  and  C_30
REMARK    9  A    between atoms: C_23  and  C_31
REMARK                            x       y       z     vdW  Elec       q    Type
REMARK                         _______ _______ _______ _____ _____    ______ ____
ROOT
ATOM      3  N   UNL     1       1.693   3.229   1.278  0.00  0.00    -0.316 NA
ATOM      6  C   UNL     1       3.184   1.451  -0.545  0.00  0.00    +0.004 C 
ATOM      7  C   UNL     1       1.665   1.302  -0.288  0.00  0.00    +0.012 C 
ATOM      8  C   UNL     1       3.602   2.902  -0.257  0.00  0.00    +0.019 C 
ATOM      9  C   UNL     1       1.268   1.840   1.097  0.00  0.00    +0.085 C 
ATOM     11  C   UNL     1       3.138   3.380   1.119  0.00  0.00    +0.081 C 
ATOM     32  H   UNL     1       1.421   3.547   2.207  0.00  0.00    +0.122 HD
ENDROOT
BRANCH   6  10
ATOM     10  C   UNL     1       4.051   0.465   0.248  0.00  0.00    +0.100 C 
BRANCH  10  13
ATOM      1  O   UNL     1       5.638   0.947  -1.444  0.00  0.00    -0.276 OA
ATOM      4  N   UNL     1       6.308  -0.538   0.212  0.00  0.00    -0.301 N 
ATOM     13  C   UNL     1       5.400   0.319  -0.409  0.00  0.00    +0.216 C 
ATOM     15  C   UNL     1       7.638  -0.735  -0.366  0.00  0.00    +0.108 C 
ATOM     16  C   UNL     1       6.069  -1.264   1.467  0.00  0.00    +0.108 C 
ATOM     17  C   UNL     1       7.926  -2.218  -0.583  0.00  0.00    +0.019 C 
ATOM     18  C   UNL     1       6.328  -2.758   1.286  0.00  0.00    +0.019 C 
ATOM     19  C   UNL     1       7.717  -3.015   0.703  0.00  0.00    +0.003 C 
ENDBRANCH  10  13
ENDBRANCH   6  10
BRANCH   7  12
ATOM     12  C   UNL     1       1.164  -0.132  -0.470  0.00  0.00    +0.064 C 
BRANCH  12  14
ATOM      2  O   UNL     1      -2.142  -0.160  -1.895  0.00  0.00    -0.354 OA
ATOM      5  N   UNL     1      -0.758  -0.108  -2.002  0.00  0.00    -0.083 NA
ATOM     14  C   UNL     1      -0.311  -0.165  -0.744  0.00  0.00    +0.085 A 
ATOM     20  C   UNL     1      -1.358  -0.253   0.190  0.00  0.00    +0.076 A 
ATOM     21  C   UNL     1      -2.488  -0.246  -0.585  0.00  0.00    +0.167 A 
BRANCH  21  22
ATOM     22  C   UNL     1      -3.895  -0.308  -0.317  0.00  0.00    +0.020 A 
ATOM     24  C   UNL     1      -6.633  -0.427   0.206  0.00  0.00    -0.042 A 
ATOM     25  C   UNL     1      -4.351  -0.398   0.999  0.00  0.00    +0.012 A 
ATOM     26  C   UNL     1      -4.808  -0.277  -1.371  0.00  0.00    +0.012 A 
ATOM     27  C   UNL     1      -5.720  -0.458   1.260  0.00  0.00    +0.005 A 
ATOM     28  C   UNL     1      -6.177  -0.336  -1.109  0.00  0.00    +0.005 A 
BRANCH  24  23
ATOM     23  C   UNL     1      -8.096  -0.491   0.485  0.00  0.00    -0.013 C 
ATOM     29  C   UNL     1      -8.472  -1.807   1.234  0.00  0.00    +0.015 C 
ATOM     30  C   UNL     1      -8.555   0.705   1.377  0.00  0.00    +0.015 C 
ATOM     31  C   UNL     1      -9.023  -0.450  -0.775  0.00  0.00    +0.015 C 
ENDBRANCH  24  23
ENDBRANCH  21  22
ENDBRANCH  12  14
ENDBRANCH   7  12
TORSDOF 6
