REMARK  Name = 45784117
REMARK  13 active torsions:
REMARK  status: ('A' for Active; 'I' for Inactive)
REMARK    1  A    between atoms: N_3  and  C_17
REMARK    2  A    between atoms: N_3  and  C_23
REMARK    3  A    between atoms: N_7  and  C_32
REMARK    4  A    between atoms: N_8  and  C_29
REMARK    5  A    between atoms: C_10  and  C_14
REMARK    6  A    between atoms: C_11  and  C_17
REMARK    7  A    between atoms: C_13  and  C_18
REMARK    8  A    between atoms: C_14  and  C_19
REMARK    9  A    between atoms: C_14  and  C_20
REMARK   10  A    between atoms: C_15  and  C_21
REMARK   11  A    between atoms: C_18  and  C_22
REMARK   12  A    between atoms: C_24  and  C_27
REMARK   13  A    between atoms: C_33  and  C_34
REMARK                            x       y       z     vdW  Elec       q    Type
REMARK                         _______ _______ _______ _____ _____    ______ ____
ROOT
ATOM     10  C   UNL     1       0.688  -1.649  -1.256  0.00  0.00    +0.000 C 
ATOM     11  C   UNL     1      -0.454  -2.688  -1.133  0.00  0.00    +0.032 C 
ATOM     12  C   UNL     1       2.016  -2.253  -0.774  0.00  0.00    +0.012 C 
ATOM     13  C   UNL     1       1.943  -2.728   0.689  0.00  0.00    +0.024 C 
ATOM     15  C   UNL     1       0.694  -3.542   0.955  0.00  0.00    -0.073 C 
ATOM     16  C   UNL     1      -0.362  -3.522   0.123  0.00  0.00    -0.022 C 
ATOM     21  C   UNL     1       0.703  -4.417   2.178  0.00  0.00    +0.039 C 
ENDROOT
BRANCH  10  14
ATOM     14  C   UNL     1       0.841  -1.138  -2.692  0.00  0.00    -0.013 C 
ATOM     19  C   UNL     1       1.652  -2.126  -3.524  0.00  0.00    +0.007 C 
ATOM     20  C   UNL     1       1.494   0.240  -2.700  0.00  0.00    +0.007 C 
ENDBRANCH  10  14
BRANCH  11  17
ATOM     17  C   UNL     1      -1.828  -2.010  -1.197  0.00  0.00    +0.109 C 
BRANCH  17   3
ATOM      3  N   UNL     1      -1.994  -1.154  -0.055  0.00  0.00    -0.342 N 
ATOM     35  H   UNL     1      -1.266  -1.110   0.650  0.00  0.00    +0.146 HD
BRANCH   3  23
ATOM      6  N   UNL     1      -5.343   0.293  -0.512  0.00  0.00    -0.238 NA
ATOM     23  C   UNL     1      -3.133  -0.395   0.187  0.00  0.00    +0.046 A 
ATOM     25  C   UNL     1      -3.229   0.413   1.314  0.00  0.00    +0.028 A 
ATOM     26  C   UNL     1      -4.208  -0.420  -0.687  0.00  0.00    +0.135 A 
ATOM     28  C   UNL     1      -4.381   1.162   1.529  0.00  0.00    +0.045 A 
ATOM     29  C   UNL     1      -5.400   1.068   0.595  0.00  0.00    +0.125 A 
BRANCH  29   8
ATOM      2  O   UNL     1      -7.929   1.304  -1.023  0.00  0.00    -0.276 OA
ATOM      8  N   UNL     1      -6.556   1.824   0.821  0.00  0.00    -0.271 N 
ATOM     33  C   UNL     1      -7.707   1.895   0.030  0.00  0.00    +0.215 C 
ATOM     34  C   UNL     1      -8.734   2.825   0.625  0.00  0.00    +0.109 C 
ATOM     36  H   UNL     1      -6.550   2.389   1.668  0.00  0.00    +0.156 HD
ENDBRANCH  29   8
ENDBRANCH   3  23
ENDBRANCH  17   3
ENDBRANCH  11  17
BRANCH  13  18
ATOM     18  C   UNL     1       2.045  -1.546   1.659  0.00  0.00    +0.105 C 
BRANCH  18  22
ATOM      1  O   UNL     1       3.162   0.434   0.772  0.00  0.00    -0.419 OA
ATOM      4  N   UNL     1       4.537  -1.026   1.764  0.00  0.00    -0.112 NA
ATOM      5  N   UNL     1       5.296   0.037   1.312  0.00  0.00    -0.106 NA
ATOM     22  C   UNL     1       3.298  -0.751   1.428  0.00  0.00    +0.218 A 
ATOM     24  C   UNL     1       4.453   0.864   0.740  0.00  0.00    +0.266 A 
BRANCH  24  27
ATOM      7  N   UNL     1       4.065   3.205   0.068  0.00  0.00    -0.329 N 
ATOM      9  N   UNL     1       5.987   3.739  -0.908  0.00  0.00    -0.243 NA
ATOM     27  C   UNL     1       4.847   2.087   0.145  0.00  0.00    +0.125 A 
ATOM     30  C   UNL     1       6.028   2.441  -0.464  0.00  0.00    +0.143 A 
ATOM     31  C   UNL     1       4.792   4.170  -0.572  0.00  0.00    +0.199 A 
ATOM     32  C   UNL     1       2.718   3.366   0.564  0.00  0.00    +0.150 C 
ENDBRANCH  24  27
ENDBRANCH  18  22
ENDBRANCH  13  18
TORSDOF 8
