REMARK  Name = 7143818
REMARK  5 active torsions:
REMARK  status: ('A' for Active; 'I' for Inactive)
REMARK    1  A    between atoms: S_1  and  N_7
REMARK    2  A    between atoms: S_1  and  C_20
REMARK    3  A    between atoms: O_6  and  C_27
REMARK    4  A    between atoms: O_6  and  C_30
REMARK    5  A    between atoms: C_18  and  C_21
REMARK                            x       y       z     vdW  Elec       q    Type
REMARK                         _______ _______ _______ _____ _____    ______ ____
ROOT
ATOM      4  O   UNL     1      -3.786   0.884  -1.625  0.00  0.00    -0.267 OA
ATOM      7  N   UNL     1       0.999   0.030  -0.521  0.00  0.00    -0.176 NA
ATOM      8  N   UNL     1      -1.931   1.178  -0.242  0.00  0.00    -0.311 N 
ATOM      9  C   UNL     1       0.209   2.342  -1.034  0.00  0.00    +0.025 C 
ATOM     10  C   UNL     1       0.064   1.487   1.263  0.00  0.00    +0.052 C 
ATOM     11  C   UNL     1       0.372   2.728   0.430  0.00  0.00    +0.017 C 
ATOM     12  C   UNL     1       1.184   1.214  -1.408  0.00  0.00    +0.114 C 
ATOM     13  C   UNL     1       1.078   0.378   0.929  0.00  0.00    +0.119 C 
ATOM     14  C   UNL     1      -1.255   1.959  -1.287  0.00  0.00    +0.130 C 
ATOM     15  C   UNL     1      -1.351   1.000   1.016  0.00  0.00    +0.026 A 
ATOM     16  C   UNL     1      -2.037   0.383   1.992  0.00  0.00    +0.022 A 
ATOM     17  C   UNL     1      -3.228   0.715  -0.539  0.00  0.00    +0.262 A 
ATOM     18  C   UNL     1      -3.957  -0.004   0.564  0.00  0.00    +0.082 A 
ATOM     19  C   UNL     1      -3.356  -0.130   1.756  0.00  0.00    +0.018 A 
ENDROOT
BRANCH  18  21
ATOM      5  O   UNL     1      -5.721  -1.020  -0.870  0.00  0.00    -0.463 OA
ATOM     21  C   UNL     1      -5.300  -0.571   0.348  0.00  0.00    +0.140 A 
ATOM     26  C   UNL     1      -6.305  -0.739   1.282  0.00  0.00    +0.050 A 
ATOM     28  C   UNL     1      -7.397  -1.321   0.597  0.00  0.00    +0.042 A 
ATOM     29  C   UNL     1      -6.992  -1.473  -0.709  0.00  0.00    +0.196 A 
ENDBRANCH  18  21
BRANCH   7   1
ATOM      1  S   UNL     1       1.841  -1.384  -0.990  0.00  0.00    +0.061 S 
ATOM      2  O   UNL     1       1.812  -1.496  -2.433  0.00  0.00    -0.153 OA
ATOM      3  O   UNL     1       1.418  -2.484  -0.149  0.00  0.00    -0.153 OA
BRANCH   1  20
ATOM     20  C   UNL     1       3.482  -0.939  -0.516  0.00  0.00    +0.106 A 
ATOM     22  C   UNL     1       3.925  -1.242   0.761  0.00  0.00    +0.032 A 
ATOM     23  C   UNL     1       4.300  -0.293  -1.430  0.00  0.00    +0.032 A 
ATOM     24  C   UNL     1       5.222  -0.890   1.135  0.00  0.00    +0.047 A 
ATOM     25  C   UNL     1       5.597   0.059  -1.055  0.00  0.00    +0.047 A 
ATOM     27  C   UNL     1       6.058  -0.240   0.227  0.00  0.00    +0.120 A 
BRANCH  27   6
ATOM      6  O   UNL     1       7.324   0.103   0.592  0.00  0.00    -0.495 OA
ATOM     30  C   UNL     1       7.731  -0.233   1.917  0.00  0.00    +0.277 C 
ENDBRANCH  27   6
ENDBRANCH   1  20
ENDBRANCH   7   1
TORSDOF 4
