REMARK  Name = 38027716
REMARK  14 active torsions:
REMARK  status: ('A' for Active; 'I' for Inactive)
REMARK    1  A    between atoms: O_3  and  C_22
REMARK    2  A    between atoms: O_3  and  C_29
REMARK    3  A    between atoms: N_4  and  C_13
REMARK    4  A    between atoms: N_5  and  C_20
REMARK    5  A    between atoms: C_6  and  C_10
REMARK    6  A    between atoms: C_7  and  C_13
REMARK    7  A    between atoms: C_9  and  C_14
REMARK    8  A    between atoms: C_10  and  C_15
REMARK    9  A    between atoms: C_10  and  C_16
REMARK   10  A    between atoms: C_11  and  C_17
REMARK   11  A    between atoms: C_14  and  C_18
REMARK   12  A    between atoms: C_19  and  C_21
REMARK   13  A    between atoms: C_20  and  C_22
REMARK   14  A    between atoms: C_27  and  C_28
REMARK                            x       y       z     vdW  Elec       q    Type
REMARK                         _______ _______ _______ _____ _____    ______ ____
ROOT
ATOM      6  C   UNL     1      -1.036  -1.873   0.508  0.00  0.00    +0.000 C 
ATOM      7  C   UNL     1      -0.294  -2.990  -0.268  0.00  0.00    +0.032 C 
ATOM      8  C   UNL     1      -2.273  -1.407  -0.275  0.00  0.00    +0.012 C 
ATOM      9  C   UNL     1      -1.910  -0.872  -1.673  0.00  0.00    +0.023 C 
ATOM     11  C   UNL     1      -0.958  -1.799  -2.401  0.00  0.00    -0.073 C 
ATOM     12  C   UNL     1      -0.254  -2.748  -1.758  0.00  0.00    -0.022 C 
ATOM     17  C   UNL     1      -0.867  -1.640  -3.893  0.00  0.00    +0.039 C 
ENDROOT
BRANCH   6  10
ATOM     10  C   UNL     1      -1.451  -2.333   1.909  0.00  0.00    -0.013 C 
ATOM     15  C   UNL     1      -1.613  -1.133   2.837  0.00  0.00    +0.007 C 
ATOM     16  C   UNL     1      -2.742  -3.143   1.841  0.00  0.00    +0.007 C 
ENDBRANCH   6  10
BRANCH   7  13
ATOM     13  C   UNL     1       1.135  -3.173   0.258  0.00  0.00    +0.112 C 
BRANCH  13   4
ATOM      2  O   UNL     1       2.440  -1.515   2.205  0.00  0.00    -0.270 OA
ATOM      4  N   UNL     1       1.925  -2.011  -0.003  0.00  0.00    -0.311 N 
ATOM     19  C   UNL     1       2.526  -1.260   1.006  0.00  0.00    +0.244 C 
ATOM     30  H   UNL     1       2.117  -1.791  -0.975  0.00  0.00    +0.149 HD
BRANCH  19  21
ATOM     21  C   UNL     1       3.293  -0.064   0.572  0.00  0.00    +0.037 A 
ATOM     23  C   UNL     1       4.348   0.409   1.352  0.00  0.00    +0.013 A 
ATOM     24  C   UNL     1       2.958   0.586  -0.616  0.00  0.00    +0.013 A 
ATOM     25  C   UNL     1       5.068   1.532   0.944  0.00  0.00    +0.004 A 
ATOM     26  C   UNL     1       3.677   1.709  -1.024  0.00  0.00    +0.004 A 
ATOM     27  C   UNL     1       4.732   2.182  -0.244  0.00  0.00    -0.050 A 
ATOM     28  C   UNL     1       5.502   3.383  -0.679  0.00  0.00    +0.044 C 
ENDBRANCH  19  21
ENDBRANCH  13   4
ENDBRANCH   7  13
BRANCH   9  14
ATOM     14  C   UNL     1      -1.338   0.548  -1.589  0.00  0.00    +0.103 C 
BRANCH  14  18
ATOM      1  O   UNL     1      -3.575   1.466  -1.673  0.00  0.00    -0.276 OA
ATOM      5  N   UNL     1      -1.894   2.643  -0.582  0.00  0.00    -0.313 N 
ATOM     18  C   UNL     1      -2.408   1.577  -1.304  0.00  0.00    +0.214 C 
ATOM     31  H   UNL     1      -0.912   2.646  -0.322  0.00  0.00    +0.149 HD
BRANCH   5  20
ATOM     20  C   UNL     1      -2.692   3.776  -0.171  0.00  0.00    +0.132 C 
BRANCH  20  22
ATOM     22  C   UNL     1      -3.318   3.550   1.193  0.00  0.00    +0.178 C 
BRANCH  22   3
ATOM      3  O   UNL     1      -4.183   2.424   1.135  0.00  0.00    -0.381 OA
ATOM     29  C   UNL     1      -4.800   2.175   2.391  0.00  0.00    +0.194 C 
ENDBRANCH  22   3
ENDBRANCH  20  22
ENDBRANCH   5  20
ENDBRANCH  14  18
ENDBRANCH   9  14
TORSDOF 9
