REMARK  Name = 75536110
REMARK  8 active torsions:
REMARK  status: ('A' for Active; 'I' for Inactive)
REMARK    1  A    between atoms: O_1  and  C_8
REMARK    2  A    between atoms: O_2  and  C_10
REMARK    3  A    between atoms: O_3  and  C_22
REMARK    4  A    between atoms: O_3  and  C_23
REMARK    5  A    between atoms: N_4  and  C_6
REMARK    6  A    between atoms: N_4  and  C_12
REMARK    7  A    between atoms: C_7  and  C_11
REMARK    8  A    between atoms: C_12  and  C_15
REMARK                            x       y       z     vdW  Elec       q    Type
REMARK                         _______ _______ _______ _____ _____    ______ ____
ROOT
ATOM      6  C   UNL     1       1.244   0.982  -0.566  0.00  0.00    +0.093 C 
ATOM      7  C   UNL     1       1.996   0.332   0.637  0.00  0.00    +0.042 C 
ATOM      8  C   UNL     1       1.796   2.414  -0.657  0.00  0.00    +0.160 C 
ATOM      9  C   UNL     1       2.931   1.425   1.189  0.00  0.00    +0.043 C 
ATOM     10  C   UNL     1       2.258   2.722   0.764  0.00  0.00    +0.145 C 
ENDROOT
BRANCH   7  11
ATOM      5  N   UNL     1       3.026  -3.319   0.681  0.00  0.00    -0.263 NA
ATOM     11  C   UNL     1       2.718  -0.953   0.291  0.00  0.00    -0.025 A 
ATOM     13  C   UNL     1       3.705  -0.978  -0.688  0.00  0.00    +0.007 A 
ATOM     14  C   UNL     1       2.419  -2.139   0.941  0.00  0.00    +0.114 A 
ATOM     16  C   UNL     1       4.352  -2.173  -0.984  0.00  0.00    +0.020 A 
ATOM     17  C   UNL     1       3.980  -3.305  -0.277  0.00  0.00    +0.111 A 
ENDBRANCH   7  11
BRANCH   8   1
ATOM      1  O   UNL     1       2.902   2.412  -1.558  0.00  0.00    -0.388 OA
ATOM     25  H   UNL     1       2.557   2.198  -2.442  0.00  0.00    +0.210 HD
ENDBRANCH   8   1
BRANCH  10   2
ATOM      2  O   UNL     1       3.156   3.812   0.820  0.00  0.00    -0.389 OA
ATOM     26  H   UNL     1       3.471   3.884   1.737  0.00  0.00    +0.210 HD
ENDBRANCH  10   2
BRANCH   6   4
ATOM      4  N   UNL     1      -0.193   1.019  -0.283  0.00  0.00    -0.306 NA
ATOM     24  H   UNL     1      -0.636   1.707  -0.892  0.00  0.00    +0.123 HD
BRANCH   4  12
ATOM     12  C   UNL     1      -0.804  -0.280  -0.528  0.00  0.00    +0.116 C 
BRANCH  12  15
ATOM     15  C   UNL     1      -2.281  -0.268  -0.236  0.00  0.00    -0.033 A 
ATOM     18  C   UNL     1      -2.732  -0.299   1.084  0.00  0.00    +0.008 A 
ATOM     19  C   UNL     1      -3.198  -0.226  -1.286  0.00  0.00    +0.008 A 
ATOM     20  C   UNL     1      -4.100  -0.289   1.353  0.00  0.00    +0.046 A 
ATOM     21  C   UNL     1      -4.567  -0.215  -1.016  0.00  0.00    +0.046 A 
ATOM     22  C   UNL     1      -5.018  -0.247   0.304  0.00  0.00    +0.120 A 
BRANCH  22   3
ATOM      3  O   UNL     1      -6.353  -0.235   0.567  0.00  0.00    -0.495 OA
ATOM     23  C   UNL     1      -7.235  -0.192  -0.554  0.00  0.00    +0.277 C 
ENDBRANCH  22   3
ENDBRANCH  12  15
ENDBRANCH   4  12
ENDBRANCH   6   4
TORSDOF 7
