REMARK  Name = 40567551
REMARK  12 active torsions:
REMARK  status: ('A' for Active; 'I' for Inactive)
REMARK    1  A    between atoms: O_1  and  C_10
REMARK    2  A    between atoms: O_2  and  C_11
REMARK    3  A    between atoms: N_6  and  C_9
REMARK    4  A    between atoms: N_7  and  C_22
REMARK    5  A    between atoms: C_14  and  C_21
REMARK    6  A    between atoms: C_15  and  C_16
REMARK    7  A    between atoms: C_15  and  C_18
REMARK    8  A    between atoms: C_15  and  C_19
REMARK    9  A    between atoms: C_15  and  C_20
REMARK   10  A    between atoms: C_16  and  C_17
REMARK   11  A    between atoms: C_22  and  C_23
REMARK   12  A    between atoms: C_22  and  C_24
REMARK                            x       y       z     vdW  Elec       q    Type
REMARK                         _______ _______ _______ _____ _____    ______ ____
ROOT
ATOM      9  C   UNL     1      -1.109   1.345  -0.152  0.00  0.00    +0.127 C 
ATOM     10  C   UNL     1      -0.978   2.498   0.861  0.00  0.00    +0.167 C 
ATOM     11  C   UNL     1       0.146   3.465   0.470  0.00  0.00    +0.149 C 
ATOM     12  C   UNL     1       1.496   2.747   0.304  0.00  0.00    +0.074 C 
ATOM     13  C   UNL     1       0.216   0.761  -0.563  0.00  0.00    +0.006 C 
ATOM     14  C   UNL     1       1.377   1.397  -0.344  0.00  0.00    +0.015 C 
ENDROOT
BRANCH   9   6
ATOM      3  O   UNL     1      -3.980   1.104  -0.425  0.00  0.00    -0.276 OA
ATOM      6  N   UNL     1      -1.948   0.286   0.352  0.00  0.00    -0.306 N 
ATOM     17  C   UNL     1      -3.321   0.255   0.172  0.00  0.00    +0.214 C 
ATOM     25  H   UNL     1      -1.510  -0.450   0.899  0.00  0.00    +0.149 HD
BRANCH  17  16
ATOM     16  C   UNL     1      -3.977  -0.961   0.805  0.00  0.00    +0.102 C 
BRANCH  16  15
ATOM     15  C   UNL     1      -4.134  -2.176  -0.140  0.00  0.00    -0.029 C 
ATOM     18  C   UNL     1      -4.818  -3.352   0.579  0.00  0.00    +0.011 C 
ATOM     19  C   UNL     1      -5.022  -1.748  -1.324  0.00  0.00    +0.011 C 
ATOM     20  C   UNL     1      -2.777  -2.640  -0.693  0.00  0.00    +0.011 C 
ENDBRANCH  16  15
ENDBRANCH  17  16
ENDBRANCH   9   6
BRANCH  14  21
ATOM      4  O   UNL     1       3.348   1.266  -1.615  0.00  0.00    -0.271 OA
ATOM      7  N   UNL     1       2.803  -0.497  -0.189  0.00  0.00    -0.301 N 
ATOM     21  C   UNL     1       2.606   0.734  -0.789  0.00  0.00    +0.240 C 
ATOM     28  H   UNL     1       2.118  -0.839   0.479  0.00  0.00    +0.150 HD
BRANCH   7  22
ATOM     22  C   UNL     1       3.942  -1.343  -0.465  0.00  0.00    +0.156 C 
ATOM     23  C   UNL     1       3.652  -2.296  -1.614  0.00  0.00    +0.038 C 
BRANCH  22  24
ATOM      5  O   UNL     1       3.448  -2.491   1.617  0.00  0.00    -0.274 OA
ATOM      8  N   UNL     1       5.635  -2.366   0.925  0.00  0.00    -0.328 N 
ATOM     24  C   UNL     1       4.286  -2.108   0.804  0.00  0.00    +0.231 C 
ATOM     29  H   UNL     1       6.313  -2.060   0.235  0.00  0.00    +0.145 HD
ATOM     30  H   UNL     1       5.997  -2.880   1.722  0.00  0.00    +0.145 HD
ENDBRANCH  22  24
ENDBRANCH   7  22
ENDBRANCH  14  21
BRANCH  10   1
ATOM      1  O   UNL     1      -0.698   1.968   2.158  0.00  0.00    -0.387 OA
ATOM     26  H   UNL     1      -0.651   2.716   2.776  0.00  0.00    +0.210 HD
ENDBRANCH  10   1
BRANCH  11   2
ATOM      2  O   UNL     1      -0.194   4.153  -0.732  0.00  0.00    -0.389 OA
ATOM     27  H   UNL     1       0.520   4.786  -0.921  0.00  0.00    +0.210 HD
ENDBRANCH  11   2
TORSDOF 8
