REMARK  Name = 11879852
REMARK  8 active torsions:
REMARK  status: ('A' for Active; 'I' for Inactive)
REMARK    1  A    between atoms: S_1  and  N_11
REMARK    2  A    between atoms: S_1  and  C_29
REMARK    3  A    between atoms: O_6  and  C_33
REMARK    4  A    between atoms: O_8  and  C_36
REMARK    5  A    between atoms: O_8  and  C_37
REMARK    6  A    between atoms: N_11  and  C_22
REMARK    7  A    between atoms: C_21  and  C_24
REMARK    8  A    between atoms: C_27  and  C_33
REMARK                            x       y       z     vdW  Elec       q    Type
REMARK                         _______ _______ _______ _____ _____    ______ ____
ROOT
ATOM      2  O   UNL     1      -0.216   3.646  -1.005  0.00  0.00    -0.266 OA
ATOM      3  O   UNL     1       3.030  -0.099  -2.518  0.00  0.00    -0.270 OA
ATOM      9  N   UNL     1       3.683   0.583  -0.377  0.00  0.00    -0.297 N 
ATOM     10  N   UNL     1       1.456   2.720   0.351  0.00  0.00    -0.310 N 
ATOM     12  C   UNL     1       3.955   3.041  -0.099  0.00  0.00    +0.027 C 
ATOM     13  C   UNL     1       3.222   1.667   1.808  0.00  0.00    +0.054 C 
ATOM     14  C   UNL     1       4.107   2.846   1.406  0.00  0.00    +0.018 C 
ATOM     15  C   UNL     1       4.391   1.772  -0.852  0.00  0.00    +0.113 C 
ATOM     16  C   UNL     1       2.502   3.423  -0.403  0.00  0.00    +0.130 C 
ATOM     17  C   UNL     1       3.698   0.393   1.082  0.00  0.00    +0.117 C 
ATOM     18  C   UNL     1       1.768   1.935   1.470  0.00  0.00    +0.027 A 
ATOM     19  C   UNL     1       0.789   1.392   2.217  0.00  0.00    +0.024 A 
ATOM     20  C   UNL     1       0.122   2.955  -0.044  0.00  0.00    +0.274 A 
ATOM     21  C   UNL     1       3.046  -0.252  -1.298  0.00  0.00    +0.247 C 
ATOM     22  C   UNL     1      -0.912   2.309   0.804  0.00  0.00    +0.112 A 
ATOM     23  C   UNL     1      -0.595   1.582   1.875  0.00  0.00    +0.031 A 
ENDROOT
BRANCH  21  24
ATOM     24  C   UNL     1       2.308  -1.409  -0.780  0.00  0.00    +0.038 A 
ATOM     25  C   UNL     1       2.959  -2.630  -0.617  0.00  0.00    +0.028 A 
ATOM     26  C   UNL     1       0.960  -1.282  -0.454  0.00  0.00    +0.013 A 
ATOM     27  C   UNL     1       2.257  -3.730  -0.125  0.00  0.00    +0.060 A 
ATOM     28  C   UNL     1       0.258  -2.382   0.038  0.00  0.00    +0.002 A 
ATOM     30  C   UNL     1       0.907  -3.606   0.203  0.00  0.00    +0.015 A 
BRANCH  27  33
ATOM      7  O   UNL     1       4.120  -5.228  -0.209  0.00  0.00    -0.245 OA
ATOM     33  C   UNL     1       2.932  -5.006   0.048  0.00  0.00    +0.337 C 
BRANCH  33   6
ATOM      6  O   UNL     1       2.105  -5.970   0.538  0.00  0.00    -0.477 OA
ATOM     39  H   UNL     1       2.570  -6.827   0.651  0.00  0.00    +0.295 HD
ENDBRANCH  33   6
ENDBRANCH  27  33
ENDBRANCH  21  24
BRANCH  22  11
ATOM     11  N   UNL     1      -2.275   2.461   0.497  0.00  0.00    -0.211 N 
ATOM     38  H   UNL     1      -2.892   2.216   1.284  0.00  0.00    +0.174 HD
BRANCH  11   1
ATOM      1  S   UNL     1      -2.794   1.888  -1.009  0.00  0.00    +0.073 S 
ATOM      4  O   UNL     1      -3.509   2.937  -1.712  0.00  0.00    -0.150 OA
ATOM      5  O   UNL     1      -1.710   1.179  -1.662  0.00  0.00    -0.150 OA
BRANCH   1  29
ATOM     29  C   UNL     1      -3.987   0.682  -0.508  0.00  0.00    +0.109 A 
ATOM     31  C   UNL     1      -3.579  -0.623  -0.293  0.00  0.00    +0.032 A 
ATOM     32  C   UNL     1      -5.306   1.066  -0.341  0.00  0.00    +0.032 A 
ATOM     34  C   UNL     1      -4.519  -1.574   0.102  0.00  0.00    +0.047 A 
ATOM     35  C   UNL     1      -6.247   0.115   0.055  0.00  0.00    +0.047 A 
ATOM     36  C   UNL     1      -5.853  -1.205   0.276  0.00  0.00    +0.120 A 
BRANCH  36   8
ATOM      8  O   UNL     1      -6.771  -2.133   0.662  0.00  0.00    -0.495 OA
ATOM     37  C   UNL     1      -6.300  -3.464   0.872  0.00  0.00    +0.277 C 
ENDBRANCH  36   8
ENDBRANCH   1  29
ENDBRANCH  11   1
ENDBRANCH  22  11
TORSDOF 7
