REMARK  Name = 71694054
REMARK  9 active torsions:
REMARK  status: ('A' for Active; 'I' for Inactive)
REMARK    1  A    between atoms: O_4  and  C_11
REMARK    2  A    between atoms: O_5  and  C_13
REMARK    3  A    between atoms: O_6  and  C_26
REMARK    4  A    between atoms: O_6  and  C_27
REMARK    5  A    between atoms: N_7  and  C_9
REMARK    6  A    between atoms: N_7  and  C_15
REMARK    7  A    between atoms: C_10  and  C_14
REMARK    8  A    between atoms: C_15  and  C_18
REMARK    9  A    between atoms: C_20  and  C_23
REMARK                            x       y       z     vdW  Elec       q    Type
REMARK                         _______ _______ _______ _____ _____    ______ ____
ROOT
ATOM      9  C   UNL     1      -0.025   1.763  -0.579  0.00  0.00    +0.093 C 
ATOM     10  C   UNL     1       0.851   1.459   0.676  0.00  0.00    +0.042 C 
ATOM     11  C   UNL     1       0.049   3.288  -0.761  0.00  0.00    +0.160 C 
ATOM     12  C   UNL     1       1.373   2.824   1.165  0.00  0.00    +0.043 C 
ATOM     13  C   UNL     1       0.341   3.812   0.642  0.00  0.00    +0.145 C 
ENDROOT
BRANCH  10  14
ATOM      8  N   UNL     1       2.978  -1.666   0.986  0.00  0.00    -0.251 NA
ATOM     14  C   UNL     1       1.954   0.452   0.429  0.00  0.00    -0.025 A 
ATOM     16  C   UNL     1       2.932   0.681  -0.532  0.00  0.00    +0.007 A 
ATOM     17  C   UNL     1       2.021  -0.726   1.155  0.00  0.00    +0.115 A 
ATOM     19  C   UNL     1       3.933  -0.262  -0.736  0.00  0.00    +0.032 A 
ATOM     20  C   UNL     1       3.912  -1.409   0.042  0.00  0.00    +0.144 A 
BRANCH  20  23
ATOM      1  F   UNL     1       4.480  -3.664  -0.516  0.00  0.00    -0.164 F 
ATOM      2  F   UNL     1       5.714  -2.678   0.971  0.00  0.00    -0.164 F 
ATOM      3  F   UNL     1       5.867  -2.102  -1.120  0.00  0.00    -0.164 F 
ATOM     23  C   UNL     1       4.970  -2.443  -0.150  0.00  0.00    +0.434 C 
ENDBRANCH  20  23
ENDBRANCH  10  14
BRANCH  11   4
ATOM      4  O   UNL     1       1.130   3.582  -1.645  0.00  0.00    -0.388 OA
ATOM     29  H   UNL     1       0.902   3.216  -2.517  0.00  0.00    +0.210 HD
ENDBRANCH  11   4
BRANCH  13   5
ATOM      5  O   UNL     1       0.846   5.132   0.635  0.00  0.00    -0.389 OA
ATOM     30  H   UNL     1       1.090   5.356   1.549  0.00  0.00    +0.210 HD
ENDBRANCH  13   5
BRANCH   9   7
ATOM      7  N   UNL     1      -1.409   1.359  -0.320  0.00  0.00    -0.306 NA
ATOM     28  H   UNL     1      -2.025   1.833  -0.981  0.00  0.00    +0.123 HD
BRANCH   7  15
ATOM     15  C   UNL     1      -1.570  -0.078  -0.483  0.00  0.00    +0.116 C 
BRANCH  15  18
ATOM     18  C   UNL     1      -2.984  -0.519  -0.213  0.00  0.00    -0.033 A 
ATOM     21  C   UNL     1      -3.448  -0.611   1.099  0.00  0.00    +0.008 A 
ATOM     22  C   UNL     1      -3.831  -0.834  -1.276  0.00  0.00    +0.008 A 
ATOM     24  C   UNL     1      -4.758  -1.018   1.349  0.00  0.00    +0.046 A 
ATOM     25  C   UNL     1      -5.141  -1.242  -1.027  0.00  0.00    +0.046 A 
ATOM     26  C   UNL     1      -5.605  -1.334   0.286  0.00  0.00    +0.120 A 
BRANCH  26   6
ATOM      6  O   UNL     1      -6.884  -1.731   0.529  0.00  0.00    -0.495 OA
ATOM     27  C   UNL     1      -7.695  -2.038  -0.604  0.00  0.00    +0.277 C 
ENDBRANCH  26   6
ENDBRANCH  15  18
ENDBRANCH   7  15
ENDBRANCH   9   7
TORSDOF 8
