REMARK  Name = 86769002
REMARK  11 active torsions:
REMARK  status: ('A' for Active; 'I' for Inactive)
REMARK    1  A    between atoms: O_3  and  C_8
REMARK    2  A    between atoms: N_5  and  C_7
REMARK    3  A    between atoms: N_5  and  C_14
REMARK    4  A    between atoms: N_6  and  C_11
REMARK    5  A    between atoms: C_9  and  C_11
REMARK    6  A    between atoms: C_12  and  C_13
REMARK    7  A    between atoms: C_12  and  C_16
REMARK    8  A    between atoms: C_12  and  C_17
REMARK    9  A    between atoms: C_12  and  C_18
REMARK   10  A    between atoms: C_13  and  C_15
REMARK   11  A    between atoms: C_14  and  C_19
REMARK                            x       y       z     vdW  Elec       q    Type
REMARK                         _______ _______ _______ _____ _____    ______ ____
ROOT
ATOM      2  O   UNL     1       0.846   0.199  -0.014  0.00  0.00    -0.371 OA
ATOM      7  C   UNL     1      -1.361  -0.486   0.537  0.00  0.00    +0.111 C 
ATOM      8  C   UNL     1      -0.574  -1.691   0.058  0.00  0.00    +0.164 C 
ATOM      9  C   UNL     1       0.856  -1.211   0.267  0.00  0.00    +0.165 C 
ATOM     10  C   UNL     1      -0.517   0.658  -0.002  0.00  0.00    +0.181 C 
ENDROOT
BRANCH   8   3
ATOM      3  O   UNL     1      -0.853  -2.859   0.806  0.00  0.00    -0.388 OA
ATOM     25  H   UNL     1      -0.676  -2.670   1.743  0.00  0.00    +0.210 HD
ENDBRANCH   8   3
BRANCH   7   5
ATOM      5  N   UNL     1      -2.732  -0.454   0.055  0.00  0.00    -0.304 NA
ATOM     23  H   UNL     1      -3.144  -1.381   0.168  0.00  0.00    +0.123 HD
BRANCH   5  14
ATOM     14  C   UNL     1      -3.528   0.515   0.799  0.00  0.00    +0.124 C 
BRANCH  14  19
ATOM      1  S   UNL     1      -5.577   2.057  -0.277  0.00  0.00    -0.100 S 
ATOM     19  C   UNL     1      -4.948   0.573   0.302  0.00  0.00    +0.004 A 
ATOM     20  C   UNL     1      -5.876  -0.442   0.237  0.00  0.00    +0.012 A 
ATOM     21  C   UNL     1      -7.120   0.003  -0.295  0.00  0.00    +0.008 A 
ATOM     22  C   UNL     1      -7.096   1.343  -0.616  0.00  0.00    +0.045 A 
ENDBRANCH  14  19
ENDBRANCH   5  14
ENDBRANCH   7   5
BRANCH   9  11
ATOM     11  C   UNL     1       1.861  -1.907  -0.634  0.00  0.00    +0.138 C 
BRANCH  11   6
ATOM      4  O   UNL     1       3.174   0.307  -1.962  0.00  0.00    -0.276 OA
ATOM      6  N   UNL     1       3.202  -1.419  -0.406  0.00  0.00    -0.313 N 
ATOM     15  C   UNL     1       3.747  -0.348  -1.093  0.00  0.00    +0.214 C 
ATOM     24  H   UNL     1       3.756  -1.889   0.303  0.00  0.00    +0.149 HD
BRANCH  15  13
ATOM     13  C   UNL     1       5.175  -0.038  -0.676  0.00  0.00    +0.102 C 
BRANCH  13  12
ATOM     12  C   UNL     1       5.305   1.015   0.450  0.00  0.00    -0.029 C 
ATOM     16  C   UNL     1       6.781   1.275   0.797  0.00  0.00    +0.011 C 
ATOM     17  C   UNL     1       4.684   2.332  -0.054  0.00  0.00    +0.011 C 
ATOM     18  C   UNL     1       4.555   0.578   1.719  0.00  0.00    +0.011 C 
ENDBRANCH  13  12
ENDBRANCH  15  13
ENDBRANCH  11   6
ENDBRANCH   9  11
TORSDOF 8
