REMARK  Name = 75536725
REMARK  8 active torsions:
REMARK  status: ('A' for Active; 'I' for Inactive)
REMARK    1  A    between atoms: O_2  and  C_9
REMARK    2  A    between atoms: N_4  and  C_8
REMARK    3  A    between atoms: N_4  and  C_10
REMARK    4  A    between atoms: N_6  and  C_17
REMARK    5  A    between atoms: N_7  and  C_19
REMARK    6  A    between atoms: C_11  and  C_17
REMARK    7  A    between atoms: C_19  and  C_20
REMARK    8  A    between atoms: C_19  and  C_21
REMARK                            x       y       z     vdW  Elec       q    Type
REMARK                         _______ _______ _______ _____ _____    ______ ____
ROOT
ATOM      1  O   UNL     1       0.358   0.404  -1.204  0.00  0.00    -0.371 OA
ATOM      8  C   UNL     1      -1.636  -0.310  -0.129  0.00  0.00    +0.111 C 
ATOM      9  C   UNL     1      -0.561  -1.362   0.073  0.00  0.00    +0.164 C 
ATOM     11  C   UNL     1       0.699  -0.546  -0.180  0.00  0.00    +0.165 C 
ATOM     12  C   UNL     1      -1.075   0.471  -1.306  0.00  0.00    +0.181 C 
ENDROOT
BRANCH   9   2
ATOM      2  O   UNL     1      -0.578  -1.917   1.374  0.00  0.00    -0.388 OA
ATOM     24  H   UNL     1      -0.492  -1.193   2.017  0.00  0.00    +0.210 HD
ENDBRANCH   9   2
BRANCH   8   4
ATOM      4  N   UNL     1      -2.953  -0.865  -0.394  0.00  0.00    -0.306 NA
ATOM     22  H   UNL     1      -3.139  -1.645   0.236  0.00  0.00    +0.123 HD
BRANCH   4  10
ATOM      5  N   UNL     1      -6.660   0.919   0.693  0.00  0.00    -0.316 NA
ATOM     10  C   UNL     1      -3.987   0.155  -0.236  0.00  0.00    +0.056 C 
ATOM     13  C   UNL     1      -4.298   0.397   1.245  0.00  0.00    +0.034 C 
ATOM     14  C   UNL     1      -5.260  -0.260  -0.982  0.00  0.00    +0.034 C 
ATOM     15  C   UNL     1      -5.463   1.376   1.404  0.00  0.00    +0.082 C 
ATOM     16  C   UNL     1      -6.387   0.745  -0.736  0.00  0.00    +0.082 C 
ATOM     23  H   UNL     1      -7.404   1.606   0.812  0.00  0.00    +0.122 HD
ENDBRANCH   4  10
ENDBRANCH   8   4
BRANCH  11  17
ATOM     17  C   UNL     1       1.878  -1.388  -0.634  0.00  0.00    +0.140 C 
BRANCH  17   6
ATOM      3  O   UNL     1       3.923  -0.697   1.282  0.00  0.00    -0.253 OA
ATOM      6  N   UNL     1       3.040  -0.578  -0.864  0.00  0.00    -0.297 N 
ATOM      7  N   UNL     1       5.011   0.516  -0.370  0.00  0.00    -0.297 N 
ATOM     18  C   UNL     1       3.987  -0.289   0.123  0.00  0.00    +0.300 C 
ATOM     25  H   UNL     1       3.173  -0.182  -1.789  0.00  0.00    +0.150 HD
ATOM     26  H   UNL     1       5.015   0.739  -1.361  0.00  0.00    +0.150 HD
BRANCH   7  19
ATOM     19  C   UNL     1       6.117   0.961   0.444  0.00  0.00    +0.068 C 
ATOM     20  C   UNL     1       6.597   2.331  -0.017  0.00  0.00    +0.027 C 
ATOM     21  C   UNL     1       7.248  -0.060   0.412  0.00  0.00    +0.027 C 
ENDBRANCH   7  19
ENDBRANCH  17   6
ENDBRANCH  11  17
TORSDOF 6
