REMARK  Name = 75536439
REMARK  7 active torsions:
REMARK  status: ('A' for Active; 'I' for Inactive)
REMARK    1  A    between atoms: O_2  and  C_10
REMARK    2  A    between atoms: N_4  and  C_18
REMARK    3  A    between atoms: N_6  and  C_14
REMARK    4  A    between atoms: C_8  and  C_13
REMARK    5  A    between atoms: C_11  and  C_14
REMARK    6  A    between atoms: C_13  and  C_15
REMARK    7  A    between atoms: C_18  and  C_21
REMARK                            x       y       z     vdW  Elec       q    Type
REMARK                         _______ _______ _______ _____ _____    ______ ____
ROOT
ATOM     13  C   UNL     1       2.010  -2.024   0.271  0.00  0.00    +0.090 C 
ENDROOT
BRANCH  13   8
ATOM      1  O   UNL     1       2.498   0.269   0.698  0.00  0.00    -0.369 OA
ATOM      8  C   UNL     1       2.674  -0.765  -0.274  0.00  0.00    +0.125 C 
ATOM      9  C   UNL     1       4.159  -1.006  -0.541  0.00  0.00    +0.034 C 
ATOM     10  C   UNL     1       4.559   1.412   0.022  0.00  0.00    +0.145 C 
ATOM     11  C   UNL     1       3.065   1.538   0.347  0.00  0.00    +0.160 C 
ATOM     12  C   UNL     1       4.845   0.288  -0.970  0.00  0.00    +0.036 C 
BRANCH  10   2
ATOM      2  O   UNL     1       5.269   1.120   1.229  0.00  0.00    -0.389 OA
ATOM     23  H   UNL     1       6.217   1.091   1.012  0.00  0.00    +0.210 HD
ENDBRANCH  10   2
BRANCH  11  14
ATOM     14  C   UNL     1       2.266   2.208  -0.770  0.00  0.00    +0.112 C 
BRANCH  14   6
ATOM      6  N   UNL     1       0.863   2.325  -0.405  0.00  0.00    -0.328 NA
ATOM     25  H   UNL     1       0.341   2.726  -1.184  0.00  0.00    +0.118 HD
ATOM     26  H   UNL     1       0.471   1.399  -0.244  0.00  0.00    +0.118 HD
ENDBRANCH  14   6
ENDBRANCH  11  14
ENDBRANCH  13   8
BRANCH  13  15
ATOM      3  O   UNL     1      -1.418  -2.264  -0.818  0.00  0.00    -0.358 OA
ATOM      7  N   UNL     1      -0.053  -2.457  -0.998  0.00  0.00    -0.083 NA
ATOM     15  C   UNL     1       0.513  -1.977   0.112  0.00  0.00    +0.086 A 
ATOM     21  C   UNL     1      -1.632  -1.677   0.387  0.00  0.00    +0.151 A 
ATOM     22  C   UNL     1      -0.434  -1.473   1.020  0.00  0.00    +0.072 A 
BRANCH  21  18
ATOM     18  C   UNL     1      -3.029  -1.399   0.742  0.00  0.00    +0.161 C 
BRANCH  18   4
ATOM      4  N   UNL     1      -3.579  -0.236   0.049  0.00  0.00    -0.293 NA
ATOM      5  N   UNL     1      -5.141   2.202  -0.071  0.00  0.00    -0.314 NA
ATOM     16  C   UNL     1      -5.047  -0.272   0.052  0.00  0.00    +0.100 C 
ATOM     17  C   UNL     1      -3.091   1.010   0.653  0.00  0.00    +0.100 C 
ATOM     19  C   UNL     1      -5.620   0.952  -0.665  0.00  0.00    +0.096 C 
ATOM     20  C   UNL     1      -3.677   2.227  -0.068  0.00  0.00    +0.096 C 
ATOM     24  H   UNL     1      -5.494   2.993  -0.609  0.00  0.00    +0.122 HD
ENDBRANCH  18   4
ENDBRANCH  21  18
ENDBRANCH  13  15
TORSDOF 7
