REMARK  Name = 7142728
REMARK  5 active torsions:
REMARK  status: ('A' for Active; 'I' for Inactive)
REMARK    1  A    between atoms: O_3  and  C_21
REMARK    2  A    between atoms: O_3  and  C_23
REMARK    3  A    between atoms: N_8  and  C_19
REMARK    4  A    between atoms: C_18  and  C_21
REMARK    5  A    between atoms: C_22  and  C_24
REMARK                            x       y       z     vdW  Elec       q    Type
REMARK                         _______ _______ _______ _____ _____    ______ ____
ROOT
ATOM      1  O   UNL     1      -2.427  -1.794   1.669  0.00  0.00    -0.266 OA
ATOM      2  O   UNL     1       2.836  -0.915   2.129  0.00  0.00    -0.272 OA
ATOM      6  N   UNL     1       2.377  -2.219   0.261  0.00  0.00    -0.298 N 
ATOM      7  N   UNL     1      -0.808  -2.464   0.122  0.00  0.00    -0.310 N 
ATOM      9  C   UNL     1       0.960  -4.239   0.648  0.00  0.00    +0.027 C 
ATOM     10  C   UNL     1       0.947  -3.144  -1.553  0.00  0.00    +0.054 C 
ATOM     11  C   UNL     1       0.942  -4.501  -0.853  0.00  0.00    +0.018 C 
ATOM     12  C   UNL     1       2.218  -3.446   1.043  0.00  0.00    +0.113 C 
ATOM     13  C   UNL     1      -0.329  -3.506   1.040  0.00  0.00    +0.130 C 
ATOM     14  C   UNL     1       2.237  -2.381  -1.194  0.00  0.00    +0.117 C 
ATOM     15  C   UNL     1      -0.265  -2.321  -1.158  0.00  0.00    +0.027 A 
ATOM     16  C   UNL     1      -0.795  -1.439  -2.023  0.00  0.00    +0.024 A 
ATOM     17  C   UNL     1      -1.904  -1.692   0.558  0.00  0.00    +0.273 A 
ATOM     18  C   UNL     1       2.723  -1.031   0.905  0.00  0.00    +0.253 C 
ATOM     19  C   UNL     1      -2.450  -0.704  -0.426  0.00  0.00    +0.099 A 
ATOM     20  C   UNL     1      -1.909  -0.615  -1.646  0.00  0.00    +0.030 A 
ENDROOT
BRANCH  19   8
ATOM      4  O   UNL     1      -3.063   1.910  -1.394  0.00  0.00    -0.266 OA
ATOM      8  N   UNL     1      -3.502   0.072  -0.038  0.00  0.00    -0.275 N 
ATOM     22  C   UNL     1      -3.747   1.339  -0.548  0.00  0.00    +0.284 C 
ATOM     33  H   UNL     1      -4.015  -0.221   0.790  0.00  0.00    +0.155 HD
BRANCH  22  24
ATOM      5  O   UNL     1      -5.657   1.336   0.879  0.00  0.00    -0.458 OA
ATOM     24  C   UNL     1      -4.956   2.023  -0.020  0.00  0.00    +0.189 A 
ATOM     27  C   UNL     1      -5.446   3.229  -0.314  0.00  0.00    +0.054 A 
ATOM     30  C   UNL     1      -6.604   3.337   0.492  0.00  0.00    +0.042 A 
ATOM     32  C   UNL     1      -6.689   2.160   1.199  0.00  0.00    +0.196 A 
ENDBRANCH  22  24
ENDBRANCH  19   8
BRANCH  18  21
ATOM     21  C   UNL     1       2.962   0.170   0.026  0.00  0.00    +0.324 C 
BRANCH  21   3
ATOM      3  O   UNL     1       3.258   1.245   0.885  0.00  0.00    -0.483 OA
BRANCH   3  23
ATOM     23  C   UNL     1       4.052   2.254   0.386  0.00  0.00    +0.121 A 
ATOM     25  C   UNL     1       4.016   2.540  -0.971  0.00  0.00    +0.045 A 
ATOM     26  C   UNL     1       4.873   2.964   1.248  0.00  0.00    +0.045 A 
ATOM     28  C   UNL     1       4.821   3.562  -1.476  0.00  0.00    +0.004 A 
ATOM     29  C   UNL     1       5.677   3.985   0.743  0.00  0.00    +0.004 A 
ATOM     31  C   UNL     1       5.651   4.284  -0.620  0.00  0.00    +0.000 A 
ENDBRANCH   3  23
ENDBRANCH  21   3
ENDBRANCH  18  21
TORSDOF 5
