REMARK  Name = 45783417
REMARK  11 active torsions:
REMARK  status: ('A' for Active; 'I' for Inactive)
REMARK    1  A    between atoms: O_2  and  C_19
REMARK    2  A    between atoms: O_2  and  C_23
REMARK    3  A    between atoms: O_3  and  C_24
REMARK    4  A    between atoms: O_3  and  C_25
REMARK    5  A    between atoms: N_4  and  C_12
REMARK    6  A    between atoms: C_8  and  C_14
REMARK    7  A    between atoms: C_12  and  C_13
REMARK    8  A    between atoms: C_13  and  C_15
REMARK    9  A    between atoms: C_13  and  C_16
REMARK   10  A    between atoms: C_17  and  C_18
REMARK   11  A    between atoms: C_23  and  C_24
REMARK                            x       y       z     vdW  Elec       q    Type
REMARK                         _______ _______ _______ _____ _____    ______ ____
ROOT
ATOM      1  O   UNL     1      -0.688   2.728   0.082  0.00  0.00    -0.336 OA
ATOM      5  N   UNL     1       0.042   0.698   0.683  0.00  0.00    -0.190 NA
ATOM      6  N   UNL     1       0.690   2.720  -0.167  0.00  0.00    -0.056 NA
ATOM     14  C   UNL     1      -0.987   1.500   0.581  0.00  0.00    +0.245 A 
ATOM     17  C   UNL     1       1.048   1.490   0.212  0.00  0.00    +0.207 A 
ENDROOT
BRANCH  17  18
ATOM      7  N   UNL     1       3.968  -0.797  -0.148  0.00  0.00    -0.221 NA
ATOM     18  C   UNL     1       2.402   1.023   0.136  0.00  0.00    +0.084 A 
ATOM     19  C   UNL     1       2.709  -0.313  -0.070  0.00  0.00    +0.226 A 
ATOM     20  C   UNL     1       3.457   1.919   0.269  0.00  0.00    +0.018 A 
ATOM     21  C   UNL     1       4.767   1.460   0.193  0.00  0.00    +0.021 A 
ATOM     22  C   UNL     1       4.967   0.104  -0.015  0.00  0.00    +0.114 A 
BRANCH  19   2
ATOM      2  O   UNL     1       1.703  -1.235  -0.206  0.00  0.00    -0.474 OA
BRANCH   2  23
ATOM     23  C   UNL     1       2.099  -2.586  -0.414  0.00  0.00    +0.258 C 
BRANCH  23  24
ATOM     24  C   UNL     1       0.861  -3.454  -0.517  0.00  0.00    +0.200 C 
BRANCH  24   3
ATOM      3  O   UNL     1       0.128  -3.365   0.698  0.00  0.00    -0.380 OA
ATOM     25  C   UNL     1      -1.059  -4.144   0.650  0.00  0.00    +0.194 C 
ENDBRANCH  24   3
ENDBRANCH  23  24
ENDBRANCH   2  23
ENDBRANCH  19   2
ENDBRANCH  17  18
BRANCH  14   8
ATOM      4  N   UNL     1      -3.006   0.089   0.219  0.00  0.00    -0.291 NA
ATOM      8  C   UNL     1      -2.438   1.250   0.935  0.00  0.00    +0.146 C 
ATOM      9  C   UNL     1      -2.639   0.926   2.427  0.00  0.00    +0.030 C 
ATOM     10  C   UNL     1      -4.044  -0.465   1.088  0.00  0.00    +0.085 C 
ATOM     11  C   UNL     1      -3.380  -0.403   2.449  0.00  0.00    +0.017 C 
BRANCH   4  12
ATOM     12  C   UNL     1      -3.518   0.424  -1.103  0.00  0.00    +0.088 C 
BRANCH  12  13
ATOM     13  C   UNL     1      -2.411   0.464  -2.170  0.00  0.00    -0.003 C 
ATOM     15  C   UNL     1      -1.734  -0.906  -2.263  0.00  0.00    +0.008 C 
ATOM     16  C   UNL     1      -2.937   0.872  -3.548  0.00  0.00    +0.008 C 
ENDBRANCH  12  13
ENDBRANCH   4  12
ENDBRANCH  14   8
TORSDOF 8
