REMARK  Name = 11886038
REMARK  8 active torsions:
REMARK  status: ('A' for Active; 'I' for Inactive)
REMARK    1  A    between atoms: S_1  and  C_18
REMARK    2  A    between atoms: S_1  and  C_19
REMARK    3  A    between atoms: O_4  and  C_15
REMARK    4  A    between atoms: O_4  and  C_24
REMARK    5  A    between atoms: O_6  and  C_30
REMARK    6  A    between atoms: O_6  and  C_31
REMARK    7  A    between atoms: N_7  and  C_14
REMARK    8  A    between atoms: N_11  and  C_25
REMARK                            x       y       z     vdW  Elec       q    Type
REMARK                         _______ _______ _______ _____ _____    ______ ____
ROOT
ATOM      2  O   UNL     1      -1.870  -2.058  -0.461  0.00  0.00    -0.368 OA
ATOM      3  O   UNL     1      -3.095  -0.975   2.163  0.00  0.00    -0.368 OA
ATOM     12  C   UNL     1      -3.158  -0.507   0.797  0.00  0.00    +0.177 C 
ATOM     13  C   UNL     1      -1.799  -0.774   0.180  0.00  0.00    +0.192 C 
ATOM     14  C   UNL     1      -4.113  -1.378   0.006  0.00  0.00    +0.168 C 
ATOM     15  C   UNL     1      -0.886  -0.800   1.383  0.00  0.00    +0.235 C 
ATOM     16  C   UNL     1      -3.224  -2.534  -0.440  0.00  0.00    +0.190 C 
ATOM     17  C   UNL     1      -1.765  -1.439   2.434  0.00  0.00    +0.207 C 
ENDROOT
BRANCH  14   7
ATOM      7  N   UNL     1      -4.778  -0.645  -1.074  0.00  0.00    -0.212 N 
ATOM      8  N   UNL     1      -4.212  -0.566  -2.287  0.00  0.00    -0.043 NA
ATOM      9  N   UNL     1      -6.153   0.532  -2.268  0.00  0.00    -0.101 NA
ATOM     10  N   UNL     1      -5.058   0.154  -3.013  0.00  0.00    -0.022 NA
ATOM     19  C   UNL     1      -5.959   0.026  -1.072  0.00  0.00    +0.210 A 
BRANCH  19   1
ATOM      1  S   UNL     1      -6.987   0.155   0.300  0.00  0.00    -0.081 S 
BRANCH   1  18
ATOM     18  C   UNL     1      -8.361   1.156  -0.365  0.00  0.00    +0.054 C 
ATOM     20  C   UNL     1      -8.034   2.645  -0.333  0.00  0.00    +0.014 C 
ATOM     21  C   UNL     1      -9.599   1.071   0.523  0.00  0.00    +0.014 C 
ATOM     22  C   UNL     1      -8.361   3.100   1.089  0.00  0.00    +0.001 C 
ATOM     23  C   UNL     1      -9.363   2.086   1.640  0.00  0.00    +0.001 C 
ENDBRANCH   1  18
ENDBRANCH  19   1
ENDBRANCH  14   7
BRANCH  15   4
ATOM      4  O   UNL     1       0.303  -1.527   1.172  0.00  0.00    -0.442 OA
BRANCH   4  24
ATOM      5  O   UNL     1       1.372   0.397   0.551  0.00  0.00    -0.226 OA
ATOM     11  N   UNL     1       2.477  -1.667   0.589  0.00  0.00    -0.251 N 
ATOM     24  C   UNL     1       1.403  -0.812   0.745  0.00  0.00    +0.405 C 
ATOM     37  H   UNL     1       2.307  -2.647   0.801  0.00  0.00    +0.158 HD
BRANCH  11  25
ATOM     25  C   UNL     1       3.789  -1.348   0.170  0.00  0.00    +0.037 A 
ATOM     26  C   UNL     1       4.752  -2.352   0.070  0.00  0.00    +0.027 A 
ATOM     27  C   UNL     1       4.120  -0.030  -0.145  0.00  0.00    +0.027 A 
ATOM     28  C   UNL     1       6.046  -2.038  -0.345  0.00  0.00    +0.048 A 
ATOM     29  C   UNL     1       5.414   0.284  -0.560  0.00  0.00    +0.048 A 
ATOM     30  C   UNL     1       6.377  -0.720  -0.660  0.00  0.00    +0.129 A 
BRANCH  30   6
ATOM      6  O   UNL     1       7.639  -0.413  -1.067  0.00  0.00    -0.456 OA
BRANCH   6  31
ATOM     31  C   UNL     1       8.241   0.704  -0.513  0.00  0.00    +0.128 A 
ATOM     32  C   UNL     1       8.165   0.927   0.862  0.00  0.00    +0.046 A 
ATOM     33  C   UNL     1       8.924   1.606  -1.329  0.00  0.00    +0.046 A 
ATOM     34  C   UNL     1       8.770   2.052   1.421  0.00  0.00    +0.004 A 
ATOM     35  C   UNL     1       9.529   2.731  -0.770  0.00  0.00    +0.004 A 
ATOM     36  C   UNL     1       9.453   2.954   0.605  0.00  0.00    +0.000 A 
ENDBRANCH   6  31
ENDBRANCH  30   6
ENDBRANCH  11  25
ENDBRANCH   4  24
ENDBRANCH  15   4
TORSDOF 8
