REMARK  Name = 28960198
REMARK  13 active torsions:
REMARK  status: ('A' for Active; 'I' for Inactive)
REMARK    1  A    between atoms: O_2  and  C_18
REMARK    2  A    between atoms: O_5  and  C_36
REMARK    3  A    between atoms: O_5  and  C_37
REMARK    4  A    between atoms: N_7  and  C_16
REMARK    5  A    between atoms: N_7  and  C_19
REMARK    6  A    between atoms: N_7  and  C_21
REMARK    7  A    between atoms: N_8  and  C_20
REMARK    8  A    between atoms: C_9  and  C_13
REMARK    9  A    between atoms: C_10  and  C_15
REMARK   10  A    between atoms: C_13  and  C_16
REMARK   11  A    between atoms: C_15  and  C_18
REMARK   12  A    between atoms: C_17  and  C_22
REMARK   13  A    between atoms: C_19  and  C_20
REMARK                            x       y       z     vdW  Elec       q    Type
REMARK                         _______ _______ _______ _____ _____    ______ ____
ROOT
ATOM      1  O   UNL     1       0.747   5.183   0.083  0.00  0.00    -0.270 OA
ATOM      6  N   UNL     1       1.368   3.151  -0.896  0.00  0.00    -0.297 N 
ATOM      9  C   UNL     1       2.162   0.807  -0.664  0.00  0.00    +0.012 C 
ATOM     10  C   UNL     1       3.567   1.280  -1.117  0.00  0.00    +0.006 C 
ATOM     11  C   UNL     1       3.799   2.764  -0.785  0.00  0.00    +0.023 C 
ATOM     12  C   UNL     1       1.084   1.749  -1.232  0.00  0.00    +0.112 C 
ATOM     14  C   UNL     1       2.674   3.635  -1.338  0.00  0.00    +0.108 C 
ATOM     17  C   UNL     1       0.511   4.011  -0.205  0.00  0.00    +0.247 C 
ENDROOT
BRANCH  17  22
ATOM     22  C   UNL     1      -0.792   3.489   0.223  0.00  0.00    +0.037 A 
ATOM     27  C   UNL     1      -1.698   3.013  -0.725  0.00  0.00    +0.016 A 
ATOM     28  C   UNL     1      -1.125   3.469   1.577  0.00  0.00    +0.016 A 
ATOM     33  C   UNL     1      -2.937   2.518  -0.319  0.00  0.00    +0.046 A 
ATOM     34  C   UNL     1      -2.363   2.974   1.984  0.00  0.00    +0.046 A 
ATOM     36  C   UNL     1      -3.269   2.498   1.036  0.00  0.00    +0.120 A 
BRANCH  36   5
ATOM      5  O   UNL     1      -4.478   2.014   1.433  0.00  0.00    -0.495 OA
ATOM     37  C   UNL     1      -5.356   1.544   0.411  0.00  0.00    +0.277 C 
ENDBRANCH  36   5
ENDBRANCH  17  22
BRANCH   9  13
ATOM     13  C   UNL     1       2.008   0.678   0.856  0.00  0.00    +0.024 C 
BRANCH  13  16
ATOM     16  C   UNL     1       0.647   0.131   1.257  0.00  0.00    +0.105 C 
BRANCH  16   7
ATOM      7  N   UNL     1       0.413  -1.159   0.653  0.00  0.00    -0.329 N 
BRANCH   7  21
ATOM     21  C   UNL     1       1.222  -2.264   0.952  0.00  0.00    +0.030 A 
ATOM     25  C   UNL     1       1.825  -2.369   2.205  0.00  0.00    +0.023 A 
ATOM     26  C   UNL     1       1.425  -3.259  -0.005  0.00  0.00    +0.023 A 
ATOM     31  C   UNL     1       2.631  -3.469   2.501  0.00  0.00    +0.002 A 
ATOM     32  C   UNL     1       2.230  -4.358   0.291  0.00  0.00    +0.002 A 
ATOM     35  C   UNL     1       2.833  -4.463   1.544  0.00  0.00    +0.000 A 
ENDBRANCH   7  21
BRANCH   7  19
ATOM     19  C   UNL     1      -0.694  -1.298  -0.295  0.00  0.00    +0.120 C 
BRANCH  19  20
ATOM     20  C   UNL     1      -1.901  -1.903   0.411  0.00  0.00    +0.103 C 
BRANCH  20   8
ATOM      4  O   UNL     1      -5.245  -3.448  -1.599  0.00  0.00    -0.377 OA
ATOM      8  N   UNL     1      -3.018  -2.041  -0.520  0.00  0.00    -0.297 NA
ATOM     23  C   UNL     1      -4.293  -2.134   0.205  0.00  0.00    +0.112 C 
ATOM     24  C   UNL     1      -2.840  -3.221  -1.377  0.00  0.00    +0.112 C 
ATOM     29  C   UNL     1      -5.443  -2.290  -0.786  0.00  0.00    +0.175 C 
ATOM     30  C   UNL     1      -4.024  -3.351  -2.332  0.00  0.00    +0.175 C 
ENDBRANCH  20   8
ENDBRANCH  19  20
ENDBRANCH   7  19
ENDBRANCH  16   7
ENDBRANCH  13  16
ENDBRANCH   9  13
BRANCH  10  15
ATOM     15  C   UNL     1       4.699   0.419  -0.556  0.00  0.00    +0.124 C 
BRANCH  15  18
ATOM      3  O   UNL     1       4.015  -1.456  -1.956  0.00  0.00    -0.251 OA
ATOM     18  C   UNL     1       4.540  -1.026  -0.940  0.00  0.00    +0.305 C 
BRANCH  18   2
ATOM      2  O   UNL     1       5.075  -1.817   0.026  0.00  0.00    -0.481 OA
ATOM     38  H   UNL     1       4.986  -2.770  -0.192  0.00  0.00    +0.295 HD
ENDBRANCH  18   2
ENDBRANCH  15  18
ENDBRANCH  10  15
TORSDOF 12
