REMARK  Name = 11885093
REMARK  14 active torsions:
REMARK  status: ('A' for Active; 'I' for Inactive)
REMARK    1  A    between atoms: O_4  and  C_16
REMARK    2  A    between atoms: O_5  and  C_21
REMARK    3  A    between atoms: N_9  and  C_27
REMARK    4  A    between atoms: C_11  and  C_19
REMARK    5  A    between atoms: C_13  and  C_21
REMARK    6  A    between atoms: C_13  and  C_22
REMARK    7  A    between atoms: C_14  and  C_24
REMARK    8  A    between atoms: C_24  and  C_25
REMARK    9  A    between atoms: C_27  and  C_29
REMARK   10  A    between atoms: C_28  and  C_30
REMARK   11  A    between atoms: C_30  and  C_31
REMARK   12  A    between atoms: C_31  and  C_34
REMARK   13  A    between atoms: C_34  and  C_37
REMARK   14  A    between atoms: C_37  and  C_39
REMARK                            x       y       z     vdW  Elec       q    Type
REMARK                         _______ _______ _______ _____ _____    ______ ____
ROOT
ATOM      1  S   UNL     1      -1.126   3.221   0.255  0.00  0.00    -0.057 S 
ATOM      7  O   UNL     1       2.813   0.779  -0.231  0.00  0.00    -0.275 OA
ATOM      8  N   UNL     1      -0.148   0.851  -0.085  0.00  0.00    -0.229 NA
ATOM     10  N   UNL     1       1.430   2.666   0.070  0.00  0.00    -0.265 N 
ATOM     11  C   UNL     1      -3.723  -0.540   0.311  0.00  0.00    -0.019 C 
ATOM     12  C   UNL     1      -4.385   0.768  -0.310  0.00  0.00    +0.011 C 
ATOM     13  C   UNL     1      -5.960   0.844  -0.306  0.00  0.00    +0.021 C 
ATOM     14  C   UNL     1      -2.205  -0.607  -0.184  0.00  0.00    +0.054 C 
ATOM     15  C   UNL     1      -4.465  -1.795  -0.218  0.00  0.00    +0.010 C 
ATOM     16  C   UNL     1      -6.539  -0.505  -0.819  0.00  0.00    +0.123 C 
ATOM     17  C   UNL     1      -3.694   2.060   0.216  0.00  0.00    +0.049 C 
ATOM     18  C   UNL     1      -5.979  -1.718  -0.084  0.00  0.00    +0.032 C 
ATOM     19  C   UNL     1      -3.760  -0.556   1.859  0.00  0.00    +0.012 C 
ATOM     20  C   UNL     1      -1.524   0.729  -0.026  0.00  0.00    +0.058 A 
ATOM     22  C   UNL     1      -6.417   1.950  -1.298  0.00  0.00    +0.016 C 
ATOM     23  C   UNL     1      -2.212   1.915   0.134  0.00  0.00    +0.015 A 
ATOM     26  C   UNL     1       0.175   2.118   0.059  0.00  0.00    +0.165 A 
ATOM     28  C   UNL     1       2.653   1.984  -0.072  0.00  0.00    +0.219 C 
ATOM     43  H   UNL     1       1.456   3.675   0.195  0.00  0.00    +0.157 HD
ENDROOT
BRANCH  16   4
ATOM      4  O   UNL     1      -7.962  -0.517  -0.706  0.00  0.00    -0.391 OA
ATOM     40  H   UNL     1      -8.280  -1.356  -1.080  0.00  0.00    +0.210 HD
ENDBRANCH  16   4
BRANCH  13  21
ATOM     21  C   UNL     1      -6.580   1.226   1.057  0.00  0.00    +0.165 C 
BRANCH  21   5
ATOM      5  O   UNL     1      -7.980   1.263   0.899  0.00  0.00    -0.394 OA
ATOM     41  H   UNL     1      -8.362   1.514   1.757  0.00  0.00    +0.209 HD
ENDBRANCH  21   5
ENDBRANCH  13  21
BRANCH  14  24
ATOM     24  C   UNL     1      -1.377  -1.736   0.445  0.00  0.00    +0.106 C 
BRANCH  24  25
ATOM      6  O   UNL     1      -0.014  -1.681  -1.553  0.00  0.00    -0.276 OA
ATOM      9  N   UNL     1       0.500  -3.182   0.145  0.00  0.00    -0.311 N 
ATOM     25  C   UNL     1      -0.239  -2.170  -0.449  0.00  0.00    +0.214 C 
ATOM     42  H   UNL     1       0.234  -3.515   1.067  0.00  0.00    +0.149 HD
BRANCH   9  27
ATOM     27  C   UNL     1       1.649  -3.794  -0.483  0.00  0.00    +0.139 C 
BRANCH  27  29
ATOM      2  F   UNL     1       5.938  -1.863  -1.772  0.00  0.00    -0.205 F 
ATOM      3  F   UNL     1       4.607  -1.684   2.769  0.00  0.00    -0.205 F 
ATOM     29  C   UNL     1       2.924  -3.081  -0.138  0.00  0.00    -0.025 A 
ATOM     32  C   UNL     1       3.178  -2.705   1.181  0.00  0.00    +0.043 A 
ATOM     33  C   UNL     1       3.857  -2.797  -1.136  0.00  0.00    +0.043 A 
ATOM     35  C   UNL     1       5.042  -2.136  -0.814  0.00  0.00    +0.126 A 
ATOM     36  C   UNL     1       4.363  -2.044   1.502  0.00  0.00    +0.126 A 
ATOM     38  C   UNL     1       5.295  -1.759   0.505  0.00  0.00    +0.076 A 
ENDBRANCH  27  29
ENDBRANCH   9  27
ENDBRANCH  24  25
ENDBRANCH  14  24
BRANCH  28  30
ATOM     30  C   UNL     1       3.830   2.949  -0.008  0.00  0.00    +0.096 C 
BRANCH  30  31
ATOM     31  C   UNL     1       5.177   2.245  -0.159  0.00  0.00    +0.009 C 
BRANCH  31  34
ATOM     34  C   UNL     1       6.334   3.244  -0.128  0.00  0.00    +0.000 C 
BRANCH  34  37
ATOM     37  C   UNL     1       7.684   2.537  -0.245  0.00  0.00    -0.003 C 
ATOM     39  C   UNL     1       8.838   3.524  -0.182  0.00  0.00    +0.004 C 
ENDBRANCH  34  37
ENDBRANCH  31  34
ENDBRANCH  30  31
ENDBRANCH  28  30
TORSDOF 11
