REMARK  Name = 28991387
REMARK  9 active torsions:
REMARK  status: ('A' for Active; 'I' for Inactive)
REMARK    1  A    between atoms: O_3  and  C_21
REMARK    2  A    between atoms: O_3  and  C_33
REMARK    3  A    between atoms: O_5  and  C_27
REMARK    4  A    between atoms: O_5  and  C_34
REMARK    5  A    between atoms: N_7  and  C_12
REMARK    6  A    between atoms: N_7  and  C_22
REMARK    7  A    between atoms: C_10  and  C_18
REMARK    8  A    between atoms: C_14  and  C_21
REMARK    9  A    between atoms: C_22  and  C_27
REMARK                            x       y       z     vdW  Elec       q    Type
REMARK                         _______ _______ _______ _____ _____    ______ ____
ROOT
ATOM      6  N   UNL     1       0.085  -0.326   0.029  0.00  0.00    -0.274 NA
ATOM      8  N   UNL     1       2.918   2.139  -0.060  0.00  0.00    -0.356 N 
ATOM      9  C   UNL     1       0.685   0.985   0.428  0.00  0.00    +0.106 C 
ATOM     10  C   UNL     1      -1.333  -0.440   0.455  0.00  0.00    +0.090 C 
ATOM     11  C   UNL     1      -0.116   2.153  -0.169  0.00  0.00    +0.044 C 
ATOM     12  C   UNL     1      -1.572   2.092   0.290  0.00  0.00    +0.057 C 
ATOM     13  C   UNL     1      -2.174   0.740  -0.090  0.00  0.00    +0.042 C 
ATOM     14  C   UNL     1       0.941  -1.489   0.392  0.00  0.00    +0.172 C 
ATOM     15  C   UNL     1       2.124   1.028   0.008  0.00  0.00    +0.038 A 
ATOM     16  C   UNL     1       2.327  -1.445  -0.300  0.00  0.00    +0.068 C 
ATOM     17  C   UNL     1       2.894  -0.069  -0.310  0.00  0.00    -0.016 A 
ATOM     19  C   UNL     1       4.202   0.393  -0.618  0.00  0.00    +0.003 A 
ATOM     20  C   UNL     1       4.189   1.782  -0.455  0.00  0.00    +0.047 A 
ATOM     25  C   UNL     1       5.402  -0.231  -1.017  0.00  0.00    +0.010 A 
ATOM     26  C   UNL     1       5.321   2.577  -0.672  0.00  0.00    +0.026 A 
ATOM     28  C   UNL     1       6.539   0.554  -1.240  0.00  0.00    +0.001 A 
ATOM     31  C   UNL     1       6.497   1.936  -1.070  0.00  0.00    +0.002 A 
ATOM     36  H   UNL     1       2.624   3.085   0.145  0.00  0.00    +0.166 HD
ENDROOT
BRANCH  10  18
ATOM      1  F   UNL     1      -2.815  -3.533  -3.043  0.00  0.00    -0.202 F 
ATOM      2  F   UNL     1      -3.855  -5.234  -1.172  0.00  0.00    -0.202 F 
ATOM     18  C   UNL     1      -2.014  -1.734   0.016  0.00  0.00    -0.027 A 
ATOM     23  C   UNL     1      -2.105  -2.048  -1.340  0.00  0.00    +0.046 A 
ATOM     24  C   UNL     1      -2.544  -2.602   0.971  0.00  0.00    +0.008 A 
ATOM     29  C   UNL     1      -2.727  -3.231  -1.741  0.00  0.00    +0.159 A 
ATOM     30  C   UNL     1      -3.166  -3.784   0.570  0.00  0.00    +0.041 A 
ATOM     32  C   UNL     1      -3.257  -4.099  -0.786  0.00  0.00    +0.158 A 
ENDBRANCH  10  18
BRANCH  14  21
ATOM      4  O   UNL     1       0.578  -0.809   2.676  0.00  0.00    -0.249 OA
ATOM     21  C   UNL     1       1.089  -1.588   1.884  0.00  0.00    +0.325 C 
BRANCH  21   3
ATOM      3  O   UNL     1       1.867  -2.664   2.194  0.00  0.00    -0.467 OA
ATOM     33  C   UNL     1       2.092  -2.878   3.591  0.00  0.00    +0.280 C 
ENDBRANCH  21   3
ENDBRANCH  14  21
BRANCH  12   7
ATOM      7  N   UNL     1      -2.334   3.188  -0.309  0.00  0.00    -0.311 NA
ATOM     35  H   UNL     1      -1.764   4.034  -0.332  0.00  0.00    +0.122 HD
BRANCH   7  22
ATOM     22  C   UNL     1      -3.540   3.456   0.459  0.00  0.00    +0.109 C 
BRANCH  22  27
ATOM     27  C   UNL     1      -4.352   4.566  -0.189  0.00  0.00    +0.174 C 
BRANCH  27   5
ATOM      5  O   UNL     1      -5.527   4.783   0.582  0.00  0.00    -0.382 OA
ATOM     34  C   UNL     1      -6.322   5.827   0.038  0.00  0.00    +0.194 C 
ENDBRANCH  27   5
ENDBRANCH  22  27
ENDBRANCH   7  22
ENDBRANCH  12   7
TORSDOF 7
