REMARK  Name = 25389414
REMARK  5 active torsions:
REMARK  status: ('A' for Active; 'I' for Inactive)
REMARK    1  A    between atoms: N_5  and  C_14
REMARK    2  A    between atoms: N_7  and  C_21
REMARK    3  A    between atoms: C_9  and  C_14
REMARK    4  A    between atoms: C_11  and  C_21
REMARK    5  A    between atoms: C_28  and  C_29
REMARK                            x       y       z     vdW  Elec       q    Type
REMARK                         _______ _______ _______ _____ _____    ______ ____
ROOT
ATOM      4  N   UNL     1      -1.639  -3.288  -0.526  0.00  0.00    -0.298 NA
ATOM      8  C   UNL     1       0.244  -1.541  -0.937  0.00  0.00    -0.003 C 
ATOM      9  C   UNL     1       0.648  -2.537   0.173  0.00  0.00    +0.020 C 
ATOM     10  C   UNL     1      -1.076  -0.851  -0.547  0.00  0.00    +0.024 C 
ATOM     11  C   UNL     1      -2.198  -1.910  -0.456  0.00  0.00    +0.074 C 
ATOM     12  C   UNL     1      -0.557  -3.455   0.474  0.00  0.00    +0.089 C 
ATOM     13  C   UNL     1      -0.032  -2.372  -2.205  0.00  0.00    +0.019 C 
ATOM     15  C   UNL     1      -1.054  -3.475  -1.875  0.00  0.00    +0.085 C 
ENDROOT
BRANCH   9  14
ATOM     14  C   UNL     1       1.161  -1.859   1.427  0.00  0.00    +0.089 C 
BRANCH  14   5
ATOM      1  O   UNL     1       4.104   1.377  -2.902  0.00  0.00    -0.268 OA
ATOM      5  N   UNL     1       2.303  -0.995   1.139  0.00  0.00    -0.301 NA
ATOM      6  N   UNL     1       3.927   1.148  -0.579  0.00  0.00    -0.312 N 
ATOM     16  C   UNL     1       4.770  -0.904   0.702  0.00  0.00    +0.024 C 
ATOM     17  C   UNL     1       3.694   0.929   1.919  0.00  0.00    +0.050 C 
ATOM     18  C   UNL     1       3.527  -1.784   0.954  0.00  0.00    +0.089 C 
ATOM     19  C   UNL     1       2.472   0.022   2.189  0.00  0.00    +0.094 C 
ATOM     20  C   UNL     1       4.958   0.075   1.853  0.00  0.00    +0.017 C 
ATOM     22  C   UNL     1       4.677  -0.115  -0.611  0.00  0.00    +0.130 C 
ATOM     23  C   UNL     1       3.503   1.709   0.631  0.00  0.00    +0.026 A 
ATOM     24  C   UNL     1       2.916   2.918   0.646  0.00  0.00    +0.022 A 
ATOM     25  C   UNL     1       3.742   1.808  -1.807  0.00  0.00    +0.251 A 
ATOM     26  C   UNL     1       2.695   3.642  -0.573  0.00  0.00    +0.007 A 
ATOM     27  C   UNL     1       3.067   3.135  -1.751  0.00  0.00    +0.070 A 
ENDBRANCH  14   5
ENDBRANCH   9  14
BRANCH  11  21
ATOM     21  C   UNL     1      -3.078  -1.700   0.778  0.00  0.00    +0.123 C 
BRANCH  21   7
ATOM      2  O   UNL     1      -5.620  -1.048  -0.389  0.00  0.00    -0.267 OA
ATOM      7  N   UNL     1      -3.699  -0.411   0.748  0.00  0.00    -0.307 N 
ATOM     28  C   UNL     1      -4.941  -0.182   0.157  0.00  0.00    +0.279 C 
ATOM     33  H   UNL     1      -3.205   0.370   1.170  0.00  0.00    +0.149 HD
BRANCH  28  29
ATOM      3  O   UNL     1      -4.652   2.158   0.776  0.00  0.00    -0.458 OA
ATOM     29  C   UNL     1      -5.436   1.218   0.186  0.00  0.00    +0.189 A 
ATOM     30  C   UNL     1      -6.594   1.786  -0.293  0.00  0.00    +0.054 A 
ATOM     31  C   UNL     1      -6.516   3.163   0.023  0.00  0.00    +0.042 A 
ATOM     32  C   UNL     1      -5.316   3.339   0.673  0.00  0.00    +0.196 A 
ENDBRANCH  28  29
ENDBRANCH  21   7
ENDBRANCH  11  21
TORSDOF 5
