REMARK  Name = 45361450
REMARK  11 active torsions:
REMARK  status: ('A' for Active; 'I' for Inactive)
REMARK    1  A    between atoms: O_1  and  C_9
REMARK    2  A    between atoms: N_4  and  C_13
REMARK    3  A    between atoms: N_5  and  C_28
REMARK    4  A    between atoms: N_5  and  C_29
REMARK    5  A    between atoms: C_6  and  C_16
REMARK    6  A    between atoms: C_8  and  C_18
REMARK    7  A    between atoms: C_12  and  C_17
REMARK    8  A    between atoms: C_17  and  C_19
REMARK    9  A    between atoms: C_17  and  C_20
REMARK   10  A    between atoms: C_21  and  C_22
REMARK   11  A    between atoms: C_28  and  C_30
REMARK                            x       y       z     vdW  Elec       q    Type
REMARK                         _______ _______ _______ _____ _____    ______ ____
ROOT
ATOM      6  C   UNL     1       0.922   2.420   0.227  0.00  0.00    -0.027 C 
ATOM      7  C   UNL     1       0.774   0.887  -0.052  0.00  0.00    +0.028 C 
ATOM      8  C   UNL     1       2.077   0.310  -0.713  0.00  0.00    +0.012 C 
ATOM      9  C   UNL     1      -0.552   0.576  -0.805  0.00  0.00    +0.122 C 
ATOM     10  C   UNL     1      -0.330   2.931   0.979  0.00  0.00    +0.007 C 
ATOM     11  C   UNL     1       2.147   2.650   1.142  0.00  0.00    +0.009 C 
ATOM     12  C   UNL     1      -1.790   1.180  -0.103  0.00  0.00    +0.029 C 
ATOM     13  C   UNL     1       3.313   0.613   0.180  0.00  0.00    +0.076 C 
ATOM     14  C   UNL     1      -1.626   2.664   0.225  0.00  0.00    +0.007 C 
ATOM     15  C   UNL     1       3.438   2.087   0.564  0.00  0.00    +0.023 C 
ATOM     16  C   UNL     1       1.094   3.246  -1.073  0.00  0.00    +0.011 C 
ATOM     18  C   UNL     1       2.011  -1.202  -0.988  0.00  0.00    +0.010 C 
ENDROOT
BRANCH  13   4
ATOM      3  O   UNL     1       5.722  -0.359   1.477  0.00  0.00    -0.276 OA
ATOM      4  N   UNL     1       4.547   0.198  -0.454  0.00  0.00    -0.312 N 
ATOM     21  C   UNL     1       5.645  -0.253   0.256  0.00  0.00    +0.216 C 
ATOM     36  H   UNL     1       4.612   0.295  -1.463  0.00  0.00    +0.149 HD
BRANCH  21  22
ATOM     22  C   UNL     1       6.781  -0.641  -0.646  0.00  0.00    +0.075 C 
ATOM     23  C   UNL     1       8.130  -0.391   0.030  0.00  0.00    +0.013 C 
ATOM     24  C   UNL     1       6.612  -2.089  -1.112  0.00  0.00    +0.013 C 
ATOM     25  C   UNL     1       8.485  -1.438   1.085  0.00  0.00    +0.001 C 
ATOM     26  C   UNL     1       6.969  -3.110  -0.034  0.00  0.00    +0.001 C 
ATOM     27  C   UNL     1       8.357  -2.857   0.543  0.00  0.00    +0.000 C 
ENDBRANCH  21  22
ENDBRANCH  13   4
BRANCH   9   1
ATOM      1  O   UNL     1      -0.755  -0.837  -0.849  0.00  0.00    -0.391 OA
ATOM     37  H   UNL     1      -0.809  -1.163   0.065  0.00  0.00    +0.210 HD
ENDBRANCH   9   1
BRANCH  12  17
ATOM     17  C   UNL     1      -3.067   0.976  -0.927  0.00  0.00    +0.078 C 
ATOM     19  C   UNL     1      -2.912   1.661  -2.286  0.00  0.00    +0.017 C 
BRANCH  17  20
ATOM      2  O   UNL     1      -4.588   2.720  -0.312  0.00  0.00    -0.275 OA
ATOM      5  N   UNL     1      -4.957   0.669   0.695  0.00  0.00    -0.300 N 
ATOM     20  C   UNL     1      -4.271   1.534  -0.164  0.00  0.00    +0.219 C 
ATOM     29  C   UNL     1      -6.096   1.176   1.454  0.00  0.00    +0.132 C 
BRANCH   5  28
ATOM     28  C   UNL     1      -4.671  -0.749   0.900  0.00  0.00    +0.142 C 
BRANCH  28  30
ATOM     30  C   UNL     1      -5.827  -1.620   0.499  0.00  0.00    -0.030 A 
ATOM     31  C   UNL     1      -6.807  -1.952   1.435  0.00  0.00    +0.005 A 
ATOM     32  C   UNL     1      -5.921  -2.096  -0.808  0.00  0.00    +0.005 A 
ATOM     33  C   UNL     1      -7.881  -2.760   1.063  0.00  0.00    +0.000 A 
ATOM     34  C   UNL     1      -6.995  -2.905  -1.180  0.00  0.00    +0.000 A 
ATOM     35  C   UNL     1      -7.975  -3.237  -0.244  0.00  0.00    +0.000 A 
ENDBRANCH  28  30
ENDBRANCH   5  28
ENDBRANCH  17  20
ENDBRANCH  12  17
TORSDOF 7
