REMARK  Name = 11912138
REMARK  8 active torsions:
REMARK  status: ('A' for Active; 'I' for Inactive)
REMARK    1  A    between atoms: S_1  and  N_8
REMARK    2  A    between atoms: S_1  and  C_32
REMARK    3  A    between atoms: N_9  and  C_21
REMARK    4  A    between atoms: C_12  and  C_15
REMARK    5  A    between atoms: C_15  and  C_21
REMARK    6  A    between atoms: C_16  and  C_26
REMARK    7  A    between atoms: C_21  and  C_31
REMARK    8  A    between atoms: C_22  and  C_25
REMARK                            x       y       z     vdW  Elec       q    Type
REMARK                         _______ _______ _______ _____ _____    ______ ____
ROOT
ATOM      2  O   UNL     1       2.186   2.146   0.666  0.00  0.00    -0.275 OA
ATOM      7  N   UNL     1       0.056   1.909  -0.238  0.00  0.00    -0.298 N 
ATOM      8  N   UNL     1      -2.163   0.216  -0.918  0.00  0.00    -0.162 NA
ATOM     16  C   UNL     1      -1.113  -0.279   0.017  0.00  0.00    +0.183 C 
ATOM     20  C   UNL     1      -0.330   0.845   0.691  0.00  0.00    +0.137 C 
ATOM     23  C   UNL     1      -0.956   2.329  -1.212  0.00  0.00    +0.125 C 
ATOM     24  C   UNL     1      -2.316   1.693  -0.957  0.00  0.00    +0.129 C 
ATOM     25  C   UNL     1       1.323   2.487  -0.146  0.00  0.00    +0.219 C 
ENDROOT
BRANCH  25  22
ATOM     10  N   UNL     1       3.506   5.510   0.049  0.00  0.00    -0.316 NA
ATOM     22  C   UNL     1       1.614   3.596  -1.118  0.00  0.00    +0.078 C 
ATOM     27  C   UNL     1       1.173   4.947  -0.550  0.00  0.00    +0.028 C 
ATOM     28  C   UNL     1       3.098   3.618  -1.492  0.00  0.00    +0.028 C 
ATOM     29  C   UNL     1       2.126   5.461   0.530  0.00  0.00    +0.081 C 
ATOM     30  C   UNL     1       3.969   4.188  -0.371  0.00  0.00    +0.081 C 
ATOM     39  H   UNL     1       4.111   5.858   0.793  0.00  0.00    +0.122 HD
ENDBRANCH  25  22
BRANCH  16  26
ATOM      3  O   UNL     1      -0.009  -0.851  -2.017  0.00  0.00    -0.274 OA
ATOM      9  N   UNL     1       0.284  -2.213  -0.152  0.00  0.00    -0.303 N 
ATOM     26  C   UNL     1      -0.222  -1.123  -0.838  0.00  0.00    +0.234 C 
ATOM     38  H   UNL     1      -0.012  -2.376   0.806  0.00  0.00    +0.149 HD
BRANCH   9  21
ATOM     21  C   UNL     1       1.153  -3.195  -0.758  0.00  0.00    +0.159 C 
BRANCH  21  31
ATOM      6  O   UNL     1      -0.787  -4.639  -1.004  0.00  0.00    -0.274 OA
ATOM     11  N   UNL     1       0.870  -4.751  -2.591  0.00  0.00    -0.328 N 
ATOM     31  C   UNL     1       0.293  -4.251  -1.443  0.00  0.00    +0.231 C 
ATOM     40  H   UNL     1       1.772  -4.436  -2.931  0.00  0.00    +0.145 HD
ATOM     41  H   UNL     1       0.403  -5.467  -3.138  0.00  0.00    +0.145 HD
ENDBRANCH  21  31
BRANCH  21  15
ATOM     15  C   UNL     1       2.140  -3.795   0.247  0.00  0.00    +0.035 C 
BRANCH  15  12
ATOM     12  C   UNL     1       2.996  -2.761   0.978  0.00  0.00    -0.009 C 
ATOM     13  C   UNL     1       3.805  -1.925  -0.022  0.00  0.00    +0.003 C 
ATOM     14  C   UNL     1       3.921  -3.444   1.994  0.00  0.00    +0.003 C 
ATOM     17  C   UNL     1       4.710  -0.919   0.687  0.00  0.00    +0.000 C 
ATOM     18  C   UNL     1       4.825  -2.436   2.700  0.00  0.00    +0.000 C 
ATOM     19  C   UNL     1       5.621  -1.600   1.703  0.00  0.00    +0.000 C 
ENDBRANCH  15  12
ENDBRANCH  21  15
ENDBRANCH   9  21
ENDBRANCH  16  26
BRANCH   8   1
ATOM      1  S   UNL     1      -3.610  -0.693  -0.999  0.00  0.00    +0.062 S 
ATOM      4  O   UNL     1      -3.303  -2.091  -0.783  0.00  0.00    -0.153 OA
ATOM      5  O   UNL     1      -4.370  -0.267  -2.154  0.00  0.00    -0.153 OA
BRANCH   1  32
ATOM     32  C   UNL     1      -4.432  -0.093   0.444  0.00  0.00    +0.106 A 
ATOM     33  C   UNL     1      -5.270   1.019   0.357  0.00  0.00    +0.028 A 
ATOM     34  C   UNL     1      -4.244  -0.730   1.670  0.00  0.00    +0.028 A 
ATOM     35  C   UNL     1      -5.920   1.494   1.496  0.00  0.00    +0.002 A 
ATOM     36  C   UNL     1      -4.894  -0.256   2.810  0.00  0.00    +0.002 A 
ATOM     37  C   UNL     1      -5.731   0.856   2.723  0.00  0.00    +0.000 A 
ENDBRANCH   1  32
ENDBRANCH   8   1
TORSDOF 8
