REMARK  Name = 7674055
REMARK  7 active torsions:
REMARK  status: ('A' for Active; 'I' for Inactive)
REMARK    1  A    between atoms: S_1  and  N_9
REMARK    2  A    between atoms: S_1  and  C_23
REMARK    3  A    between atoms: N_11  and  C_19
REMARK    4  A    between atoms: N_13  and  C_28
REMARK    5  A    between atoms: C_14  and  C_18
REMARK    6  A    between atoms: C_36  and  C_37
REMARK    7  A    between atoms: C_37  and  C_38
REMARK                            x       y       z     vdW  Elec       q    Type
REMARK                         _______ _______ _______ _____ _____    ______ ____
ROOT
ATOM      6  O   UNL     1       2.092   0.077  -1.510  0.00  0.00    -0.252 OA
ATOM      9  N   UNL     1      -2.041  -0.831   1.127  0.00  0.00    -0.162 NA
ATOM     10  N   UNL     1       0.556  -0.922  -0.096  0.00  0.00    -0.282 N 
ATOM     13  N   UNL     1       2.868  -1.163   0.302  0.00  0.00    -0.269 N 
ATOM     14  C   UNL     1      -1.737   0.058  -0.030  0.00  0.00    +0.183 C 
ATOM     15  C   UNL     1      -0.581  -0.449  -0.889  0.00  0.00    +0.139 C 
ATOM     16  C   UNL     1      -1.249  -2.086   1.168  0.00  0.00    +0.129 C 
ATOM     17  C   UNL     1       0.232  -1.742   1.078  0.00  0.00    +0.126 C 
ATOM     22  C   UNL     1       1.873  -0.617  -0.515  0.00  0.00    +0.307 C 
ATOM     41  H   UNL     1       2.584  -1.701   1.114  0.00  0.00    +0.156 HD
ENDROOT
BRANCH  13  28
ATOM     28  C   UNL     1       4.273  -1.044   0.157  0.00  0.00    +0.035 A 
ATOM     32  C   UNL     1       5.123  -1.660   1.075  0.00  0.00    +0.024 A 
ATOM     33  C   UNL     1       4.804  -0.309  -0.903  0.00  0.00    +0.024 A 
ATOM     34  C   UNL     1       6.506  -1.542   0.932  0.00  0.00    +0.013 A 
ATOM     35  C   UNL     1       6.187  -0.191  -1.045  0.00  0.00    +0.013 A 
ATOM     36  C   UNL     1       7.038  -0.808  -0.127  0.00  0.00    +0.017 A 
BRANCH  36  37
ATOM      8  O   UNL     1       9.010  -0.555  -1.397  0.00  0.00    -0.292 OA
ATOM     37  C   UNL     1       8.479  -0.686  -0.275  0.00  0.00    +0.160 C 
ATOM     38  C   UNL     1       9.383  -0.716   0.952  0.00  0.00    +0.091 C 
ENDBRANCH  36  37
ENDBRANCH  13  28
BRANCH  14  18
ATOM      5  O   UNL     1      -0.845   1.459   1.680  0.00  0.00    -0.274 OA
ATOM     11  N   UNL     1      -1.836   2.442  -0.183  0.00  0.00    -0.303 N 
ATOM     18  C   UNL     1      -1.410   1.377   0.593  0.00  0.00    +0.234 C 
ATOM     39  H   UNL     1      -2.267   2.256  -1.084  0.00  0.00    +0.149 HD
BRANCH  11  19
ATOM      7  O   UNL     1      -4.005   4.101  -0.298  0.00  0.00    -0.274 OA
ATOM     12  N   UNL     1      -2.666   5.931  -0.577  0.00  0.00    -0.314 N 
ATOM     19  C   UNL     1      -1.661   3.818   0.205  0.00  0.00    +0.159 C 
ATOM     20  C   UNL     1      -0.329   4.358  -0.297  0.00  0.00    +0.033 C 
ATOM     21  C   UNL     1      -0.250   5.852  -0.028  0.00  0.00    +0.021 C 
ATOM     24  C   UNL     1      -2.878   4.600  -0.278  0.00  0.00    +0.233 C 
ATOM     25  C   UNL     1      -1.369   6.551  -0.778  0.00  0.00    +0.104 C 
ATOM     40  H   UNL     1      -3.480   6.476  -0.844  0.00  0.00    +0.149 HD
ENDBRANCH  11  19
ENDBRANCH  14  18
BRANCH   9   1
ATOM      1  S   UNL     1      -3.683  -0.960   1.586  0.00  0.00    +0.062 S 
ATOM      3  O   UNL     1      -4.347   0.301   1.332  0.00  0.00    -0.153 OA
ATOM      4  O   UNL     1      -3.760  -1.594   2.885  0.00  0.00    -0.153 OA
BRANCH   1  23
ATOM      2  F   UNL     1      -5.578  -4.833  -2.433  0.00  0.00    -0.205 F 
ATOM     23  C   UNL     1      -4.251  -2.120   0.382  0.00  0.00    +0.106 A 
ATOM     26  C   UNL     1      -4.195  -3.488   0.651  0.00  0.00    +0.031 A 
ATOM     27  C   UNL     1      -4.755  -1.669  -0.838  0.00  0.00    +0.031 A 
ATOM     29  C   UNL     1      -4.644  -4.404  -0.300  0.00  0.00    +0.040 A 
ATOM     30  C   UNL     1      -5.203  -2.585  -1.789  0.00  0.00    +0.040 A 
ATOM     31  C   UNL     1      -5.148  -3.953  -1.520  0.00  0.00    +0.124 A 
ENDBRANCH   1  23
ENDBRANCH   9   1
TORSDOF 6
