REMARK  Name = 11882569
REMARK  13 active torsions:
REMARK  status: ('A' for Active; 'I' for Inactive)
REMARK    1  A    between atoms: O_1  and  C_12
REMARK    2  A    between atoms: O_2  and  C_15
REMARK    3  A    between atoms: O_3  and  C_17
REMARK    4  A    between atoms: O_7  and  C_31
REMARK    5  A    between atoms: O_7  and  C_36
REMARK    6  A    between atoms: N_8  and  C_13
REMARK    7  A    between atoms: N_9  and  C_19
REMARK    8  A    between atoms: N_10  and  C_24
REMARK    9  A    between atoms: C_12  and  C_18
REMARK   10  A    between atoms: C_19  and  C_21
REMARK   11  A    between atoms: C_19  and  C_22
REMARK   12  A    between atoms: C_21  and  C_23
REMARK   13  A    between atoms: C_34  and  C_35
REMARK                            x       y       z     vdW  Elec       q    Type
REMARK                         _______ _______ _______ _____ _____    ______ ____
ROOT
ATOM     12  C   UNL     1      -2.204  -1.829   0.892  0.00  0.00    +0.146 C 
ATOM     13  C   UNL     1       0.074  -2.393  -0.083  0.00  0.00    +0.109 C 
ATOM     14  C   UNL     1      -0.877  -1.278   0.366  0.00  0.00    +0.069 C 
ATOM     15  C   UNL     1      -0.591  -3.338  -1.092  0.00  0.00    +0.163 C 
ATOM     16  C   UNL     1      -2.865  -2.752  -0.130  0.00  0.00    +0.078 C 
ATOM     17  C   UNL     1      -1.930  -3.875  -0.580  0.00  0.00    +0.148 C 
ENDROOT
BRANCH  13   8
ATOM      5  O   UNL     1       2.440  -1.645   1.347  0.00  0.00    -0.252 OA
ATOM      8  N   UNL     1       1.276  -1.814  -0.643  0.00  0.00    -0.294 N 
ATOM     10  N   UNL     1       3.395  -0.941  -0.679  0.00  0.00    -0.269 N 
ATOM     20  C   UNL     1       2.390  -1.478   0.130  0.00  0.00    +0.304 C 
ATOM     37  H   UNL     1       1.281  -1.573  -1.629  0.00  0.00    +0.151 HD
ATOM     42  H   UNL     1       3.190  -0.871  -1.673  0.00  0.00    +0.156 HD
BRANCH  10  24
ATOM     24  C   UNL     1       4.672  -0.478  -0.285  0.00  0.00    +0.035 A 
ATOM     27  C   UNL     1       5.536   0.025  -1.244  0.00  0.00    +0.023 A 
ATOM     28  C   UNL     1       5.033  -0.538   1.051  0.00  0.00    +0.023 A 
ATOM     32  C   UNL     1       6.796   0.481  -0.856  0.00  0.00    +0.005 A 
ATOM     33  C   UNL     1       6.293  -0.082   1.439  0.00  0.00    +0.005 A 
ATOM     34  C   UNL     1       7.174   0.428   0.485  0.00  0.00    -0.050 A 
ATOM     35  C   UNL     1       8.521   0.915   0.901  0.00  0.00    +0.044 C 
ENDBRANCH  10  24
ENDBRANCH  13   8
BRANCH  12  18
ATOM      4  O   UNL     1      -3.580  -0.580   2.392  0.00  0.00    -0.273 OA
ATOM      9  N   UNL     1      -3.422   0.105   0.173  0.00  0.00    -0.301 N 
ATOM     18  C   UNL     1      -3.134  -0.709   1.255  0.00  0.00    +0.246 C 
ATOM     41  H   UNL     1      -3.076  -0.140  -0.748  0.00  0.00    +0.150 HD
BRANCH   9  19
ATOM     19  C   UNL     1      -4.311   1.241   0.253  0.00  0.00    +0.163 C 
BRANCH  19  22
ATOM      6  O   UNL     1      -5.993  -0.197  -0.752  0.00  0.00    -0.274 OA
ATOM     11  N   UNL     1      -6.663   1.359   0.799  0.00  0.00    -0.328 N 
ATOM     22  C   UNL     1      -5.722   0.722   0.018  0.00  0.00    +0.231 C 
ATOM     43  H   UNL     1      -6.425   2.115   1.433  0.00  0.00    +0.145 HD
ATOM     44  H   UNL     1      -7.643   1.098   0.751  0.00  0.00    +0.145 HD
ENDBRANCH  19  22
BRANCH  19  21
ATOM     21  C   UNL     1      -3.963   2.327  -0.772  0.00  0.00    +0.067 C 
BRANCH  21  23
ATOM     23  C   UNL     1      -2.558   2.854  -0.595  0.00  0.00    -0.045 A 
ATOM     25  C   UNL     1      -1.514   2.244  -1.272  0.00  0.00    +0.007 A 
ATOM     26  C   UNL     1      -2.341   3.937   0.240  0.00  0.00    +0.007 A 
ATOM     29  C   UNL     1      -0.217   2.730  -1.107  0.00  0.00    +0.046 A 
ATOM     30  C   UNL     1      -1.044   4.423   0.405  0.00  0.00    +0.046 A 
ATOM     31  C   UNL     1       0.018   3.820  -0.269  0.00  0.00    +0.120 A 
BRANCH  31   7
ATOM      7  O   UNL     1       1.283   4.295  -0.109  0.00  0.00    -0.495 OA
ATOM     36  C   UNL     1       2.322   3.632  -0.828  0.00  0.00    +0.277 C 
ENDBRANCH  31   7
ENDBRANCH  21  23
ENDBRANCH  19  21
ENDBRANCH   9  19
ENDBRANCH  12  18
BRANCH  12   1
ATOM      1  O   UNL     1      -2.000  -2.547   2.104  0.00  0.00    -0.379 OA
ATOM     38  H   UNL     1      -1.397  -3.288   1.941  0.00  0.00    +0.211 HD
ENDBRANCH  12   1
BRANCH  15   2
ATOM      2  O   UNL     1       0.267  -4.460  -1.317  0.00  0.00    -0.387 OA
ATOM     39  H   UNL     1      -0.177  -5.043  -1.956  0.00  0.00    +0.210 HD
ENDBRANCH  15   2
BRANCH  17   3
ATOM      3  O   UNL     1      -2.558  -4.603  -1.636  0.00  0.00    -0.389 OA
ATOM     40  H   UNL     1      -2.709  -3.991  -2.376  0.00  0.00    +0.210 HD
ENDBRANCH  17   3
TORSDOF 11
