REMARK  Name = 7049398
REMARK  9 active torsions:
REMARK  status: ('A' for Active; 'I' for Inactive)
REMARK    1  A    between atoms: N_6  and  C_15
REMARK    2  A    between atoms: N_7  and  C_20
REMARK    3  A    between atoms: N_8  and  C_27
REMARK    4  A    between atoms: C_11  and  C_16
REMARK    5  A    between atoms: C_14  and  C_19
REMARK    6  A    between atoms: C_20  and  C_22
REMARK    7  A    between atoms: C_20  and  C_24
REMARK    8  A    between atoms: C_22  and  C_23
REMARK    9  A    between atoms: C_27  and  C_31
REMARK                            x       y       z     vdW  Elec       q    Type
REMARK                         _______ _______ _______ _____ _____    ______ ____
ROOT
ATOM      2  O   UNL     1      -1.878  -0.995   0.964  0.00  0.00    -0.274 OA
ATOM      7  N   UNL     1      -0.782  -1.870  -0.894  0.00  0.00    -0.302 N 
ATOM     19  C   UNL     1      -1.730  -1.093  -0.252  0.00  0.00    +0.234 C 
ATOM     36  H   UNL     1      -0.808  -1.938  -1.908  0.00  0.00    +0.150 HD
ENDROOT
BRANCH  19  14
ATOM      1  O   UNL     1      -4.898  -1.264   0.222  0.00  0.00    -0.275 OA
ATOM      5  N   UNL     1      -3.531   0.481  -0.462  0.00  0.00    -0.288 N 
ATOM     14  C   UNL     1      -2.585  -0.327  -1.216  0.00  0.00    +0.164 C 
ATOM     15  C   UNL     1      -1.853   1.979  -1.231  0.00  0.00    +0.094 C 
ATOM     16  C   UNL     1      -4.660  -0.062   0.136  0.00  0.00    +0.219 C 
ATOM     17  C   UNL     1      -3.228   1.907  -0.575  0.00  0.00    +0.131 C 
ATOM     18  C   UNL     1      -1.764   0.673  -2.026  0.00  0.00    +0.055 C 
BRANCH  15   6
ATOM      3  O   UNL     1       0.719   3.238  -1.587  0.00  0.00    -0.253 OA
ATOM      6  N   UNL     1      -0.801   2.098  -0.253  0.00  0.00    -0.295 N 
ATOM      8  N   UNL     1       1.248   2.699   0.606  0.00  0.00    -0.296 N 
ATOM     21  C   UNL     1       0.417   2.725  -0.510  0.00  0.00    +0.300 C 
ATOM     35  H   UNL     1      -0.925   1.646   0.648  0.00  0.00    +0.151 HD
ATOM     37  H   UNL     1       0.905   2.268   1.460  0.00  0.00    +0.151 HD
BRANCH   8  27
ATOM     27  C   UNL     1       2.570   3.279   0.612  0.00  0.00    +0.132 C 
BRANCH  27  31
ATOM     31  C   UNL     1       2.476   4.704   1.046  0.00  0.00    -0.016 C 
ATOM     34  C   UNL     1       2.889   5.738   0.305  0.00  0.00    +0.005 C 
ENDBRANCH  27  31
ENDBRANCH   8  27
ENDBRANCH  15   6
BRANCH  16  11
ATOM     11  C   UNL     1      -5.629   0.909   0.728  0.00  0.00    +0.075 C 
ATOM     12  C   UNL     1      -6.515   0.462   1.854  0.00  0.00    +0.013 C 
ATOM     13  C   UNL     1      -5.393   1.422   2.118  0.00  0.00    +0.013 C 
ENDBRANCH  16  11
ENDBRANCH  19  14
BRANCH   7  20
ATOM     20  C   UNL     1       0.181  -2.686  -0.191  0.00  0.00    +0.163 C 
BRANCH  20  24
ATOM      4  O   UNL     1      -1.274  -4.566  -0.693  0.00  0.00    -0.274 OA
ATOM     10  N   UNL     1      -0.062  -4.606   1.258  0.00  0.00    -0.328 N 
ATOM     24  C   UNL     1      -0.483  -4.029   0.078  0.00  0.00    +0.231 C 
ATOM     39  H   UNL     1      -0.417  -5.510   1.550  0.00  0.00    +0.145 HD
ATOM     40  H   UNL     1       0.611  -4.161   1.873  0.00  0.00    +0.145 HD
ENDBRANCH  20  24
BRANCH  20  22
ATOM     22  C   UNL     1       1.476  -2.878  -0.990  0.00  0.00    +0.069 C 
BRANCH  22  23
ATOM      9  N   UNL     1       3.387   0.240  -1.361  0.00  0.00    -0.360 N 
ATOM     23  C   UNL     1       2.398  -1.695  -0.910  0.00  0.00    -0.020 A 
ATOM     25  C   UNL     1       3.421  -1.483   0.056  0.00  0.00    +0.003 A 
ATOM     26  C   UNL     1       2.402  -0.619  -1.767  0.00  0.00    +0.087 A 
ATOM     28  C   UNL     1       4.026  -0.261  -0.249  0.00  0.00    +0.047 A 
ATOM     29  C   UNL     1       3.893  -2.214   1.164  0.00  0.00    +0.010 A 
ATOM     30  C   UNL     1       5.082   0.267   0.501  0.00  0.00    +0.026 A 
ATOM     32  C   UNL     1       4.948  -1.698   1.924  0.00  0.00    +0.001 A 
ATOM     33  C   UNL     1       5.532  -0.476   1.596  0.00  0.00    +0.002 A 
ATOM     38  H   UNL     1       3.612   1.117  -1.810  0.00  0.00    +0.165 HD
ENDBRANCH  22  23
ENDBRANCH  20  22
ENDBRANCH   7  20
TORSDOF 9
