REMARK  Name = 40780217
REMARK  7 active torsions:
REMARK  status: ('A' for Active; 'I' for Inactive)
REMARK    1  A    between atoms: N_4  and  C_16
REMARK    2  A    between atoms: N_5  and  C_17
REMARK    3  A    between atoms: N_6  and  C_23
REMARK    4  A    between atoms: N_7  and  C_26
REMARK    5  A    between atoms: C_10  and  C_16
REMARK    6  A    between atoms: C_11  and  C_17
REMARK    7  A    between atoms: C_32  and  C_35
REMARK                            x       y       z     vdW  Elec       q    Type
REMARK                         _______ _______ _______ _____ _____    ______ ____
ROOT
ATOM      3  N   UNL     1      -1.020   3.834   0.000  0.00  0.00    -0.298 NA
ATOM      9  C   UNL     1       0.607   2.100   1.056  0.00  0.00    -0.003 C 
ATOM     10  C   UNL     1       1.268   2.820  -0.142  0.00  0.00    +0.020 C 
ATOM     11  C   UNL     1      -1.686   2.508   0.104  0.00  0.00    +0.074 C 
ATOM     12  C   UNL     1      -0.696   1.426   0.588  0.00  0.00    +0.024 C 
ATOM     13  C   UNL     1       0.214   3.727  -0.815  0.00  0.00    +0.089 C 
ATOM     14  C   UNL     1       0.217   3.190   2.073  0.00  0.00    +0.019 C 
ATOM     15  C   UNL     1      -0.635   4.260   1.368  0.00  0.00    +0.085 C 
ENDROOT
BRANCH  10  16
ATOM     16  C   UNL     1       1.907   1.860  -1.143  0.00  0.00    +0.089 C 
BRANCH  16   4
ATOM      4  N   UNL     1       2.905   1.012  -0.493  0.00  0.00    -0.299 NA
ATOM      6  N   UNL     1       5.365  -0.425  -0.278  0.00  0.00    -0.327 N 
ATOM     18  C   UNL     1       4.176   1.731  -0.344  0.00  0.00    +0.103 C 
ATOM     19  C   UNL     1       3.116  -0.220  -1.264  0.00  0.00    +0.103 C 
ATOM     20  C   UNL     1       5.213   0.873   0.386  0.00  0.00    +0.120 C 
ATOM     21  C   UNL     1       4.116  -1.142  -0.564  0.00  0.00    +0.120 C 
BRANCH   6  23
ATOM      1  F   UNL     1       9.941  -3.412   0.560  0.00  0.00    -0.205 F 
ATOM     23  C   UNL     1       6.523  -1.181  -0.066  0.00  0.00    +0.030 A 
ATOM     24  C   UNL     1       7.207  -1.085   1.146  0.00  0.00    +0.026 A 
ATOM     25  C   UNL     1       6.994  -2.031  -1.067  0.00  0.00    +0.026 A 
ATOM     27  C   UNL     1       8.361  -1.838   1.358  0.00  0.00    +0.040 A 
ATOM     28  C   UNL     1       8.149  -2.784  -0.855  0.00  0.00    +0.040 A 
ATOM     29  C   UNL     1       8.832  -2.688   0.357  0.00  0.00    +0.124 A 
ENDBRANCH   6  23
ENDBRANCH  16   4
ENDBRANCH  10  16
BRANCH  11  17
ATOM     17  C   UNL     1      -2.382   2.101  -1.197  0.00  0.00    +0.124 C 
BRANCH  17   5
ATOM      2  O   UNL     1      -5.115   1.856  -0.376  0.00  0.00    -0.253 OA
ATOM      5  N   UNL     1      -3.117   0.886  -1.024  0.00  0.00    -0.298 N 
ATOM      7  N   UNL     1      -4.914  -0.477  -0.534  0.00  0.00    -0.269 N 
ATOM     22  C   UNL     1      -4.463   0.843  -0.616  0.00  0.00    +0.304 C 
ATOM     36  H   UNL     1      -2.641   0.008  -1.201  0.00  0.00    +0.150 HD
ATOM     37  H   UNL     1      -4.242  -1.204  -0.767  0.00  0.00    +0.156 HD
BRANCH   7  26
ATOM     26  C   UNL     1      -6.200  -0.934  -0.162  0.00  0.00    +0.036 A 
ATOM     30  C   UNL     1      -6.474  -2.301  -0.133  0.00  0.00    +0.042 A 
ATOM     31  C   UNL     1      -7.194  -0.016   0.177  0.00  0.00    +0.023 A 
ATOM     32  C   UNL     1      -7.742  -2.751   0.234  0.00  0.00    +0.054 A 
ATOM     33  C   UNL     1      -8.462  -0.466   0.544  0.00  0.00    +0.003 A 
ATOM     34  C   UNL     1      -8.736  -1.833   0.573  0.00  0.00    +0.019 A 
BRANCH  32  35
ATOM      8  N   UNL     1      -8.252  -5.290   0.287  0.00  0.00    -0.191 NA
ATOM     35  C   UNL     1      -8.023  -4.152   0.263  0.00  0.00    +0.099 C 
ENDBRANCH  32  35
ENDBRANCH   7  26
ENDBRANCH  17   5
ENDBRANCH  11  17
TORSDOF 7
