REMARK  Name = 45783819
REMARK  13 active torsions:
REMARK  status: ('A' for Active; 'I' for Inactive)
REMARK    1  A    between atoms: O_2  and  C_20
REMARK    2  A    between atoms: O_2  and  C_28
REMARK    3  A    between atoms: O_3  and  C_21
REMARK    4  A    between atoms: O_3  and  C_29
REMARK    5  A    between atoms: O_4  and  C_22
REMARK    6  A    between atoms: O_4  and  C_30
REMARK    7  A    between atoms: N_5  and  C_14
REMARK    8  A    between atoms: N_9  and  C_27
REMARK    9  A    between atoms: N_9  and  C_31
REMARK   10  A    between atoms: N_9  and  C_32
REMARK   11  A    between atoms: C_10  and  C_15
REMARK   12  A    between atoms: C_14  and  C_16
REMARK   13  A    between atoms: C_19  and  C_23
REMARK                            x       y       z     vdW  Elec       q    Type
REMARK                         _______ _______ _______ _____ _____    ______ ____
ROOT
ATOM      5  N   UNL     1      -3.576  -1.093  -0.812  0.00  0.00    -0.287 NA
ATOM     10  C   UNL     1      -3.270  -1.750   0.474  0.00  0.00    +0.146 C 
ATOM     11  C   UNL     1      -3.705  -3.214   0.279  0.00  0.00    +0.030 C 
ATOM     12  C   UNL     1      -4.298  -3.269  -1.122  0.00  0.00    +0.017 C 
ATOM     13  C   UNL     1      -4.693  -1.833  -1.399  0.00  0.00    +0.085 C 
ENDROOT
BRANCH  10  15
ATOM      1  O   UNL     1      -1.534  -1.651   2.192  0.00  0.00    -0.336 OA
ATOM      6  N   UNL     1      -0.759  -1.478   0.098  0.00  0.00    -0.190 NA
ATOM      7  N   UNL     1      -0.144  -1.515   2.301  0.00  0.00    -0.056 NA
ATOM     15  C   UNL     1      -1.812  -1.620   0.862  0.00  0.00    +0.245 A 
ATOM     19  C   UNL     1       0.240  -1.418   1.025  0.00  0.00    +0.204 A 
BRANCH  19  23
ATOM      8  N   UNL     1       3.931  -1.057   1.302  0.00  0.00    -0.240 NA
ATOM     23  C   UNL     1       1.614  -1.263   0.642  0.00  0.00    +0.041 A 
ATOM     24  C   UNL     1       1.979  -1.167  -0.696  0.00  0.00    +0.016 A 
ATOM     25  C   UNL     1       2.619  -1.203   1.595  0.00  0.00    +0.124 A 
ATOM     26  C   UNL     1       3.319  -1.016  -1.036  0.00  0.00    +0.044 A 
ATOM     27  C   UNL     1       4.247  -0.967  -0.009  0.00  0.00    +0.121 A 
BRANCH  27   9
ATOM      9  N   UNL     1       5.609  -0.815  -0.371  0.00  0.00    -0.321 N 
ATOM     31  C   UNL     1       6.631  -0.749   0.650  0.00  0.00    +0.130 C 
ATOM     32  C   UNL     1       5.984  -0.717  -1.764  0.00  0.00    +0.130 C 
ENDBRANCH  27   9
ENDBRANCH  19  23
ENDBRANCH  10  15
BRANCH   5  14
ATOM     14  C   UNL     1      -3.871   0.328  -0.676  0.00  0.00    +0.120 C 
BRANCH  14  16
ATOM     16  C   UNL     1      -2.617   1.150  -0.542  0.00  0.00    -0.026 A 
ATOM     17  C   UNL     1      -2.422   1.947   0.586  0.00  0.00    +0.054 A 
ATOM     18  C   UNL     1      -1.649   1.115  -1.546  0.00  0.00    +0.054 A 
ATOM     20  C   UNL     1      -0.487   1.877  -1.422  0.00  0.00    +0.165 A 
ATOM     21  C   UNL     1      -1.260   2.709   0.711  0.00  0.00    +0.165 A 
ATOM     22  C   UNL     1      -0.293   2.674  -0.294  0.00  0.00    +0.204 A 
BRANCH  20   2
ATOM      2  O   UNL     1       0.450   1.833  -2.410  0.00  0.00    -0.491 OA
ATOM     28  C   UNL     1       0.173   0.993  -3.529  0.00  0.00    +0.277 C 
ENDBRANCH  20   2
BRANCH  21   3
ATOM      3  O   UNL     1      -1.083   3.484   1.817  0.00  0.00    -0.491 OA
ATOM     29  C   UNL     1      -2.120   3.462   2.796  0.00  0.00    +0.277 C 
ENDBRANCH  21   3
BRANCH  22   4
ATOM      4  O   UNL     1       0.843   3.419  -0.173  0.00  0.00    -0.488 OA
ATOM     30  C   UNL     1       1.955   2.803   0.471  0.00  0.00    +0.277 C 
ENDBRANCH  22   4
ENDBRANCH  14  16
ENDBRANCH   5  14
TORSDOF 8
