REMARK  Name = 75536789
REMARK  6 active torsions:
REMARK  status: ('A' for Active; 'I' for Inactive)
REMARK    1  A    between atoms: O_2  and  C_9
REMARK    2  A    between atoms: N_5  and  C_8
REMARK    3  A    between atoms: N_5  and  C_11
REMARK    4  A    between atoms: N_6  and  C_15
REMARK    5  A    between atoms: C_10  and  C_15
REMARK    6  A    between atoms: C_18  and  C_19
REMARK                            x       y       z     vdW  Elec       q    Type
REMARK                         _______ _______ _______ _____ _____    ______ ____
ROOT
ATOM      1  O   UNL     1      -0.091   0.551  -0.888  0.00  0.00    -0.371 OA
ATOM      8  C   UNL     1      -2.187  -0.317  -0.182  0.00  0.00    +0.111 C 
ATOM      9  C   UNL     1      -1.198  -1.460  -0.320  0.00  0.00    +0.164 C 
ATOM     10  C   UNL     1       0.126  -0.714  -0.241  0.00  0.00    +0.165 C 
ATOM     12  C   UNL     1      -1.509   0.767  -1.004  0.00  0.00    +0.181 C 
ENDROOT
BRANCH   9   2
ATOM      2  O   UNL     1      -1.326  -2.419   0.713  0.00  0.00    -0.388 OA
ATOM     25  H   UNL     1      -1.228  -1.964   1.566  0.00  0.00    +0.210 HD
ENDBRANCH   9   2
BRANCH   8   5
ATOM      5  N   UNL     1      -3.521  -0.639  -0.661  0.00  0.00    -0.306 NA
ATOM     24  H   UNL     1      -3.794  -1.567  -0.340  0.00  0.00    +0.123 HD
BRANCH   5  11
ATOM      3  O   UNL     1      -7.127   0.930   0.811  0.00  0.00    -0.380 OA
ATOM     11  C   UNL     1      -4.496   0.349  -0.204  0.00  0.00    +0.058 C 
ATOM     13  C   UNL     1      -4.885   0.105   1.257  0.00  0.00    +0.047 C 
ATOM     14  C   UNL     1      -5.744   0.315  -1.091  0.00  0.00    +0.047 C 
ATOM     16  C   UNL     1      -5.998   1.058   1.676  0.00  0.00    +0.161 C 
ATOM     17  C   UNL     1      -6.810   1.257  -0.542  0.00  0.00    +0.161 C 
ENDBRANCH   5  11
ENDBRANCH   8   5
BRANCH  10  15
ATOM     15  C   UNL     1       1.270  -1.447  -0.919  0.00  0.00    +0.138 C 
BRANCH  15   6
ATOM      4  O   UNL     1       3.224  -1.628   1.177  0.00  0.00    -0.270 OA
ATOM      6  N   UNL     1       2.495  -0.706  -0.823  0.00  0.00    -0.309 N 
ATOM     18  C   UNL     1       3.387  -0.859   0.234  0.00  0.00    +0.244 C 
ATOM     26  H   UNL     1       2.658  -0.003  -1.536  0.00  0.00    +0.149 HD
BRANCH  18  19
ATOM      7  N   UNL     1       6.873   1.624   0.136  0.00  0.00    -0.263 NA
ATOM     19  C   UNL     1       4.598   0.001   0.200  0.00  0.00    +0.040 A 
ATOM     20  C   UNL     1       5.235   0.356   1.383  0.00  0.00    +0.033 A 
ATOM     21  C   UNL     1       5.097   0.456  -1.016  0.00  0.00    +0.033 A 
ATOM     22  C   UNL     1       6.359   1.162   1.298  0.00  0.00    +0.111 A 
ATOM     23  C   UNL     1       6.227   1.258  -0.994  0.00  0.00    +0.111 A 
ENDBRANCH  18  19
ENDBRANCH  15   6
ENDBRANCH  10  15
TORSDOF 6
