REMARK  Name = 11911979
REMARK  2 active torsions:
REMARK  status: ('A' for Active; 'I' for Inactive)
REMARK    1  A    between atoms: N_4  and  C_12
REMARK    2  A    between atoms: C_20  and  C_22
REMARK                            x       y       z     vdW  Elec       q    Type
REMARK                         _______ _______ _______ _____ _____    ______ ____
ROOT
ATOM      3  O   UNL     1      -1.103   0.899  -1.848  0.00  0.00    -0.267 OA
ATOM      4  N   UNL     1       3.527   0.227  -0.048  0.00  0.00    -0.298 NA
ATOM      5  N   UNL     1       0.639   1.526  -0.429  0.00  0.00    -0.311 N 
ATOM      6  C   UNL     1       2.918   2.313  -1.299  0.00  0.00    +0.024 C 
ATOM      7  C   UNL     1       2.513   2.194   1.113  0.00  0.00    +0.050 C 
ATOM      8  C   UNL     1       2.965   3.123  -0.011  0.00  0.00    +0.017 C 
ATOM      9  C   UNL     1       3.854   1.090  -1.189  0.00  0.00    +0.090 C 
ATOM     10  C   UNL     1       3.480   0.991   1.208  0.00  0.00    +0.094 C 
ATOM     11  C   UNL     1       1.463   1.917  -1.582  0.00  0.00    +0.130 C 
ATOM     13  C   UNL     1       1.092   1.716   0.879  0.00  0.00    +0.026 A 
ATOM     16  C   UNL     1       0.282   1.458   1.918  0.00  0.00    +0.022 A 
ATOM     17  C   UNL     1      -0.658   1.051  -0.710  0.00  0.00    +0.260 A 
ATOM     20  C   UNL     1      -1.527   0.740   0.478  0.00  0.00    +0.053 A 
ATOM     21  C   UNL     1      -1.048   0.958   1.711  0.00  0.00    +0.016 A 
ENDROOT
BRANCH  20  22
ATOM      1  S   UNL     1      -3.094  -1.465   0.230  0.00  0.00    -0.088 S 
ATOM     22  C   UNL     1      -2.847   0.224   0.299  0.00  0.00    +0.026 A 
ATOM     23  C   UNL     1      -4.034   0.915   0.164  0.00  0.00    +0.024 A 
ATOM     24  C   UNL     1      -5.172   0.056   0.000  0.00  0.00    -0.010 A 
ATOM     25  C   UNL     1      -4.796  -1.291   0.018  0.00  0.00    +0.020 A 
ATOM     26  C   UNL     1      -6.543   0.366  -0.167  0.00  0.00    +0.009 A 
ATOM     27  C   UNL     1      -5.746  -2.322  -0.126  0.00  0.00    +0.015 A 
ATOM     28  C   UNL     1      -7.487  -0.654  -0.309  0.00  0.00    +0.001 A 
ATOM     29  C   UNL     1      -7.090  -1.984  -0.288  0.00  0.00    +0.001 A 
ENDBRANCH  20  22
BRANCH   4  12
ATOM      2  O   UNL     1       4.949  -3.723  -0.063  0.00  0.00    -0.380 OA
ATOM     12  C   UNL     1       4.466  -0.887   0.053  0.00  0.00    +0.061 C 
ATOM     14  C   UNL     1       4.046  -1.838   1.178  0.00  0.00    +0.047 C 
ATOM     15  C   UNL     1       4.559  -1.651  -1.272  0.00  0.00    +0.047 C 
ATOM     18  C   UNL     1       4.954  -3.063   1.203  0.00  0.00    +0.161 C 
ATOM     19  C   UNL     1       5.439  -2.886  -1.110  0.00  0.00    +0.161 C 
ENDBRANCH   4  12
TORSDOF 2
