REMARK  Name = 26741937
REMARK  8 active torsions:
REMARK  status: ('A' for Active; 'I' for Inactive)
REMARK    1  A    between atoms: O_1  and  C_9
REMARK    2  A    between atoms: O_4  and  C_23
REMARK    3  A    between atoms: O_4  and  C_29
REMARK    4  A    between atoms: N_6  and  C_8
REMARK    5  A    between atoms: N_7  and  C_17
REMARK    6  A    between atoms: C_15  and  C_16
REMARK    7  A    between atoms: C_17  and  C_20
REMARK    8  A    between atoms: C_29  and  C_30
REMARK                            x       y       z     vdW  Elec       q    Type
REMARK                         _______ _______ _______ _____ _____    ______ ____
ROOT
ATOM      2  O   UNL     1      -2.381   0.213  -1.829  0.00  0.00    -0.253 OA
ATOM      5  N   UNL     1      -4.433  -0.582  -1.090  0.00  0.00    -0.284 N 
ATOM      7  N   UNL     1      -4.059   1.728  -1.417  0.00  0.00    -0.295 N 
ATOM      8  C   UNL     1      -3.301  -2.320   0.320  0.00  0.00    +0.119 C 
ATOM      9  C   UNL     1      -3.918  -1.682   1.579  0.00  0.00    +0.136 C 
ATOM     10  C   UNL     1      -5.446  -1.559   1.584  0.00  0.00    +0.035 C 
ATOM     11  C   UNL     1      -3.951  -1.961  -1.024  0.00  0.00    +0.134 C 
ATOM     12  C   UNL     1      -5.957  -0.313   0.855  0.00  0.00    +0.022 C 
ATOM     13  C   UNL     1      -5.821  -0.382  -0.660  0.00  0.00    +0.109 C 
ATOM     14  C   UNL     1      -3.543   0.438  -1.475  0.00  0.00    +0.303 C 
ATOM     38  H   UNL     1      -4.968   1.907  -1.012  0.00  0.00    +0.151 HD
ENDROOT
BRANCH   8   6
ATOM      3  O   UNL     1      -1.199  -4.032  -0.628  0.00  0.00    -0.270 OA
ATOM      6  N   UNL     1      -1.883  -2.012   0.283  0.00  0.00    -0.305 N 
ATOM     15  C   UNL     1      -0.946  -2.911  -0.195  0.00  0.00    +0.244 C 
ATOM     36  H   UNL     1      -1.599  -1.105   0.635  0.00  0.00    +0.149 HD
BRANCH  15  16
ATOM     16  C   UNL     1       0.468  -2.456  -0.141  0.00  0.00    +0.037 A 
ATOM     18  C   UNL     1       1.498  -3.391  -0.043  0.00  0.00    +0.016 A 
ATOM     19  C   UNL     1       0.764  -1.093  -0.187  0.00  0.00    +0.016 A 
ATOM     21  C   UNL     1       2.825  -2.964   0.009  0.00  0.00    +0.046 A 
ATOM     22  C   UNL     1       2.091  -0.666  -0.134  0.00  0.00    +0.046 A 
ATOM     23  C   UNL     1       3.121  -1.602  -0.036  0.00  0.00    +0.121 A 
BRANCH  23   4
ATOM      4  O   UNL     1       4.416  -1.185   0.015  0.00  0.00    -0.487 OA
BRANCH   4  29
ATOM     29  C   UNL     1       4.647   0.223  -0.035  0.00  0.00    +0.264 C 
BRANCH  29  30
ATOM     30  C   UNL     1       6.125   0.478   0.001  0.00  0.00    -0.010 A 
ATOM     31  C   UNL     1       6.775   0.647   1.223  0.00  0.00    +0.007 A 
ATOM     32  C   UNL     1       6.849   0.547  -1.189  0.00  0.00    +0.007 A 
ATOM     33  C   UNL     1       8.149   0.885   1.256  0.00  0.00    +0.000 A 
ATOM     34  C   UNL     1       8.223   0.785  -1.157  0.00  0.00    +0.000 A 
ATOM     35  C   UNL     1       8.873   0.954   0.066  0.00  0.00    +0.000 A 
ENDBRANCH  29  30
ENDBRANCH   4  29
ENDBRANCH  23   4
ENDBRANCH  15  16
ENDBRANCH   8   6
BRANCH   9   1
ATOM      1  O   UNL     1      -3.535  -2.508   2.687  0.00  0.00    -0.390 OA
ATOM     37  H   UNL     1      -3.824  -2.061   3.501  0.00  0.00    +0.210 HD
ENDBRANCH   9   1
BRANCH   7  17
ATOM     17  C   UNL     1      -3.271   2.889  -1.766  0.00  0.00    +0.141 C 
BRANCH  17  20
ATOM     20  C   UNL     1      -2.541   3.450  -0.580  0.00  0.00    -0.030 A 
ATOM     24  C   UNL     1      -3.146   4.425   0.214  0.00  0.00    +0.005 A 
ATOM     25  C   UNL     1      -1.258   2.998  -0.273  0.00  0.00    +0.005 A 
ATOM     26  C   UNL     1      -2.467   4.946   1.316  0.00  0.00    +0.000 A 
ATOM     27  C   UNL     1      -0.580   3.519   0.828  0.00  0.00    +0.000 A 
ATOM     28  C   UNL     1      -1.184   4.493   1.623  0.00  0.00    +0.000 A 
ENDBRANCH  17  20
ENDBRANCH   7  17
TORSDOF 8
