REMARK  Name = 11885137
REMARK  5 active torsions:
REMARK  status: ('A' for Active; 'I' for Inactive)
REMARK    1  A    between atoms: S_1  and  N_6
REMARK    2  A    between atoms: S_1  and  C_19
REMARK    3  A    between atoms: O_5  and  C_25
REMARK    4  A    between atoms: O_5  and  C_26
REMARK    5  A    between atoms: C_17  and  C_20
REMARK                            x       y       z     vdW  Elec       q    Type
REMARK                         _______ _______ _______ _____ _____    ______ ____
ROOT
ATOM      4  O   UNL     1      -0.929   0.743  -1.880  0.00  0.00    -0.267 OA
ATOM      6  N   UNL     1       3.522  -0.587  -0.071  0.00  0.00    -0.180 NA
ATOM      7  N   UNL     1       0.882   1.106  -0.456  0.00  0.00    -0.311 N 
ATOM      8  C   UNL     1       3.250   1.557  -1.322  0.00  0.00    +0.025 C 
ATOM      9  C   UNL     1       2.827   1.496   1.097  0.00  0.00    +0.052 C 
ATOM     10  C   UNL     1       3.423   2.340  -0.027  0.00  0.00    +0.017 C 
ATOM     11  C   UNL     1       3.987   0.210  -1.242  0.00  0.00    +0.114 C 
ATOM     12  C   UNL     1       3.604   0.172   1.213  0.00  0.00    +0.118 C 
ATOM     13  C   UNL     1       1.752   1.389  -1.606  0.00  0.00    +0.130 C 
ATOM     14  C   UNL     1       1.355   1.223   0.854  0.00  0.00    +0.026 A 
ATOM     15  C   UNL     1       0.513   1.075   1.889  0.00  0.00    +0.022 A 
ATOM     16  C   UNL     1      -0.468   0.819  -0.740  0.00  0.00    +0.259 A 
ATOM     17  C   UNL     1      -1.379   0.622   0.442  0.00  0.00    +0.047 A 
ATOM     18  C   UNL     1      -0.872   0.763   1.676  0.00  0.00    +0.015 A 
ENDROOT
BRANCH  17  20
ATOM     20  C   UNL     1      -2.799   0.272   0.261  0.00  0.00    -0.012 A 
ATOM     21  C   UNL     1      -3.759   1.279   0.159  0.00  0.00    +0.012 A 
ATOM     22  C   UNL     1      -3.184  -1.067   0.192  0.00  0.00    +0.012 A 
ATOM     23  C   UNL     1      -5.103   0.947  -0.012  0.00  0.00    +0.046 A 
ATOM     24  C   UNL     1      -4.529  -1.399   0.021  0.00  0.00    +0.046 A 
ATOM     25  C   UNL     1      -5.488  -0.392  -0.081  0.00  0.00    +0.120 A 
BRANCH  25   5
ATOM      5  O   UNL     1      -6.799  -0.715  -0.247  0.00  0.00    -0.495 OA
ATOM     26  C   UNL     1      -7.123  -2.103  -0.309  0.00  0.00    +0.277 C 
ENDBRANCH  25   5
ENDBRANCH  17  20
BRANCH   6   1
ATOM      1  S   UNL     1       4.074  -2.205  -0.011  0.00  0.00    +0.029 S 
ATOM      2  O   UNL     1       4.092  -2.742  -1.355  0.00  0.00    -0.158 OA
ATOM      3  O   UNL     1       3.400  -2.888   1.071  0.00  0.00    -0.158 OA
ATOM     19  C   UNL     1       5.753  -1.915   0.485  0.00  0.00    +0.215 C 
ENDBRANCH   6   1
TORSDOF 3
