REMARK  Name = 51137389
REMARK  8 active torsions:
REMARK  status: ('A' for Active; 'I' for Inactive)
REMARK    1  A    between atoms: N_2  and  C_10
REMARK    2  A    between atoms: N_5  and  C_19
REMARK    3  A    between atoms: N_5  and  C_21
REMARK    4  A    between atoms: N_5  and  C_22
REMARK    5  A    between atoms: C_6  and  C_11
REMARK    6  A    between atoms: C_10  and  C_12
REMARK    7  A    between atoms: C_15  and  C_16
REMARK    8  A    between atoms: C_16  and  C_20
REMARK                            x       y       z     vdW  Elec       q    Type
REMARK                         _______ _______ _______ _____ _____    ______ ____
ROOT
ATOM      2  N   UNL     1       0.529  -2.762   0.508  0.00  0.00    -0.297 NA
ATOM      6  C   UNL     1       2.645  -2.357  -0.493  0.00  0.00    +0.092 C 
ATOM      7  C   UNL     1       2.800  -2.980   0.902  0.00  0.00    +0.029 C 
ATOM      8  C   UNL     1       1.133  -2.402  -0.778  0.00  0.00    +0.097 C 
ATOM      9  C   UNL     1       1.472  -3.678   1.146  0.00  0.00    +0.085 C 
ENDROOT
BRANCH   6  11
ATOM      1  O   UNL     1       2.758  -0.018   0.225  0.00  0.00    -0.424 OA
ATOM      3  N   UNL     1       4.245  -0.558  -1.357  0.00  0.00    -0.112 NA
ATOM      4  N   UNL     1       4.418   0.778  -1.047  0.00  0.00    -0.112 NA
ATOM     11  C   UNL     1       3.267  -0.981  -0.591  0.00  0.00    +0.222 A 
ATOM     15  C   UNL     1       3.529   1.050  -0.120  0.00  0.00    +0.222 A 
BRANCH  15  16
ATOM     16  C   UNL     1       3.262   2.313   0.579  0.00  0.00    +0.132 C 
BRANCH  16  20
ATOM     20  C   UNL     1       1.830   2.822   0.455  0.00  0.00    -0.038 A 
ATOM     23  C   UNL     1       1.426   3.493  -0.699  0.00  0.00    +0.004 A 
ATOM     24  C   UNL     1       0.924   2.616   1.495  0.00  0.00    +0.004 A 
ATOM     25  C   UNL     1       0.116   3.958  -0.813  0.00  0.00    +0.000 A 
ATOM     26  C   UNL     1      -0.386   3.081   1.382  0.00  0.00    +0.000 A 
ATOM     27  C   UNL     1      -0.790   3.752   0.228  0.00  0.00    +0.000 A 
ENDBRANCH  16  20
ENDBRANCH  15  16
ENDBRANCH   6  11
BRANCH   2  10
ATOM     10  C   UNL     1      -0.798  -3.340   0.360  0.00  0.00    +0.119 C 
BRANCH  10  12
ATOM     12  C   UNL     1      -1.852  -2.283   0.167  0.00  0.00    -0.033 A 
ATOM     13  C   UNL     1      -2.295  -1.532   1.256  0.00  0.00    +0.007 A 
ATOM     14  C   UNL     1      -2.386  -2.054  -1.101  0.00  0.00    +0.007 A 
ATOM     17  C   UNL     1      -3.272  -0.553   1.077  0.00  0.00    +0.023 A 
ATOM     18  C   UNL     1      -3.363  -1.075  -1.280  0.00  0.00    +0.023 A 
ATOM     19  C   UNL     1      -3.806  -0.325  -0.192  0.00  0.00    +0.029 A 
BRANCH  19   5
ATOM      5  N   UNL     1      -4.794   0.666  -0.373  0.00  0.00    -0.336 N 
ATOM     21  C   UNL     1      -5.349   0.917  -1.688  0.00  0.00    +0.129 C 
ATOM     22  C   UNL     1      -5.260   1.452   0.752  0.00  0.00    +0.129 C 
ENDBRANCH  19   5
ENDBRANCH  10  12
ENDBRANCH   2  10
TORSDOF 6
