REMARK  Name = 45784324
REMARK  4 active torsions:
REMARK  status: ('A' for Active; 'I' for Inactive)
REMARK    1  A    between atoms: N_1  and  C_11
REMARK    2  A    between atoms: C_6  and  C_10
REMARK    3  A    between atoms: C_11  and  C_13
REMARK    4  A    between atoms: C_18  and  C_23
REMARK                            x       y       z     vdW  Elec       q    Type
REMARK                         _______ _______ _______ _____ _____    ______ ____
ROOT
ATOM      1  N   UNL     1      -2.423  -0.282  -0.104  0.00  0.00    -0.296 NA
ATOM      6  C   UNL     1      -0.216  -0.779   0.514  0.00  0.00    +0.070 C 
ATOM      7  C   UNL     1      -0.938  -0.095   1.688  0.00  0.00    +0.028 C 
ATOM      8  C   UNL     1      -1.106  -0.498  -0.705  0.00  0.00    +0.096 C 
ATOM      9  C   UNL     1      -2.169   0.554   1.070  0.00  0.00    +0.085 C 
ENDROOT
BRANCH   6  10
ATOM      2  N   UNL     1       2.246  -1.244   0.375  0.00  0.00    -0.342 N 
ATOM      3  N   UNL     1       1.642   0.872   0.059  0.00  0.00    -0.232 NA
ATOM     10  C   UNL     1       1.217  -0.346   0.310  0.00  0.00    +0.113 A 
ATOM     12  C   UNL     1       3.413  -0.559   0.151  0.00  0.00    +0.067 A 
ATOM     14  C   UNL     1       3.010   0.759  -0.044  0.00  0.00    +0.089 A 
ATOM     15  C   UNL     1       4.747  -0.967   0.103  0.00  0.00    +0.046 A 
ATOM     16  C   UNL     1       3.980   1.741  -0.302  0.00  0.00    +0.031 A 
ATOM     18  C   UNL     1       5.699   0.024  -0.156  0.00  0.00    +0.054 A 
ATOM     19  C   UNL     1       5.325   1.355  -0.355  0.00  0.00    +0.021 A 
ATOM     24  H   UNL     1       2.166  -2.235   0.555  0.00  0.00    +0.167 HD
BRANCH  18  23
ATOM      5  N   UNL     1       8.205  -0.626  -0.266  0.00  0.00    -0.191 NA
ATOM     23  C   UNL     1       7.082  -0.335  -0.217  0.00  0.00    +0.099 C 
ENDBRANCH  18  23
ENDBRANCH   6  10
BRANCH   1  11
ATOM     11  C   UNL     1      -3.361   0.335  -1.030  0.00  0.00    +0.139 C 
BRANCH  11  13
ATOM      4  N   UNL     1      -5.388   1.238  -0.030  0.00  0.00    -0.259 NA
ATOM     13  C   UNL     1      -4.788   0.159  -0.583  0.00  0.00    +0.055 A 
ATOM     17  C   UNL     1      -5.407  -1.069  -0.755  0.00  0.00    +0.024 A 
ATOM     20  C   UNL     1      -6.725  -1.198  -0.332  0.00  0.00    +0.003 A 
ATOM     21  C   UNL     1      -6.669   1.074   0.368  0.00  0.00    +0.111 A 
ATOM     22  C   UNL     1      -7.375  -0.111   0.241  0.00  0.00    +0.020 A 
ENDBRANCH  11  13
ENDBRANCH   1  11
TORSDOF 4
