REMARK  Name = 56775651
REMARK  8 active torsions:
REMARK  status: ('A' for Active; 'I' for Inactive)
REMARK    1  A    between atoms: O_4  and  C_17
REMARK    2  A    between atoms: O_4  and  C_20
REMARK    3  A    between atoms: N_5  and  C_7
REMARK    4  A    between atoms: N_5  and  C_12
REMARK    5  A    between atoms: C_7  and  C_10
REMARK    6  A    between atoms: C_10  and  C_11
REMARK    7  A    between atoms: C_12  and  C_14
REMARK    8  A    between atoms: C_15  and  C_17
REMARK                            x       y       z     vdW  Elec       q    Type
REMARK                         _______ _______ _______ _____ _____    ______ ____
ROOT
ATOM     10  C   UNL     1      -2.085  -2.083  -0.973  0.00  0.00    +0.085 C 
ENDROOT
BRANCH  10  11
ATOM      2  O   UNL     1       1.420  -2.527  -0.451  0.00  0.00    -0.356 OA
ATOM      6  N   UNL     1       0.104  -2.972  -0.401  0.00  0.00    -0.083 NA
ATOM     11  C   UNL     1      -0.622  -1.957  -0.879  0.00  0.00    +0.086 A 
ATOM     13  C   UNL     1       0.174  -0.857  -1.242  0.00  0.00    +0.074 A 
ATOM     15  C   UNL     1       1.448  -1.267  -0.953  0.00  0.00    +0.175 A 
BRANCH  15  17
ATOM     17  C   UNL     1       2.799  -0.626  -1.078  0.00  0.00    +0.306 C 
BRANCH  17   4
ATOM      4  O   UNL     1       3.248  -0.229   0.217  0.00  0.00    -0.484 OA
BRANCH   4  20
ATOM     20  C   UNL     1       4.454   0.399   0.288  0.00  0.00    +0.121 A 
ATOM     21  C   UNL     1       5.191   0.628  -0.873  0.00  0.00    +0.045 A 
ATOM     22  C   UNL     1       4.952   0.813   1.524  0.00  0.00    +0.045 A 
ATOM     23  C   UNL     1       6.426   1.272  -0.800  0.00  0.00    +0.004 A 
ATOM     24  C   UNL     1       6.187   1.456   1.597  0.00  0.00    +0.004 A 
ATOM     25  C   UNL     1       6.925   1.686   0.436  0.00  0.00    +0.000 A 
ENDBRANCH   4  20
ENDBRANCH  17   4
ENDBRANCH  15  17
ENDBRANCH  10  11
BRANCH  10   7
ATOM      1  O   UNL     1      -3.799  -2.599   1.895  0.00  0.00    -0.376 OA
ATOM      7  C   UNL     1      -2.767  -1.602   0.314  0.00  0.00    +0.072 C 
ATOM      8  C   UNL     1      -4.190  -2.060   0.611  0.00  0.00    +0.184 C 
ATOM      9  C   UNL     1      -2.413  -2.276   1.635  0.00  0.00    +0.184 C 
BRANCH   7   5
ATOM      5  N   UNL     1      -2.693  -0.158   0.490  0.00  0.00    -0.300 NA
ATOM     26  H   UNL     1      -1.760   0.208   0.674  0.00  0.00    +0.123 HD
BRANCH   5  12
ATOM     12  C   UNL     1      -3.266   0.511  -0.675  0.00  0.00    +0.156 C 
BRANCH  12  14
ATOM      3  O   UNL     1      -5.084   2.127  -0.573  0.00  0.00    -0.467 OA
ATOM     14  C   UNL     1      -3.766   1.891  -0.340  0.00  0.00    +0.119 A 
ATOM     16  C   UNL     1      -3.158   3.013   0.174  0.00  0.00    +0.046 A 
ATOM     18  C   UNL     1      -4.167   4.002   0.262  0.00  0.00    +0.041 A 
ATOM     19  C   UNL     1      -5.319   3.414  -0.205  0.00  0.00    +0.195 A 
ENDBRANCH  12  14
ENDBRANCH   5  12
ENDBRANCH   7   5
ENDBRANCH  10   7
TORSDOF 8
