REMARK  Name = 40777163
REMARK  7 active torsions:
REMARK  status: ('A' for Active; 'I' for Inactive)
REMARK    1  A    between atoms: N_6  and  C_16
REMARK    2  A    between atoms: C_10  and  C_17
REMARK    3  A    between atoms: C_11  and  C_16
REMARK    4  A    between atoms: C_18  and  C_20
REMARK    5  A    between atoms: C_24  and  C_26
REMARK    6  A    between atoms: C_25  and  C_27
REMARK    7  A    between atoms: C_32  and  C_33
REMARK                            x       y       z     vdW  Elec       q    Type
REMARK                         _______ _______ _______ _____ _____    ______ ____
ROOT
ATOM      5  N   UNL     1      -2.495  -1.872   1.778  0.00  0.00    -0.297 NA
ATOM      9  C   UNL     1      -2.180  -2.379  -0.757  0.00  0.00    +0.002 C 
ATOM     10  C   UNL     1      -0.805  -2.134  -0.076  0.00  0.00    +0.055 C 
ATOM     11  C   UNL     1      -3.403  -1.015   0.972  0.00  0.00    +0.074 C 
ATOM     12  C   UNL     1      -3.086  -1.150  -0.533  0.00  0.00    +0.024 C 
ATOM     13  C   UNL     1      -2.836  -3.566  -0.020  0.00  0.00    +0.019 C 
ATOM     14  C   UNL     1      -1.085  -1.643   1.373  0.00  0.00    +0.094 C 
ATOM     15  C   UNL     1      -2.834  -3.287   1.493  0.00  0.00    +0.085 C 
ENDROOT
BRANCH  10  17
ATOM      7  N   UNL     1      -0.175  -0.738  -1.984  0.00  0.00    -0.237 NA
ATOM      8  N   UNL     1       1.981   0.327  -2.139  0.00  0.00    -0.232 NA
ATOM     17  C   UNL     1       0.207  -1.255  -0.798  0.00  0.00    +0.050 A 
ATOM     19  C   UNL     1       1.443  -1.030  -0.226  0.00  0.00    +0.052 A 
ATOM     24  C   UNL     1       2.297  -0.223  -0.949  0.00  0.00    +0.075 A 
ATOM     25  C   UNL     1       0.748   0.032  -2.592  0.00  0.00    +0.127 A 
ATOM     27  C   UNL     1       0.362   0.620  -3.907  0.00  0.00    +0.088 C 
BRANCH  24  26
ATOM     26  C   UNL     1       3.620   0.088  -0.460  0.00  0.00    +0.000 A 
ATOM     28  C   UNL     1       3.776   0.748   0.759  0.00  0.00    +0.010 A 
ATOM     29  C   UNL     1       4.742  -0.270  -1.208  0.00  0.00    +0.010 A 
ATOM     30  C   UNL     1       5.053   1.048   1.231  0.00  0.00    +0.013 A 
ATOM     31  C   UNL     1       6.019   0.031  -0.736  0.00  0.00    +0.013 A 
ATOM     32  C   UNL     1       6.175   0.690   0.483  0.00  0.00    +0.055 A 
BRANCH  32  33
ATOM      1  F   UNL     1       8.328  -0.088   1.176  0.00  0.00    -0.166 F 
ATOM      2  F   UNL     1       7.518   1.656   2.191  0.00  0.00    -0.166 F 
ATOM      3  F   UNL     1       8.256   1.822   0.152  0.00  0.00    -0.166 F 
ATOM     33  C   UNL     1       7.541   1.012   0.988  0.00  0.00    +0.417 C 
ENDBRANCH  32  33
ENDBRANCH  24  26
ENDBRANCH  10  17
BRANCH  11  16
ATOM     16  C   UNL     1      -3.385   0.445   1.430  0.00  0.00    +0.123 C 
BRANCH  16   6
ATOM      4  O   UNL     1      -6.123   0.892   2.169  0.00  0.00    -0.276 OA
ATOM      6  N   UNL     1      -4.352   1.217   0.713  0.00  0.00    -0.314 N 
ATOM     20  C   UNL     1      -5.671   1.392   1.134  0.00  0.00    +0.216 C 
ATOM     34  H   UNL     1      -4.059   1.658  -0.155  0.00  0.00    +0.149 HD
BRANCH  20  18
ATOM     18  C   UNL     1      -6.519   2.258   0.183  0.00  0.00    +0.075 C 
ATOM     21  C   UNL     1      -6.859   1.667  -1.201  0.00  0.00    +0.013 C 
ATOM     22  C   UNL     1      -8.038   2.321   0.445  0.00  0.00    +0.013 C 
ATOM     23  C   UNL     1      -8.222   2.382  -1.086  0.00  0.00    +0.001 C 
ENDBRANCH  20  18
ENDBRANCH  16   6
ENDBRANCH  11  16
TORSDOF 6
