REMARK  Name = 56775704
REMARK  6 active torsions:
REMARK  status: ('A' for Active; 'I' for Inactive)
REMARK    1  A    between atoms: N_4  and  C_7
REMARK    2  A    between atoms: N_4  and  C_12
REMARK    3  A    between atoms: C_7  and  C_10
REMARK    4  A    between atoms: C_10  and  C_11
REMARK    5  A    between atoms: C_12  and  C_14
REMARK    6  A    between atoms: C_15  and  C_17
REMARK                            x       y       z     vdW  Elec       q    Type
REMARK                         _______ _______ _______ _____ _____    ______ ____
ROOT
ATOM      1  O   UNL     1      -1.968   3.395  -1.136  0.00  0.00    -0.376 OA
ATOM      7  C   UNL     1      -1.549   1.686   0.072  0.00  0.00    +0.072 C 
ATOM      8  C   UNL     1      -2.547   2.838   0.066  0.00  0.00    +0.184 C 
ATOM      9  C   UNL     1      -0.935   2.384  -1.136  0.00  0.00    +0.184 C 
ENDROOT
BRANCH   7   4
ATOM      4  N   UNL     1      -2.225   0.477  -0.378  0.00  0.00    -0.300 NA
ATOM     24  H   UNL     1      -1.610  -0.246  -0.749  0.00  0.00    +0.123 HD
BRANCH   4  12
ATOM     12  C   UNL     1      -3.030  -0.073   0.710  0.00  0.00    +0.156 C 
BRANCH  12  14
ATOM      3  O   UNL     1      -3.836  -1.972  -0.583  0.00  0.00    -0.467 OA
ATOM     14  C   UNL     1      -4.171  -0.909   0.195  0.00  0.00    +0.119 A 
ATOM     16  C   UNL     1      -5.537  -0.832   0.345  0.00  0.00    +0.046 A 
ATOM     18  C   UNL     1      -6.075  -1.916  -0.387  0.00  0.00    +0.041 A 
ATOM     19  C   UNL     1      -5.000  -2.579  -0.933  0.00  0.00    +0.195 A 
ENDBRANCH  12  14
ENDBRANCH   4  12
ENDBRANCH   7   4
BRANCH   7  10
ATOM     10  C   UNL     1      -0.684   1.458   1.319  0.00  0.00    +0.085 C 
BRANCH  10  11
ATOM      2  O   UNL     1       1.728  -1.108   0.724  0.00  0.00    -0.353 OA
ATOM      5  N   UNL     1       0.458  -0.676   1.087  0.00  0.00    -0.083 NA
ATOM     11  C   UNL     1       0.507   0.656   1.000  0.00  0.00    +0.086 A 
ATOM     13  C   UNL     1       1.771   1.117   0.591  0.00  0.00    +0.077 A 
ATOM     15  C   UNL     1       2.500  -0.032   0.431  0.00  0.00    +0.186 A 
BRANCH  15  17
ATOM      6  N   UNL     1       4.162  -1.639   0.011  0.00  0.00    -0.252 NA
ATOM     17  C   UNL     1       3.852  -0.323   0.033  0.00  0.00    +0.109 A 
ATOM     20  C   UNL     1       4.740   0.689  -0.295  0.00  0.00    +0.031 A 
ATOM     21  C   UNL     1       6.029   0.327  -0.670  0.00  0.00    +0.004 A 
ATOM     22  C   UNL     1       5.424  -1.952  -0.359  0.00  0.00    +0.111 A 
ATOM     23  C   UNL     1       6.386  -1.017  -0.706  0.00  0.00    +0.020 A 
ENDBRANCH  15  17
ENDBRANCH  10  11
ENDBRANCH   7  10
TORSDOF 6
