REMARK  Name = 38027256
REMARK  13 active torsions:
REMARK  status: ('A' for Active; 'I' for Inactive)
REMARK    1  A    between atoms: S_1  and  N_7
REMARK    2  A    between atoms: S_1  and  C_26
REMARK    3  A    between atoms: O_5  and  C_31
REMARK    4  A    between atoms: O_5  and  C_32
REMARK    5  A    between atoms: N_6  and  C_19
REMARK    6  A    between atoms: N_7  and  C_16
REMARK    7  A    between atoms: C_8  and  C_12
REMARK    8  A    between atoms: C_9  and  C_16
REMARK    9  A    between atoms: C_11  and  C_15
REMARK   10  A    between atoms: C_12  and  C_17
REMARK   11  A    between atoms: C_12  and  C_18
REMARK   12  A    between atoms: C_13  and  C_20
REMARK   13  A    between atoms: C_15  and  C_21
REMARK                            x       y       z     vdW  Elec       q    Type
REMARK                         _______ _______ _______ _____ _____    ______ ____
ROOT
ATOM      8  C   UNL     1       1.216   1.252  -1.210  0.00  0.00    +0.000 C 
ATOM      9  C   UNL     1       2.534   1.942  -0.776  0.00  0.00    +0.030 C 
ATOM     10  C   UNL     1       0.125   2.300  -1.475  0.00  0.00    +0.012 C 
ATOM     11  C   UNL     1      -0.163   3.168  -0.236  0.00  0.00    +0.023 C 
ATOM     13  C   UNL     1       1.113   3.669   0.409  0.00  0.00    -0.073 C 
ATOM     14  C   UNL     1       2.311   3.117   0.146  0.00  0.00    -0.023 C 
ATOM     20  C   UNL     1       0.987   4.850   1.331  0.00  0.00    +0.039 C 
ENDROOT
BRANCH   8  12
ATOM     12  C   UNL     1       1.413   0.380  -2.454  0.00  0.00    -0.013 C 
ATOM     17  C   UNL     1       0.126  -0.366  -2.789  0.00  0.00    +0.007 C 
ATOM     18  C   UNL     1       1.867   1.233  -3.634  0.00  0.00    +0.007 C 
ENDBRANCH   8  12
BRANCH  11  15
ATOM     15  C   UNL     1      -1.032   2.414   0.777  0.00  0.00    +0.103 C 
BRANCH  15  21
ATOM      2  O   UNL     1      -3.030   3.153  -0.369  0.00  0.00    -0.276 OA
ATOM      6  N   UNL     1      -3.058   1.146   0.801  0.00  0.00    -0.312 N 
ATOM     21  C   UNL     1      -2.471   2.309   0.325  0.00  0.00    +0.214 C 
ATOM     33  H   UNL     1      -2.494   0.490   1.335  0.00  0.00    +0.149 HD
BRANCH   6  19
ATOM     19  C   UNL     1      -4.427   0.785   0.527  0.00  0.00    +0.073 C 
ATOM     22  C   UNL     1      -5.008  -0.095   1.626  0.00  0.00    +0.022 C 
ATOM     23  C   UNL     1      -4.546  -0.097  -0.710  0.00  0.00    +0.022 C 
ATOM     24  C   UNL     1      -4.515  -1.500   1.293  0.00  0.00    +0.002 C 
ATOM     25  C   UNL     1      -4.259  -1.513  -0.214  0.00  0.00    +0.002 C 
ENDBRANCH   6  19
ENDBRANCH  15  21
ENDBRANCH  11  15
BRANCH   9  16
ATOM     16  C   UNL     1       3.487   0.944  -0.109  0.00  0.00    +0.113 C 
BRANCH  16   7
ATOM      7  N   UNL     1       2.890   0.478   1.152  0.00  0.00    -0.189 NA
ATOM     34  H   UNL     1       2.636   1.198   1.838  0.00  0.00    +0.148 HD
BRANCH   7   1
ATOM      1  S   UNL     1       3.232  -1.086   1.736  0.00  0.00    +0.058 S 
ATOM      3  O   UNL     1       3.031  -1.115   3.172  0.00  0.00    -0.153 OA
ATOM      4  O   UNL     1       4.484  -1.543   1.165  0.00  0.00    -0.153 OA
BRANCH   1  26
ATOM     26  C   UNL     1       1.945  -2.039   0.986  0.00  0.00    +0.105 A 
ATOM     27  C   UNL     1       2.146  -2.617  -0.267  0.00  0.00    +0.032 A 
ATOM     28  C   UNL     1       0.728  -2.209   1.646  0.00  0.00    +0.032 A 
ATOM     29  C   UNL     1       1.130  -3.366  -0.860  0.00  0.00    +0.047 A 
ATOM     30  C   UNL     1      -0.288  -2.958   1.053  0.00  0.00    +0.047 A 
ATOM     31  C   UNL     1      -0.087  -3.537  -0.200  0.00  0.00    +0.120 A 
BRANCH  31   5
ATOM      5  O   UNL     1      -1.079  -4.268  -0.779  0.00  0.00    -0.495 OA
ATOM     32  C   UNL     1      -0.806  -4.831  -2.062  0.00  0.00    +0.277 C 
ENDBRANCH  31   5
ENDBRANCH   1  26
ENDBRANCH   7   1
ENDBRANCH  16   7
ENDBRANCH   9  16
TORSDOF 9
