REMARK  Name = 51136926
REMARK  3 active torsions:
REMARK  status: ('A' for Active; 'I' for Inactive)
REMARK    1  A    between atoms: N_3  and  C_12
REMARK    2  A    between atoms: C_7  and  C_11
REMARK    3  A    between atoms: C_13  and  C_14
REMARK                            x       y       z     vdW  Elec       q    Type
REMARK                         _______ _______ _______ _____ _____    ______ ____
ROOT
ATOM      2  O   UNL     1      -1.141   1.960   0.364  0.00  0.00    -0.336 OA
ATOM      4  N   UNL     1      -0.513  -0.178   0.134  0.00  0.00    -0.189 NA
ATOM      5  N   UNL     1       0.258   1.970   0.296  0.00  0.00    -0.054 NA
ATOM     11  C   UNL     1      -1.513   0.657   0.261  0.00  0.00    +0.245 A 
ATOM     13  C   UNL     1       0.553   0.673   0.161  0.00  0.00    +0.220 A 
ENDROOT
BRANCH  13  14
ATOM      1  F   UNL     1       5.781  -0.986  -0.242  0.00  0.00    -0.204 F 
ATOM      6  N   UNL     1       2.864   1.144   0.093  0.00  0.00    -0.249 NA
ATOM     14  C   UNL     1       1.901   0.196   0.052  0.00  0.00    +0.111 A 
ATOM     15  C   UNL     1       2.154  -1.160  -0.085  0.00  0.00    +0.034 A 
ATOM     16  C   UNL     1       3.479  -1.568  -0.187  0.00  0.00    +0.042 A 
ATOM     17  C   UNL     1       4.140   0.709  -0.009  0.00  0.00    +0.149 A 
ATOM     18  C   UNL     1       4.497  -0.622  -0.149  0.00  0.00    +0.141 A 
ENDBRANCH  13  14
BRANCH  11   7
ATOM      3  N   UNL     1      -3.478  -0.344  -0.891  0.00  0.00    -0.294 NA
ATOM      7  C   UNL     1      -3.000   0.375   0.307  0.00  0.00    +0.146 C 
ATOM      8  C   UNL     1      -3.398  -0.527   1.490  0.00  0.00    +0.030 C 
ATOM      9  C   UNL     1      -4.146  -1.696   0.865  0.00  0.00    +0.017 C 
ATOM     10  C   UNL     1      -4.627  -1.143  -0.462  0.00  0.00    +0.085 C 
ATOM     12  C   UNL     1      -3.810   0.542  -1.999  0.00  0.00    +0.105 C 
ENDBRANCH  11   7
TORSDOF 2
