REMARK  Name = 11912415
REMARK  13 active torsions:
REMARK  status: ('A' for Active; 'I' for Inactive)
REMARK    1  A    between atoms: S_1  and  C_21
REMARK    2  A    between atoms: S_1  and  C_28
REMARK    3  A    between atoms: O_4  and  C_27
REMARK    4  A    between atoms: O_4  and  C_29
REMARK    5  A    between atoms: N_7  and  C_19
REMARK    6  A    between atoms: N_8  and  C_20
REMARK    7  A    between atoms: C_9  and  C_15
REMARK    8  A    between atoms: C_10  and  C_14
REMARK    9  A    between atoms: C_14  and  C_16
REMARK   10  A    between atoms: C_15  and  C_18
REMARK   11  A    between atoms: C_19  and  C_21
REMARK   12  A    between atoms: C_24  and  C_27
REMARK   13  A    between atoms: C_29  and  C_30
REMARK                            x       y       z     vdW  Elec       q    Type
REMARK                         _______ _______ _______ _____ _____    ______ ____
ROOT
ATOM      2  O   UNL     1       1.232   3.204   0.368  0.00  0.00    -0.252 OA
ATOM      6  N   UNL     1      -0.163   1.530   1.137  0.00  0.00    -0.285 N 
ATOM      8  N   UNL     1       2.127   1.101   0.766  0.00  0.00    -0.269 N 
ATOM      9  C   UNL     1      -2.768   0.365   0.656  0.00  0.00    +0.004 C 
ATOM     10  C   UNL     1      -1.496  -0.521   0.734  0.00  0.00    +0.010 C 
ATOM     11  C   UNL     1      -2.434   1.810   0.241  0.00  0.00    +0.023 C 
ATOM     12  C   UNL     1      -0.443   0.168   1.618  0.00  0.00    +0.113 C 
ATOM     13  C   UNL     1      -1.335   2.406   1.119  0.00  0.00    +0.109 C 
ATOM     17  C   UNL     1       1.092   2.036   0.737  0.00  0.00    +0.306 C 
ATOM     32  H   UNL     1       2.075   0.345   1.438  0.00  0.00    +0.156 HD
ENDROOT
BRANCH   8  20
ATOM     20  C   UNL     1       3.276   1.065  -0.063  0.00  0.00    +0.036 A 
ATOM     22  C   UNL     1       4.222   0.053   0.100  0.00  0.00    +0.038 A 
ATOM     23  C   UNL     1       3.460   2.041  -1.041  0.00  0.00    +0.023 A 
ATOM     24  C   UNL     1       5.353   0.018  -0.715  0.00  0.00    +0.061 A 
ATOM     25  C   UNL     1       4.591   2.006  -1.857  0.00  0.00    +0.003 A 
ATOM     26  C   UNL     1       5.537   0.994  -1.694  0.00  0.00    +0.015 A 
BRANCH  24  27
ATOM      5  O   UNL     1       7.370  -1.147  -1.224  0.00  0.00    -0.245 OA
ATOM     27  C   UNL     1       6.339  -1.037  -0.547  0.00  0.00    +0.339 C 
BRANCH  27   4
ATOM      4  O   UNL     1       5.989  -1.898   0.458  0.00  0.00    -0.461 OA
BRANCH   4  29
ATOM     29  C   UNL     1       6.885  -2.982   0.722  0.00  0.00    +0.229 C 
ATOM     30  C   UNL     1       6.329  -3.816   1.858  0.00  0.00    +0.048 C 
ENDBRANCH   4  29
ENDBRANCH  27   4
ENDBRANCH  24  27
ENDBRANCH   8  20
BRANCH  10  14
ATOM     14  C   UNL     1      -0.899  -0.878  -0.632  0.00  0.00    +0.002 C 
ATOM     16  C   UNL     1       0.279  -1.818  -0.485  0.00  0.00    +0.004 C 
ENDBRANCH  10  14
BRANCH   9  15
ATOM     15  C   UNL     1      -3.852  -0.220  -0.250  0.00  0.00    +0.099 C 
BRANCH  15  18
ATOM      3  O   UNL     1      -5.444   1.103   1.002  0.00  0.00    -0.276 OA
ATOM      7  N   UNL     1      -6.191  -0.220  -0.757  0.00  0.00    -0.315 N 
ATOM     18  C   UNL     1      -5.228   0.310   0.089  0.00  0.00    +0.213 C 
ATOM     31  H   UNL     1      -5.911  -0.880  -1.477  0.00  0.00    +0.149 HD
BRANCH   7  19
ATOM     19  C   UNL     1      -7.595   0.110  -0.661  0.00  0.00    +0.115 C 
BRANCH  19  21
ATOM     21  C   UNL     1      -8.363  -0.824   0.264  0.00  0.00    +0.087 C 
BRANCH  21   1
ATOM      1  S   UNL     1      -8.322  -2.549  -0.311  0.00  0.00    -0.163 S 
ATOM     28  C   UNL     1      -9.547  -2.411  -1.633  0.00  0.00    +0.084 C 
ENDBRANCH  21   1
ENDBRANCH  19  21
ENDBRANCH   7  19
ENDBRANCH  15  18
ENDBRANCH   9  15
TORSDOF 10
