REMARK  Name = 26743740
REMARK  8 active torsions:
REMARK  status: ('A' for Active; 'I' for Inactive)
REMARK    1  A    between atoms: O_4  and  C_12
REMARK    2  A    between atoms: O_6  and  C_29
REMARK    3  A    between atoms: O_6  and  C_30
REMARK    4  A    between atoms: N_7  and  C_14
REMARK    5  A    between atoms: C_10  and  C_15
REMARK    6  A    between atoms: C_14  and  C_16
REMARK    7  A    between atoms: C_19  and  C_23
REMARK    8  A    between atoms: C_22  and  C_24
REMARK                            x       y       z     vdW  Elec       q    Type
REMARK                         _______ _______ _______ _____ _____    ______ ____
ROOT
ATOM      5  O   UNL     1      -1.879   1.207  -2.116  0.00  0.00    -0.336 OA
ATOM      8  N   UNL     1      -1.203   0.871  -0.007  0.00  0.00    -0.190 NA
ATOM      9  N   UNL     1      -0.482   1.314  -2.133  0.00  0.00    -0.056 NA
ATOM     15  C   UNL     1      -2.221   0.946  -0.827  0.00  0.00    +0.245 A 
ATOM     19  C   UNL     1      -0.158   1.103  -0.854  0.00  0.00    +0.202 A 
ENDROOT
BRANCH  19  23
ATOM     23  C   UNL     1       1.198   1.120  -0.388  0.00  0.00    +0.023 A 
ATOM     25  C   UNL     1       1.477   0.895   0.960  0.00  0.00    +0.015 A 
ATOM     26  C   UNL     1       2.239   1.363  -1.284  0.00  0.00    +0.015 A 
ATOM     27  C   UNL     1       2.796   0.913   1.412  0.00  0.00    +0.046 A 
ATOM     28  C   UNL     1       3.559   1.381  -0.832  0.00  0.00    +0.046 A 
ATOM     29  C   UNL     1       3.837   1.157   0.516  0.00  0.00    +0.130 A 
BRANCH  29   6
ATOM      6  O   UNL     1       5.125   1.174   0.956  0.00  0.00    -0.406 OA
BRANCH   6  30
ATOM      1  F   UNL     1       6.961  -0.083   1.335  0.00  0.00    -0.133 F 
ATOM      2  F   UNL     1       5.412  -0.895   0.025  0.00  0.00    -0.133 F 
ATOM      3  F   UNL     1       6.693   0.770  -0.659  0.00  0.00    -0.133 F 
ATOM     30  C   UNL     1       6.041   0.239   0.397  0.00  0.00    +0.575 C 
ENDBRANCH   6  30
ENDBRANCH  29   6
ENDBRANCH  19  23
BRANCH  15  10
ATOM      7  N   UNL     1      -3.960  -0.090   0.622  0.00  0.00    -0.285 NA
ATOM     10  C   UNL     1      -3.699   0.782  -0.541  0.00  0.00    +0.149 C 
ATOM     11  C   UNL     1      -4.389   2.115  -0.197  0.00  0.00    +0.061 C 
ATOM     12  C   UNL     1      -5.049   1.879   1.156  0.00  0.00    +0.130 C 
ATOM     13  C   UNL     1      -5.214   0.373   1.213  0.00  0.00    +0.116 C 
BRANCH  12   4
ATOM      4  O   UNL     1      -6.293   2.547   1.231  0.00  0.00    -0.390 OA
ATOM     31  H   UNL     1      -6.123   3.497   1.113  0.00  0.00    +0.210 HD
ENDBRANCH  12   4
BRANCH   7  14
ATOM     14  C   UNL     1      -4.004  -1.506   0.279  0.00  0.00    +0.120 C 
BRANCH  14  16
ATOM     16  C   UNL     1      -2.624  -2.091   0.135  0.00  0.00    -0.033 A 
ATOM     17  C   UNL     1      -2.239  -2.679  -1.070  0.00  0.00    +0.005 A 
ATOM     18  C   UNL     1      -1.732  -2.047   1.207  0.00  0.00    +0.005 A 
ATOM     20  C   UNL     1      -0.962  -3.224  -1.203  0.00  0.00    +0.003 A 
ATOM     21  C   UNL     1      -0.455  -2.592   1.073  0.00  0.00    +0.003 A 
ATOM     22  C   UNL     1      -0.070  -3.180  -0.131  0.00  0.00    -0.050 A 
ATOM     24  C   UNL     1       1.295  -3.763  -0.274  0.00  0.00    +0.044 C 
ENDBRANCH  14  16
ENDBRANCH   7  14
ENDBRANCH  15  10
TORSDOF 7
