REMARK  Name = 26742073
REMARK  7 active torsions:
REMARK  status: ('A' for Active; 'I' for Inactive)
REMARK    1  A    between atoms: O_1  and  C_9
REMARK    2  A    between atoms: O_4  and  C_23
REMARK    3  A    between atoms: O_4  and  C_24
REMARK    4  A    between atoms: N_6  and  C_8
REMARK    5  A    between atoms: N_7  and  C_17
REMARK    6  A    between atoms: C_15  and  C_16
REMARK    7  A    between atoms: C_17  and  C_20
REMARK                            x       y       z     vdW  Elec       q    Type
REMARK                         _______ _______ _______ _____ _____    ______ ____
ROOT
ATOM      2  O   UNL     1      -1.115  -1.589   1.150  0.00  0.00    -0.253 OA
ATOM      5  N   UNL     1      -2.970  -0.222   0.868  0.00  0.00    -0.284 N 
ATOM      7  N   UNL     1      -3.044  -2.519   0.318  0.00  0.00    -0.300 N 
ATOM      8  C   UNL     1      -1.512   1.675   0.117  0.00  0.00    +0.119 C 
ATOM      9  C   UNL     1      -2.223   1.663  -1.250  0.00  0.00    +0.136 C 
ATOM     10  C   UNL     1      -3.747   1.829  -1.210  0.00  0.00    +0.035 C 
ATOM     11  C   UNL     1      -2.235   0.975   1.276  0.00  0.00    +0.134 C 
ATOM     12  C   UNL     1      -4.493   0.517  -0.950  0.00  0.00    +0.022 C 
ATOM     13  C   UNL     1      -4.365   0.003   0.477  0.00  0.00    +0.109 C 
ATOM     14  C   UNL     1      -2.294  -1.455   0.807  0.00  0.00    +0.302 C 
ATOM     27  H   UNL     1      -3.969  -2.372  -0.064  0.00  0.00    +0.150 HD
ENDROOT
BRANCH   8   6
ATOM      3  O   UNL     1       0.865   2.513   1.494  0.00  0.00    -0.270 OA
ATOM      6  N   UNL     1      -0.178   1.124  -0.042  0.00  0.00    -0.305 N 
ATOM     15  C   UNL     1       0.906   1.601   0.672  0.00  0.00    +0.244 C 
ATOM     25  H   UNL     1      -0.068   0.373  -0.714  0.00  0.00    +0.149 HD
BRANCH  15  16
ATOM     16  C   UNL     1       2.208   0.950   0.375  0.00  0.00    +0.037 A 
ATOM     18  C   UNL     1       3.398   1.653   0.561  0.00  0.00    +0.016 A 
ATOM     19  C   UNL     1       2.241  -0.364  -0.091  0.00  0.00    +0.016 A 
ATOM     21  C   UNL     1       4.621   1.043   0.281  0.00  0.00    +0.046 A 
ATOM     22  C   UNL     1       3.463  -0.975  -0.371  0.00  0.00    +0.046 A 
ATOM     23  C   UNL     1       4.653  -0.271  -0.185  0.00  0.00    +0.120 A 
BRANCH  23   4
ATOM      4  O   UNL     1       5.846  -0.868  -0.459  0.00  0.00    -0.495 OA
ATOM     24  C   UNL     1       5.805  -2.213  -0.932  0.00  0.00    +0.277 C 
ENDBRANCH  23   4
ENDBRANCH  15  16
ENDBRANCH   8   6
BRANCH   9   1
ATOM      1  O   UNL     1      -1.677   2.754  -2.006  0.00  0.00    -0.390 OA
ATOM     26  H   UNL     1      -2.036   2.694  -2.908  0.00  0.00    +0.210 HD
ENDBRANCH   9   1
BRANCH   7  17
ATOM     17  C   UNL     1      -2.495  -3.849   0.179  0.00  0.00    +0.102 C 
ATOM     20  C   UNL     1      -1.660  -3.975  -1.078  0.00  0.00    +0.024 C 
ENDBRANCH   7  17
TORSDOF 5
