REMARK  Name = 40777226
REMARK  8 active torsions:
REMARK  status: ('A' for Active; 'I' for Inactive)
REMARK    1  A    between atoms: O_2  and  C_25
REMARK    2  A    between atoms: O_2  and  C_35
REMARK    3  A    between atoms: N_6  and  C_16
REMARK    4  A    between atoms: N_7  and  C_17
REMARK    5  A    between atoms: N_8  and  C_23
REMARK    6  A    between atoms: C_10  and  C_16
REMARK    7  A    between atoms: C_11  and  C_17
REMARK    8  A    between atoms: C_22  and  C_24
REMARK                            x       y       z     vdW  Elec       q    Type
REMARK                         _______ _______ _______ _____ _____    ______ ____
ROOT
ATOM      5  N   UNL     1      -0.879   3.094  -1.484  0.00  0.00    -0.298 NA
ATOM      9  C   UNL     1      -0.615   2.816   1.089  0.00  0.00    -0.003 C 
ATOM     10  C   UNL     1       0.639   2.300   0.347  0.00  0.00    +0.020 C 
ATOM     11  C   UNL     1      -2.056   2.376  -0.926  0.00  0.00    +0.074 C 
ATOM     12  C   UNL     1      -1.856   2.065   0.574  0.00  0.00    +0.024 C 
ATOM     13  C   UNL     1       0.370   2.356  -1.174  0.00  0.00    +0.089 C 
ATOM     14  C   UNL     1      -0.785   4.298   0.703  0.00  0.00    +0.019 C 
ATOM     15  C   UNL     1      -0.803   4.424  -0.831  0.00  0.00    +0.085 C 
ENDROOT
BRANCH  10  16
ATOM     16  C   UNL     1       1.072   0.905   0.791  0.00  0.00    +0.089 C 
BRANCH  16   6
ATOM      6  N   UNL     1       2.312   0.507   0.127  0.00  0.00    -0.299 NA
ATOM      8  N   UNL     1       4.918  -0.650  -0.054  0.00  0.00    -0.325 N 
ATOM     18  C   UNL     1       2.485  -0.950   0.189  0.00  0.00    +0.103 C 
ATOM     19  C   UNL     1       3.465   1.173   0.746  0.00  0.00    +0.103 C 
ATOM     20  C   UNL     1       3.751  -1.386  -0.552  0.00  0.00    +0.120 C 
ATOM     21  C   UNL     1       4.763   0.808   0.023  0.00  0.00    +0.120 C 
BRANCH   8  23
ATOM     23  C   UNL     1       6.202  -1.165  -0.259  0.00  0.00    +0.072 A 
ATOM     25  C   UNL     1       7.226  -0.903   0.651  0.00  0.00    +0.141 A 
ATOM     26  C   UNL     1       6.455  -1.948  -1.386  0.00  0.00    +0.027 A 
ATOM     29  C   UNL     1       8.502  -1.423   0.435  0.00  0.00    +0.047 A 
ATOM     30  C   UNL     1       7.731  -2.468  -1.602  0.00  0.00    +0.002 A 
ATOM     31  C   UNL     1       8.755  -2.205  -0.692  0.00  0.00    +0.004 A 
BRANCH  25   2
ATOM      2  O   UNL     1       7.000  -0.140   1.758  0.00  0.00    -0.493 OA
ATOM     35  C   UNL     1       8.106   0.075   2.633  0.00  0.00    +0.277 C 
ENDBRANCH  25   2
ENDBRANCH   8  23
ENDBRANCH  16   6
ENDBRANCH  10  16
BRANCH  11  17
ATOM     17  C   UNL     1      -2.405   1.118  -1.726  0.00  0.00    +0.123 C 
BRANCH  17   7
ATOM      1  O   UNL     1      -2.754  -1.520  -0.648  0.00  0.00    -0.270 OA
ATOM      7  N   UNL     1      -3.647   0.532  -1.249  0.00  0.00    -0.310 N 
ATOM     22  C   UNL     1      -3.708  -0.753  -0.747  0.00  0.00    +0.244 C 
ATOM     37  H   UNL     1      -4.489   1.080  -1.387  0.00  0.00    +0.149 HD
BRANCH  22  24
ATOM      3  O   UNL     1      -8.295   0.001   0.898  0.00  0.00    -0.453 OA
ATOM      4  O   UNL     1      -8.818  -2.351   0.858  0.00  0.00    -0.453 OA
ATOM     24  C   UNL     1      -5.056  -1.213  -0.326  0.00  0.00    +0.040 A 
ATOM     27  C   UNL     1      -6.009  -0.279   0.088  0.00  0.00    +0.062 A 
ATOM     28  C   UNL     1      -5.361  -2.585  -0.350  0.00  0.00    +0.017 A 
ATOM     32  C   UNL     1      -7.248  -0.754   0.468  0.00  0.00    +0.167 A 
ATOM     33  C   UNL     1      -6.623  -3.040   0.040  0.00  0.00    +0.050 A 
ATOM     34  C   UNL     1      -7.547  -2.098   0.445  0.00  0.00    +0.166 A 
ATOM     36  C   UNL     1      -9.286  -1.018   1.143  0.00  0.00    +0.466 C 
ENDBRANCH  22  24
ENDBRANCH  17   7
ENDBRANCH  11  17
TORSDOF 7
