REMARK  Name = 45783690
REMARK  5 active torsions:
REMARK  status: ('A' for Active; 'I' for Inactive)
REMARK    1  A    between atoms: O_2  and  C_23
REMARK    2  A    between atoms: O_2  and  C_24
REMARK    3  A    between atoms: N_3  and  C_7
REMARK    4  A    between atoms: C_8  and  C_17
REMARK    5  A    between atoms: C_18  and  C_19
REMARK                            x       y       z     vdW  Elec       q    Type
REMARK                         _______ _______ _______ _____ _____    ______ ____
ROOT
ATOM      1  O   UNL     1      -0.423  -1.767   1.792  0.00  0.00    -0.336 OA
ATOM      4  N   UNL     1      -0.014  -0.780  -0.177  0.00  0.00    -0.190 NA
ATOM      5  N   UNL     1       0.941  -1.446   1.793  0.00  0.00    -0.056 NA
ATOM     17  C   UNL     1      -0.909  -1.341   0.597  0.00  0.00    +0.245 A 
ATOM     18  C   UNL     1       1.105  -0.867   0.599  0.00  0.00    +0.204 A 
ENDROOT
BRANCH  18  19
ATOM      6  N   UNL     1       4.723  -0.008   0.590  0.00  0.00    -0.221 NA
ATOM     19  C   UNL     1       2.372  -0.367   0.152  0.00  0.00    +0.041 A 
ATOM     20  C   UNL     1       2.507   0.229  -1.097  0.00  0.00    +0.018 A 
ATOM     21  C   UNL     1       3.501  -0.460   0.950  0.00  0.00    +0.126 A 
ATOM     22  C   UNL     1       3.748   0.706  -1.504  0.00  0.00    +0.068 A 
ATOM     23  C   UNL     1       4.815   0.564  -0.632  0.00  0.00    +0.214 A 
BRANCH  23   2
ATOM      2  O   UNL     1       6.048   1.026  -1.009  0.00  0.00    -0.480 OA
ATOM     24  C   UNL     1       7.109   0.856  -0.076  0.00  0.00    +0.279 C 
ENDBRANCH  23   2
ENDBRANCH  18  19
BRANCH  17   8
ATOM      3  N   UNL     1      -2.965  -0.588  -0.586  0.00  0.00    -0.288 NA
ATOM      8  C   UNL     1      -2.384  -1.575   0.346  0.00  0.00    +0.146 C 
ATOM     11  C   UNL     1      -4.065  -1.266  -1.272  0.00  0.00    +0.085 C 
ATOM     12  C   UNL     1      -2.667  -2.942  -0.304  0.00  0.00    +0.030 C 
ATOM     13  C   UNL     1      -3.463  -2.626  -1.563  0.00  0.00    +0.017 C 
BRANCH   3   7
ATOM      7  C   UNL     1      -3.403   0.640   0.075  0.00  0.00    +0.057 C 
ATOM      9  C   UNL     1      -2.214   1.306   0.776  0.00  0.00    +0.019 C 
ATOM     10  C   UNL     1      -4.040   1.584  -0.951  0.00  0.00    +0.019 C 
ATOM     14  C   UNL     1      -2.617   2.635   1.414  0.00  0.00    +0.002 C 
ATOM     15  C   UNL     1      -4.441   2.912  -0.310  0.00  0.00    +0.002 C 
ATOM     16  C   UNL     1      -3.263   3.574   0.399  0.00  0.00    +0.000 C 
ENDBRANCH   3   7
ENDBRANCH  17   8
TORSDOF 4
