REMARK  Name = 11865720
REMARK  10 active torsions:
REMARK  status: ('A' for Active; 'I' for Inactive)
REMARK    1  A    between atoms: O_2  and  C_11
REMARK    2  A    between atoms: O_3  and  C_13
REMARK    3  A    between atoms: O_6  and  C_24
REMARK    4  A    between atoms: O_6  and  C_28
REMARK    5  A    between atoms: N_8  and  C_12
REMARK    6  A    between atoms: N_9  and  C_20
REMARK    7  A    between atoms: C_15  and  C_17
REMARK    8  A    between atoms: C_18  and  C_19
REMARK    9  A    between atoms: C_20  and  C_21
REMARK   10  A    between atoms: C_21  and  C_26
REMARK                            x       y       z     vdW  Elec       q    Type
REMARK                         _______ _______ _______ _____ _____    ______ ____
ROOT
ATOM     11  C   UNL     1       0.384   3.008   0.308  0.00  0.00    +0.167 C 
ATOM     12  C   UNL     1       0.295   1.723  -0.538  0.00  0.00    +0.128 C 
ATOM     13  C   UNL     1       1.746   3.695   0.144  0.00  0.00    +0.149 C 
ATOM     14  C   UNL     1       2.914   2.753   0.480  0.00  0.00    +0.074 C 
ATOM     15  C   UNL     1       2.698   1.343   0.009  0.00  0.00    +0.015 C 
ATOM     16  C   UNL     1       1.532   0.871  -0.458  0.00  0.00    +0.006 C 
ENDROOT
BRANCH  15  17
ATOM      4  O   UNL     1       4.866   0.667  -0.594  0.00  0.00    -0.271 OA
ATOM      9  N   UNL     1       3.612  -0.693   0.825  0.00  0.00    -0.311 N 
ATOM     17  C   UNL     1       3.838   0.422   0.038  0.00  0.00    +0.240 C 
ATOM     32  H   UNL     1       2.727  -0.793   1.314  0.00  0.00    +0.149 HD
BRANCH   9  20
ATOM     20  C   UNL     1       4.588  -1.743   1.007  0.00  0.00    +0.113 C 
BRANCH  20  21
ATOM     21  C   UNL     1       4.453  -2.842  -0.037  0.00  0.00    +0.114 C 
BRANCH  21  26
ATOM      7  O   UNL     1       2.206  -3.262   0.782  0.00  0.00    -0.276 OA
ATOM     10  N   UNL     1       3.006  -4.530  -0.961  0.00  0.00    -0.329 N 
ATOM     26  C   UNL     1       3.104  -3.539  -0.007  0.00  0.00    +0.212 C 
ATOM     33  H   UNL     1       2.160  -5.082  -1.054  0.00  0.00    +0.145 HD
ATOM     34  H   UNL     1       3.764  -4.744  -1.601  0.00  0.00    +0.145 HD
ENDBRANCH  21  26
ENDBRANCH  20  21
ENDBRANCH   9  20
ENDBRANCH  15  17
BRANCH  12   8
ATOM      5  O   UNL     1      -2.354   1.912  -1.629  0.00  0.00    -0.270 OA
ATOM      8  N   UNL     1      -0.848   0.923  -0.171  0.00  0.00    -0.302 N 
ATOM     18  C   UNL     1      -2.094   1.088  -0.757  0.00  0.00    +0.246 C 
ATOM     29  H   UNL     1      -0.742   0.245   0.580  0.00  0.00    +0.150 HD
BRANCH  18  19
ATOM      1 BR   UNL     1      -4.599   2.572   0.578  0.00  0.00    -0.050 Br
ATOM     19  C   UNL     1      -3.174   0.203  -0.249  0.00  0.00    +0.054 A 
ATOM     22  C   UNL     1      -3.009  -1.174  -0.395  0.00  0.00    +0.059 A 
ATOM     23  C   UNL     1      -4.324   0.708   0.356  0.00  0.00    +0.030 A 
ATOM     24  C   UNL     1      -3.995  -2.047   0.064  0.00  0.00    +0.121 A 
ATOM     25  C   UNL     1      -5.311  -0.165   0.816  0.00  0.00    +0.019 A 
ATOM     27  C   UNL     1      -5.146  -1.543   0.670  0.00  0.00    +0.047 A 
BRANCH  24   6
ATOM      6  O   UNL     1      -3.835  -3.391  -0.079  0.00  0.00    -0.495 OA
ATOM     28  C   UNL     1      -2.635  -3.839  -0.707  0.00  0.00    +0.277 C 
ENDBRANCH  24   6
ENDBRANCH  18  19
ENDBRANCH  12   8
BRANCH  11   2
ATOM      2  O   UNL     1       0.195   2.687   1.688  0.00  0.00    -0.387 OA
ATOM     30  H   UNL     1       0.227   3.520   2.189  0.00  0.00    +0.210 HD
ENDBRANCH  11   2
BRANCH  13   3
ATOM      3  O   UNL     1       1.887   4.195  -1.184  0.00  0.00    -0.389 OA
ATOM     31  H   UNL     1       2.739   4.660  -1.234  0.00  0.00    +0.210 HD
ENDBRANCH  13   3
TORSDOF 9
