REMARK  Name = 26744501
REMARK  6 active torsions:
REMARK  status: ('A' for Active; 'I' for Inactive)
REMARK    1  A    between atoms: S_1  and  C_17
REMARK    2  A    between atoms: S_1  and  C_18
REMARK    3  A    between atoms: O_3  and  C_12
REMARK    4  A    between atoms: N_7  and  C_15
REMARK    5  A    between atoms: C_10  and  C_14
REMARK    6  A    between atoms: C_16  and  C_17
REMARK                            x       y       z     vdW  Elec       q    Type
REMARK                         _______ _______ _______ _____ _____    ______ ____
ROOT
ATOM      4  O   UNL     1       2.221   2.146  -0.793  0.00  0.00    -0.336 OA
ATOM      8  N   UNL     1       1.418   0.072  -0.527  0.00  0.00    -0.193 NA
ATOM      9  N   UNL     1       0.842   2.230  -1.026  0.00  0.00    -0.060 NA
ATOM     14  C   UNL     1       2.476   0.843  -0.507  0.00  0.00    +0.245 A 
ATOM     16  C   UNL     1       0.440   0.968  -0.850  0.00  0.00    +0.193 A 
ENDROOT
BRANCH  14  10
ATOM      7  N   UNL     1       4.088  -0.137   1.117  0.00  0.00    -0.292 NA
ATOM     10  C   UNL     1       3.917   0.486  -0.211  0.00  0.00    +0.148 C 
ATOM     11  C   UNL     1       4.493  -0.541  -1.205  0.00  0.00    +0.061 C 
ATOM     12  C   UNL     1       5.003  -1.685  -0.338  0.00  0.00    +0.130 C 
ATOM     13  C   UNL     1       5.239  -1.032   1.010  0.00  0.00    +0.116 C 
ATOM     15  C   UNL     1       4.246   0.834   2.191  0.00  0.00    +0.105 C 
BRANCH  12   3
ATOM      3  O   UNL     1       6.193  -2.229  -0.874  0.00  0.00    -0.390 OA
ATOM     24  H   UNL     1       5.988  -2.561  -1.765  0.00  0.00    +0.210 HD
ENDBRANCH  12   3
ENDBRANCH  14  10
BRANCH  16  17
ATOM     17  C   UNL     1      -0.966   0.572  -0.995  0.00  0.00    +0.251 C 
BRANCH  17   1
ATOM      1  S   UNL     1      -1.639   0.275   0.617  0.00  0.00    +0.004 S 
ATOM      5  O   UNL     1      -1.586   1.525   1.351  0.00  0.00    -0.169 OA
ATOM      6  O   UNL     1      -1.028  -0.924   1.158  0.00  0.00    -0.169 OA
BRANCH   1  18
ATOM      2  F   UNL     1      -7.302  -0.988  -0.435  0.00  0.00    -0.205 F 
ATOM     18  C   UNL     1      -3.336  -0.104   0.302  0.00  0.00    +0.089 A 
ATOM     19  C   UNL     1      -3.726  -1.425   0.079  0.00  0.00    +0.030 A 
ATOM     20  C   UNL     1      -4.285   0.918   0.277  0.00  0.00    +0.030 A 
ATOM     21  C   UNL     1      -5.066  -1.723  -0.170  0.00  0.00    +0.040 A 
ATOM     22  C   UNL     1      -5.625   0.619   0.028  0.00  0.00    +0.040 A 
ATOM     23  C   UNL     1      -6.015  -0.701  -0.196  0.00  0.00    +0.124 A 
ENDBRANCH   1  18
ENDBRANCH  17   1
ENDBRANCH  16  17
TORSDOF 5
