REMARK  Name = 11941491
REMARK  5 active torsions:
REMARK  status: ('A' for Active; 'I' for Inactive)
REMARK    1  A    between atoms: S_1  and  C_21
REMARK    2  A    between atoms: S_1  and  C_26
REMARK    3  A    between atoms: N_7  and  C_9
REMARK    4  A    between atoms: C_17  and  C_21
REMARK    5  A    between atoms: C_20  and  C_23
REMARK                            x       y       z     vdW  Elec       q    Type
REMARK                         _______ _______ _______ _____ _____    ______ ____
ROOT
ATOM      3  O   UNL     1      -2.396  -3.035   1.334  0.00  0.00    -0.273 OA
ATOM      4  O   UNL     1       0.566  -1.142  -2.591  0.00  0.00    -0.270 OA
ATOM      6  N   UNL     1      -1.248  -1.241  -1.180  0.00  0.00    -0.284 N 
ATOM      8  N   UNL     1      -0.217  -2.372   1.333  0.00  0.00    -0.283 N 
ATOM      9  C   UNL     1      -3.372  -0.883  -0.203  0.00  0.00    +0.104 C 
ATOM     10  C   UNL     1      -1.875  -1.024   0.110  0.00  0.00    +0.183 C 
ATOM     11  C   UNL     1      -3.542  -1.683  -1.496  0.00  0.00    +0.043 C 
ATOM     12  C   UNL     1      -2.233  -1.443  -2.233  0.00  0.00    +0.111 C 
ATOM     13  C   UNL     1      -1.534  -2.247   0.941  0.00  0.00    +0.240 C 
ATOM     14  C   UNL     1       0.097  -1.110  -1.453  0.00  0.00    +0.249 C 
ATOM     15  C   UNL     1       1.030  -0.946  -0.308  0.00  0.00    +0.059 A 
ATOM     16  C   UNL     1       0.898  -1.610   0.923  0.00  0.00    +0.046 A 
ATOM     18  C   UNL     1       2.195  -0.201  -0.571  0.00  0.00    +0.024 A 
ATOM     19  C   UNL     1       1.968  -1.566   1.835  0.00  0.00    +0.024 A 
ATOM     20  C   UNL     1       3.225  -0.131   0.366  0.00  0.00    -0.010 A 
ATOM     22  C   UNL     1       3.117  -0.824   1.564  0.00  0.00    +0.011 A 
ATOM     29  H   UNL     1      -0.045  -3.048   2.074  0.00  0.00    +0.155 HD
ENDROOT
BRANCH  20  23
ATOM      2  S   UNL     1       4.463   2.285   0.556  0.00  0.00    -0.097 S 
ATOM     23  C   UNL     1       4.410   0.640   0.081  0.00  0.00    +0.019 A 
ATOM     24  C   UNL     1       5.573   0.247  -0.546  0.00  0.00    +0.016 A 
ATOM     25  C   UNL     1       6.518   1.310  -0.637  0.00  0.00    +0.008 A 
ATOM     27  C   UNL     1       6.043   2.475  -0.076  0.00  0.00    +0.046 A 
ENDBRANCH  20  23
BRANCH   9   7
ATOM      5  O   UNL     1      -4.403   0.950   1.786  0.00  0.00    -0.275 OA
ATOM      7  N   UNL     1      -3.731   0.503  -0.394  0.00  0.00    -0.309 N 
ATOM     17  C   UNL     1      -4.219   1.307   0.623  0.00  0.00    +0.223 C 
ATOM     28  H   UNL     1      -3.564   0.918  -1.306  0.00  0.00    +0.149 HD
BRANCH  17  21
ATOM     21  C   UNL     1      -4.537   2.710   0.164  0.00  0.00    +0.164 C 
BRANCH  21   1
ATOM      1  S   UNL     1      -3.057   3.735   0.340  0.00  0.00    -0.155 S 
ATOM     26  C   UNL     1      -3.737   5.296  -0.268  0.00  0.00    +0.085 C 
ENDBRANCH  21   1
ENDBRANCH  17  21
ENDBRANCH   9   7
TORSDOF 4
