REMARK  Name = 45783467
REMARK  11 active torsions:
REMARK  status: ('A' for Active; 'I' for Inactive)
REMARK    1  A    between atoms: S_1  and  C_23
REMARK    2  A    between atoms: S_1  and  C_25
REMARK    3  A    between atoms: O_5  and  C_27
REMARK    4  A    between atoms: O_5  and  C_30
REMARK    5  A    between atoms: O_6  and  C_31
REMARK    6  A    between atoms: O_6  and  C_32
REMARK    7  A    between atoms: N_7  and  C_15
REMARK    8  A    between atoms: C_11  and  C_16
REMARK    9  A    between atoms: C_15  and  C_17
REMARK   10  A    between atoms: C_20  and  C_24
REMARK   11  A    between atoms: C_30  and  C_31
REMARK                            x       y       z     vdW  Elec       q    Type
REMARK                         _______ _______ _______ _____ _____    ______ ____
ROOT
ATOM      7  N   UNL     1      -3.731   0.259  -1.388  0.00  0.00    -0.287 NA
ATOM     11  C   UNL     1      -4.023  -0.565  -0.199  0.00  0.00    +0.146 C 
ATOM     12  C   UNL     1      -4.837  -1.756  -0.739  0.00  0.00    +0.030 C 
ATOM     13  C   UNL     1      -5.003  -1.482  -2.227  0.00  0.00    +0.017 C 
ATOM     14  C   UNL     1      -4.819   0.018  -2.336  0.00  0.00    +0.085 C 
ENDROOT
BRANCH  11  16
ATOM      2  O   UNL     1      -2.896  -1.234   1.864  0.00  0.00    -0.336 OA
ATOM      8  N   UNL     1      -1.559  -1.181   0.068  0.00  0.00    -0.189 NA
ATOM      9  N   UNL     1      -1.624  -1.613   2.314  0.00  0.00    -0.054 NA
ATOM     16  C   UNL     1      -2.769  -0.998   0.532  0.00  0.00    +0.245 A 
ATOM     20  C   UNL     1      -0.892  -1.558   1.197  0.00  0.00    +0.221 A 
BRANCH  20  24
ATOM     10  N   UNL     1       1.044  -2.233   2.363  0.00  0.00    -0.252 NA
ATOM     24  C   UNL     1       0.507  -1.874   1.176  0.00  0.00    +0.115 A 
ATOM     26  C   UNL     1       1.222  -1.802  -0.009  0.00  0.00    +0.077 A 
ATOM     27  C   UNL     1       2.575  -2.119   0.027  0.00  0.00    +0.124 A 
ATOM     28  C   UNL     1       2.362  -2.534   2.360  0.00  0.00    +0.115 A 
ATOM     29  C   UNL     1       3.164  -2.493   1.230  0.00  0.00    +0.065 A 
BRANCH  27   5
ATOM      5  O   UNL     1       3.320  -2.065  -1.110  0.00  0.00    -0.490 OA
BRANCH   5  30
ATOM     30  C   UNL     1       2.927  -1.114  -2.099  0.00  0.00    +0.257 C 
BRANCH  30  31
ATOM     31  C   UNL     1       4.158  -0.642  -2.849  0.00  0.00    +0.200 C 
BRANCH  31   6
ATOM      6  O   UNL     1       5.050  -0.020  -1.932  0.00  0.00    -0.380 OA
ATOM     32  C   UNL     1       6.235   0.423  -2.578  0.00  0.00    +0.194 C 
ENDBRANCH  31   6
ENDBRANCH  30  31
ENDBRANCH   5  30
ENDBRANCH  27   5
ENDBRANCH  20  24
ENDBRANCH  11  16
BRANCH   7  15
ATOM     15  C   UNL     1      -3.575   1.675  -1.081  0.00  0.00    +0.120 C 
BRANCH  15  17
ATOM     17  C   UNL     1      -2.211   1.981  -0.521  0.00  0.00    -0.033 A 
ATOM     18  C   UNL     1      -2.089   2.561   0.742  0.00  0.00    +0.007 A 
ATOM     19  C   UNL     1      -1.069   1.683  -1.264  0.00  0.00    +0.007 A 
ATOM     21  C   UNL     1      -0.826   2.844   1.261  0.00  0.00    +0.027 A 
ATOM     22  C   UNL     1       0.195   1.966  -0.746  0.00  0.00    +0.027 A 
ATOM     23  C   UNL     1       0.316   2.546   0.517  0.00  0.00    +0.088 A 
BRANCH  23   1
ATOM      1  S   UNL     1       1.897   2.897   1.169  0.00  0.00    -0.006 S 
ATOM      3  O   UNL     1       2.840   3.044   0.068  0.00  0.00    -0.170 OA
ATOM      4  O   UNL     1       1.753   3.969   2.144  0.00  0.00    -0.170 OA
ATOM     25  C   UNL     1       2.353   1.418   2.045  0.00  0.00    +0.200 C 
ENDBRANCH  23   1
ENDBRANCH  15  17
ENDBRANCH   7  15
TORSDOF 9
