REMARK  Name = 11884355
REMARK  5 active torsions:
REMARK  status: ('A' for Active; 'I' for Inactive)
REMARK    1  A    between atoms: O_3  and  C_11
REMARK    2  A    between atoms: O_5  and  C_20
REMARK    3  A    between atoms: O_5  and  C_21
REMARK    4  A    between atoms: N_6  and  C_10
REMARK    5  A    between atoms: N_7  and  C_15
REMARK                            x       y       z     vdW  Elec       q    Type
REMARK                         _______ _______ _______ _____ _____    ______ ____
ROOT
ATOM      4  O   UNL     1       0.237   1.585  -0.473  0.00  0.00    -0.252 OA
ATOM      6  N   UNL     1      -1.097  -0.292  -0.680  0.00  0.00    -0.292 N 
ATOM      7  N   UNL     1       1.160  -0.570  -0.353  0.00  0.00    -0.269 N 
ATOM     14  C   UNL     1       0.128   0.361  -0.497  0.00  0.00    +0.304 C 
ATOM     22  H   UNL     1      -1.117  -1.305  -0.620  0.00  0.00    +0.151 HD
ATOM     24  H   UNL     1       0.898  -1.551  -0.399  0.00  0.00    +0.156 HD
ENDROOT
BRANCH   6  10
ATOM      1  O   UNL     1      -4.063  -1.251  -0.773  0.00  0.00    -0.369 OA
ATOM      2  O   UNL     1      -4.106   1.594   0.341  0.00  0.00    -0.369 OA
ATOM      8  C   UNL     1      -3.117   0.547   0.446  0.00  0.00    +0.172 C 
ATOM      9  C   UNL     1      -3.875  -0.759   0.566  0.00  0.00    +0.179 C 
ATOM     10  C   UNL     1      -2.363   0.417  -0.860  0.00  0.00    +0.131 C 
ATOM     11  C   UNL     1      -5.180  -0.323   1.188  0.00  0.00    +0.171 C 
ATOM     12  C   UNL     1      -3.318  -0.431  -1.687  0.00  0.00    +0.185 C 
ATOM     13  C   UNL     1      -5.409   1.023   0.538  0.00  0.00    +0.194 C 
BRANCH  11   3
ATOM      3  O   UNL     1      -6.244  -1.216   0.947  0.00  0.00    -0.387 OA
ATOM     23  H   UNL     1      -6.304  -1.361  -0.013  0.00  0.00    +0.210 HD
ENDBRANCH  11   3
ENDBRANCH   6  10
BRANCH   7  15
ATOM     15  C   UNL     1       2.537  -0.316  -0.150  0.00  0.00    +0.035 A 
ATOM     16  C   UNL     1       3.413  -1.382  -0.030  0.00  0.00    +0.027 A 
ATOM     17  C   UNL     1       2.980   0.994  -0.074  0.00  0.00    +0.027 A 
ATOM     18  C   UNL     1       4.770  -1.131   0.171  0.00  0.00    +0.047 A 
ATOM     19  C   UNL     1       4.338   1.245   0.127  0.00  0.00    +0.047 A 
ATOM     20  C   UNL     1       5.233   0.182   0.250  0.00  0.00    +0.120 A 
BRANCH  20   5
ATOM      5  O   UNL     1       6.557   0.427   0.444  0.00  0.00    -0.495 OA
ATOM     21  C   UNL     1       7.417  -0.706   0.559  0.00  0.00    +0.277 C 
ENDBRANCH  20   5
ENDBRANCH   7  15
TORSDOF 4
