REMARK  Name = 45783989
REMARK  10 active torsions:
REMARK  status: ('A' for Active; 'I' for Inactive)
REMARK    1  A    between atoms: N_5  and  C_14
REMARK    2  A    between atoms: N_8  and  C_32
REMARK    3  A    between atoms: C_9  and  C_13
REMARK    4  A    between atoms: C_10  and  C_14
REMARK    5  A    between atoms: C_12  and  C_17
REMARK    6  A    between atoms: C_13  and  C_18
REMARK    7  A    between atoms: C_13  and  C_19
REMARK    8  A    between atoms: C_16  and  C_20
REMARK    9  A    between atoms: C_17  and  C_23
REMARK   10  A    between atoms: C_26  and  C_27
REMARK                            x       y       z     vdW  Elec       q    Type
REMARK                         _______ _______ _______ _____ _____    ______ ____
ROOT
ATOM      9  C   UNL     1      -2.822   0.168   0.754  0.00  0.00    +0.000 C 
ATOM     10  C   UNL     1      -3.760   1.273   0.217  0.00  0.00    +0.029 C 
ATOM     11  C   UNL     1      -1.764  -0.197  -0.297  0.00  0.00    +0.012 C 
ATOM     12  C   UNL     1      -0.921   1.011  -0.761  0.00  0.00    +0.024 C 
ATOM     15  C   UNL     1      -3.012   2.375  -0.490  0.00  0.00    -0.023 C 
ATOM     16  C   UNL     1      -1.742   2.282  -0.923  0.00  0.00    -0.073 C 
ATOM     20  C   UNL     1      -1.062   3.473  -1.540  0.00  0.00    +0.039 C 
ENDROOT
BRANCH   9  13
ATOM     13  C   UNL     1      -2.168   0.584   2.079  0.00  0.00    -0.013 C 
ATOM     18  C   UNL     1      -3.177   0.497   3.220  0.00  0.00    +0.007 C 
ATOM     19  C   UNL     1      -0.949  -0.287   2.367  0.00  0.00    +0.007 C 
ENDBRANCH   9  13
BRANCH  10  14
ATOM     14  C   UNL     1      -4.825   0.703  -0.725  0.00  0.00    +0.092 C 
BRANCH  14   5
ATOM      1  O   UNL     1      -8.016  -1.703   0.559  0.00  0.00    -0.377 OA
ATOM      5  N   UNL     1      -5.588  -0.353  -0.063  0.00  0.00    -0.297 NA
ATOM     21  C   UNL     1      -6.567   0.218   0.872  0.00  0.00    +0.112 C 
ATOM     22  C   UNL     1      -6.270  -1.202  -1.050  0.00  0.00    +0.112 C 
ATOM     24  C   UNL     1      -7.358  -0.903   1.542  0.00  0.00    +0.175 C 
ATOM     25  C   UNL     1      -7.069  -2.288  -0.336  0.00  0.00    +0.175 C 
ENDBRANCH  14   5
ENDBRANCH  10  14
BRANCH  12  17
ATOM     17  C   UNL     1      -0.168   0.620  -2.039  0.00  0.00    +0.105 C 
BRANCH  17  23
ATOM      2  O   UNL     1       2.094   0.250  -1.201  0.00  0.00    -0.420 OA
ATOM      6  N   UNL     1       1.070  -1.603  -1.922  0.00  0.00    -0.112 NA
ATOM      7  N   UNL     1       2.331  -1.957  -1.480  0.00  0.00    -0.107 NA
ATOM     23  C   UNL     1       0.975  -0.307  -1.740  0.00  0.00    +0.218 A 
ATOM     26  C   UNL     1       2.893  -0.844  -1.068  0.00  0.00    +0.248 A 
BRANCH  26  27
ATOM     27  C   UNL     1       4.193  -0.608  -0.511  0.00  0.00    +0.039 A 
ATOM     28  C   UNL     1       5.080  -1.669  -0.337  0.00  0.00    +0.015 A 
ATOM     29  C   UNL     1       4.570   0.684  -0.143  0.00  0.00    +0.015 A 
ATOM     30  C   UNL     1       6.345  -1.440   0.205  0.00  0.00    +0.033 A 
ATOM     31  C   UNL     1       5.834   0.914   0.399  0.00  0.00    +0.033 A 
ATOM     32  C   UNL     1       6.721  -0.148   0.573  0.00  0.00    +0.126 A 
BRANCH  32   8
ATOM      3  O   UNL     1       8.794  -0.883   1.269  0.00  0.00    -0.126 OA
ATOM      4  O   UNL     1       8.329   1.255   1.447  0.00  0.00    -0.126 OA
ATOM      8  N   UNL     1       8.010   0.086   1.123  0.00  0.00    +0.056 N 
ENDBRANCH  32   8
ENDBRANCH  26  27
ENDBRANCH  17  23
ENDBRANCH  12  17
TORSDOF 7
