REMARK  Name = 75367823
REMARK  5 active torsions:
REMARK  status: ('A' for Active; 'I' for Inactive)
REMARK    1  A    between atoms: O_1  and  C_5
REMARK    2  A    between atoms: O_1  and  C_10
REMARK    3  A    between atoms: O_3  and  C_11
REMARK    4  A    between atoms: O_3  and  C_12
REMARK    5  A    between atoms: C_10  and  C_11
REMARK                            x       y       z     vdW  Elec       q    Type
REMARK                         _______ _______ _______ _____ _____    ______ ____
ROOT
ATOM      2  O   UNL     1       2.623   1.439   0.030  0.00  0.00    -0.376 OA
ATOM      4  N   UNL     1       2.135  -1.633   0.321  0.00  0.00    -0.311 NA
ATOM      5  C   UNL     1       0.506   0.278  -0.225  0.00  0.00    +0.158 C 
ATOM      6  C   UNL     1       0.760  -1.201   0.093  0.00  0.00    +0.114 C 
ATOM      7  C   UNL     1       1.337   1.245   0.612  0.00  0.00    +0.192 C 
ATOM      8  C   UNL     1       3.143  -0.920  -0.452  0.00  0.00    +0.109 C 
ATOM      9  C   UNL     1       3.538   0.374   0.254  0.00  0.00    +0.175 C 
ATOM     13  H   UNL     1       2.201  -2.634   0.140  0.00  0.00    +0.122 HD
ENDROOT
BRANCH   5   1
ATOM      1  O   UNL     1      -0.880   0.524   0.014  0.00  0.00    -0.371 OA
BRANCH   1  10
ATOM     10  C   UNL     1      -1.677   0.082  -1.073  0.00  0.00    +0.188 C 
BRANCH  10  11
ATOM     11  C   UNL     1      -3.136   0.346  -0.756  0.00  0.00    +0.187 C 
BRANCH  11   3
ATOM      3  O   UNL     1      -3.496  -0.381   0.412  0.00  0.00    -0.381 OA
ATOM     12  C   UNL     1      -4.852  -0.153   0.770  0.00  0.00    +0.194 C 
ENDBRANCH  11   3
ENDBRANCH  10  11
ENDBRANCH   1  10
ENDBRANCH   5   1
TORSDOF 4
