REMARK  Name = 45360796
REMARK  9 active torsions:
REMARK  status: ('A' for Active; 'I' for Inactive)
REMARK    1  A    between atoms: O_3  and  C_29
REMARK    2  A    between atoms: O_3  and  C_33
REMARK    3  A    between atoms: N_5  and  C_18
REMARK    4  A    between atoms: N_6  and  C_17
REMARK    5  A    between atoms: C_12  and  C_16
REMARK    6  A    between atoms: C_16  and  C_19
REMARK    7  A    between atoms: C_17  and  C_20
REMARK    8  A    between atoms: C_19  and  C_21
REMARK    9  A    between atoms: C_22  and  C_29
REMARK                            x       y       z     vdW  Elec       q    Type
REMARK                         _______ _______ _______ _____ _____    ______ ____
ROOT
ATOM      1  O   UNL     1       1.332  -0.781   0.864  0.00  0.00    -0.274 OA
ATOM      5  N   UNL     1       0.972   2.846  -0.443  0.00  0.00    -0.296 NA
ATOM      6  N   UNL     1       3.631   0.382   0.055  0.00  0.00    -0.286 NA
ATOM      7  N   UNL     1       0.469   1.116   1.810  0.00  0.00    -0.312 N 
ATOM      9  C   UNL     1       2.378   2.442  -0.218  0.00  0.00    +0.084 C 
ATOM     10  C   UNL     1       2.663   1.254   0.746  0.00  0.00    +0.161 C 
ATOM     11  C   UNL     1       3.113   2.001  -1.498  0.00  0.00    +0.036 C 
ATOM     12  C   UNL     1       0.276   3.356   0.771  0.00  0.00    +0.074 C 
ATOM     13  C   UNL     1       4.279   1.190  -0.972  0.00  0.00    +0.087 C 
ATOM     14  C   UNL     1       0.532   2.543   2.055  0.00  0.00    +0.123 C 
ATOM     15  C   UNL     1       1.442   0.418   1.119  0.00  0.00    +0.232 C 
ATOM     18  C   UNL     1       0.878   3.829  -1.536  0.00  0.00    +0.105 C 
ATOM     34  H   UNL     1      -0.333   0.599   2.156  0.00  0.00    +0.149 HD
ENDROOT
BRANCH  12  16
ATOM     16  C   UNL     1      -1.250   3.394   0.542  0.00  0.00    +0.029 C 
BRANCH  16  19
ATOM     19  C   UNL     1      -1.771   2.088  -0.026  0.00  0.00    +0.097 C 
BRANCH  19  21
ATOM      2  O   UNL     1      -3.881   3.160   0.086  0.00  0.00    -0.276 OA
ATOM      8  N   UNL     1      -3.865   0.987  -0.737  0.00  0.00    -0.301 N 
ATOM     21  C   UNL     1      -3.265   2.135  -0.218  0.00  0.00    +0.216 C 
ATOM     22  C   UNL     1      -5.286  -1.531  -0.666  0.00  0.00    +0.101 C 
ATOM     23  C   UNL     1      -5.306   0.969  -0.992  0.00  0.00    +0.108 C 
ATOM     24  C   UNL     1      -3.159  -0.246  -1.109  0.00  0.00    +0.108 C 
ATOM     25  C   UNL     1      -5.970  -0.213  -0.291  0.00  0.00    +0.033 C 
ATOM     26  C   UNL     1      -3.778  -1.454  -0.409  0.00  0.00    +0.033 C 
BRANCH  22  29
ATOM      4  O   UNL     1      -6.769  -2.497   0.965  0.00  0.00    -0.251 OA
ATOM     29  C   UNL     1      -5.887  -2.648   0.130  0.00  0.00    +0.310 C 
BRANCH  29   3
ATOM      3  O   UNL     1      -5.300  -3.826  -0.224  0.00  0.00    -0.468 OA
ATOM     33  C   UNL     1      -5.783  -4.984   0.465  0.00  0.00    +0.280 C 
ENDBRANCH  29   3
ENDBRANCH  22  29
ENDBRANCH  19  21
ENDBRANCH  16  19
ENDBRANCH  12  16
BRANCH   6  17
ATOM     17  C   UNL     1       4.596  -0.237   0.955  0.00  0.00    +0.120 C 
BRANCH  17  20
ATOM     20  C   UNL     1       5.213  -1.471   0.353  0.00  0.00    -0.033 A 
ATOM     27  C   UNL     1       4.619  -2.717   0.554  0.00  0.00    +0.005 A 
ATOM     28  C   UNL     1       6.379  -1.369  -0.406  0.00  0.00    +0.005 A 
ATOM     30  C   UNL     1       5.190  -3.861  -0.004  0.00  0.00    +0.000 A 
ATOM     31  C   UNL     1       6.951  -2.513  -0.963  0.00  0.00    +0.000 A 
ATOM     32  C   UNL     1       6.356  -3.759  -0.762  0.00  0.00    +0.000 A 
ENDBRANCH  17  20
ENDBRANCH   6  17
TORSDOF 7
