REMARK  Name = 38029504
REMARK  9 active torsions:
REMARK  status: ('A' for Active; 'I' for Inactive)
REMARK    1  A    between atoms: N_4  and  C_14
REMARK    2  A    between atoms: C_7  and  C_11
REMARK    3  A    between atoms: C_8  and  C_14
REMARK    4  A    between atoms: C_10  and  C_15
REMARK    5  A    between atoms: C_11  and  C_16
REMARK    6  A    between atoms: C_11  and  C_17
REMARK    7  A    between atoms: C_12  and  C_18
REMARK    8  A    between atoms: C_15  and  C_19
REMARK    9  A    between atoms: C_20  and  C_21
REMARK                            x       y       z     vdW  Elec       q    Type
REMARK                         _______ _______ _______ _____ _____    ______ ____
ROOT
ATOM      7  C   UNL     1      -1.651   1.812   0.692  0.00  0.00    +0.000 C 
ATOM      8  C   UNL     1      -2.854   1.960  -0.273  0.00  0.00    +0.032 C 
ATOM      9  C   UNL     1      -0.426   2.557   0.139  0.00  0.00    +0.012 C 
ATOM     10  C   UNL     1      -0.006   2.038  -1.249  0.00  0.00    +0.023 C 
ATOM     12  C   UNL     1      -1.192   1.901  -2.182  0.00  0.00    -0.073 C 
ATOM     13  C   UNL     1      -2.458   1.882  -1.729  0.00  0.00    -0.022 C 
ATOM     18  C   UNL     1      -0.892   1.833  -3.653  0.00  0.00    +0.039 C 
ENDROOT
BRANCH   7  11
ATOM     11  C   UNL     1      -1.981   2.326   2.096  0.00  0.00    -0.013 C 
ATOM     16  C   UNL     1      -1.082   1.659   3.132  0.00  0.00    +0.007 C 
ATOM     17  C   UNL     1      -1.838   3.844   2.154  0.00  0.00    +0.007 C 
ENDBRANCH   7  11
BRANCH   8  14
ATOM     14  C   UNL     1      -3.931   0.909   0.021  0.00  0.00    +0.112 C 
BRANCH  14   4
ATOM      2  O   UNL     1      -3.701  -1.264   1.883  0.00  0.00    -0.267 OA
ATOM      4  N   UNL     1      -3.446  -0.406  -0.258  0.00  0.00    -0.308 N 
ATOM     20  C   UNL     1      -3.368  -1.407   0.709  0.00  0.00    +0.279 C 
ATOM     30  H   UNL     1      -3.183  -0.634  -1.213  0.00  0.00    +0.149 HD
BRANCH  20  21
ATOM      3  O   UNL     1      -2.433  -2.833  -1.033  0.00  0.00    -0.458 OA
ATOM     21  C   UNL     1      -2.816  -2.713   0.265  0.00  0.00    +0.189 A 
ATOM     23  C   UNL     1      -2.603  -3.891   0.943  0.00  0.00    +0.054 A 
ATOM     25  C   UNL     1      -2.052  -4.792   0.001  0.00  0.00    +0.042 A 
ATOM     26  C   UNL     1      -1.969  -4.101  -1.185  0.00  0.00    +0.196 A 
ENDBRANCH  20  21
ENDBRANCH  14   4
ENDBRANCH   8  14
BRANCH  10  15
ATOM     15  C   UNL     1       0.759   0.714  -1.136  0.00  0.00    +0.104 C 
BRANCH  15  19
ATOM      1  O   UNL     1       2.621   2.014  -0.332  0.00  0.00    -0.275 OA
ATOM      5  N   UNL     1       2.814  -0.320  -0.515  0.00  0.00    -0.270 N 
ATOM      6  N   UNL     1       4.580  -1.844  -0.050  0.00  0.00    -0.240 NA
ATOM     19  C   UNL     1       2.168   0.909  -0.613  0.00  0.00    +0.219 C 
ATOM     22  C   UNL     1       4.135  -0.567  -0.071  0.00  0.00    +0.125 A 
ATOM     24  C   UNL     1       4.894   0.525   0.317  0.00  0.00    +0.044 A 
ATOM     27  C   UNL     1       6.193   0.292   0.755  0.00  0.00    +0.005 A 
ATOM     28  C   UNL     1       5.847  -2.031   0.381  0.00  0.00    +0.113 A 
ATOM     29  C   UNL     1       6.686  -1.007   0.790  0.00  0.00    +0.020 A 
ATOM     31  H   UNL     1       2.303  -1.157  -0.787  0.00  0.00    +0.156 HD
ENDBRANCH  15  19
ENDBRANCH  10  15
TORSDOF 6
