REMARK  Name = 45784257
REMARK  4 active torsions:
REMARK  status: ('A' for Active; 'I' for Inactive)
REMARK    1  A    between atoms: N_4  and  C_12
REMARK    2  A    between atoms: C_7  and  C_11
REMARK    3  A    between atoms: C_12  and  C_13
REMARK    4  A    between atoms: C_20  and  C_24
REMARK                            x       y       z     vdW  Elec       q    Type
REMARK                         _______ _______ _______ _____ _____    ______ ____
ROOT
ATOM      5  N   UNL     1       1.671  -1.120   0.577  0.00  0.00    -0.342 N 
ATOM      6  N   UNL     1       1.053   0.919  -0.058  0.00  0.00    -0.232 NA
ATOM     11  C   UNL     1       0.635  -0.251   0.372  0.00  0.00    +0.113 A 
ATOM     14  C   UNL     1       2.834  -0.469   0.257  0.00  0.00    +0.067 A 
ATOM     15  C   UNL     1       2.422   0.802  -0.136  0.00  0.00    +0.089 A 
ATOM     16  C   UNL     1       4.170  -0.869   0.277  0.00  0.00    +0.040 A 
ATOM     17  C   UNL     1       3.388   1.742  -0.535  0.00  0.00    +0.030 A 
ATOM     20  C   UNL     1       5.118   0.079  -0.124  0.00  0.00    +0.057 A 
ATOM     21  C   UNL     1       4.735   1.362  -0.523  0.00  0.00    +0.014 A 
ATOM     26  H   UNL     1       1.596  -2.074   0.904  0.00  0.00    +0.167 HD
ENDROOT
BRANCH  11   7
ATOM      4  N   UNL     1      -3.002  -0.277  -0.065  0.00  0.00    -0.297 NA
ATOM      7  C   UNL     1      -0.796  -0.659   0.632  0.00  0.00    +0.070 C 
ATOM      8  C   UNL     1      -1.529   0.189   1.686  0.00  0.00    +0.028 C 
ATOM      9  C   UNL     1      -1.680  -0.572  -0.620  0.00  0.00    +0.096 C 
ATOM     10  C   UNL     1      -2.761   0.728   0.971  0.00  0.00    +0.085 C 
BRANCH   4  12
ATOM     12  C   UNL     1      -3.939   0.185  -1.078  0.00  0.00    +0.119 C 
BRANCH  12  13
ATOM     13  C   UNL     1      -5.367   0.068  -0.616  0.00  0.00    -0.033 A 
ATOM     18  C   UNL     1      -6.086  -1.103  -0.860  0.00  0.00    +0.005 A 
ATOM     19  C   UNL     1      -5.973   1.131   0.055  0.00  0.00    +0.005 A 
ATOM     22  C   UNL     1      -7.409  -1.211  -0.432  0.00  0.00    +0.000 A 
ATOM     23  C   UNL     1      -7.296   1.022   0.482  0.00  0.00    +0.000 A 
ATOM     25  C   UNL     1      -8.014  -0.148   0.239  0.00  0.00    +0.000 A 
ENDBRANCH  12  13
ENDBRANCH   4  12
ENDBRANCH  11   7
BRANCH  20  24
ATOM      1  F   UNL     1       7.036  -0.651   1.105  0.00  0.00    -0.166 F 
ATOM      2  F   UNL     1       7.365   0.735  -0.538  0.00  0.00    -0.166 F 
ATOM      3  F   UNL     1       6.859  -1.341  -0.944  0.00  0.00    -0.166 F 
ATOM     24  C   UNL     1       6.565  -0.289  -0.124  0.00  0.00    +0.417 C 
ENDBRANCH  20  24
TORSDOF 4
