REMARK  Name = 26744513
REMARK  9 active torsions:
REMARK  status: ('A' for Active; 'I' for Inactive)
REMARK    1  A    between atoms: O_4  and  C_14
REMARK    2  A    between atoms: O_6  and  C_28
REMARK    3  A    between atoms: O_7  and  C_31
REMARK    4  A    between atoms: O_7  and  C_32
REMARK    5  A    between atoms: N_9  and  C_16
REMARK    6  A    between atoms: C_12  and  C_17
REMARK    7  A    between atoms: C_16  and  C_18
REMARK    8  A    between atoms: C_21  and  C_24
REMARK    9  A    between atoms: C_25  and  C_28
REMARK                            x       y       z     vdW  Elec       q    Type
REMARK                         _______ _______ _______ _____ _____    ______ ____
ROOT
ATOM      9  N   UNL     1      -4.079  -0.012   0.630  0.00  0.00    -0.285 NA
ATOM     12  C   UNL     1      -3.856   0.841  -0.555  0.00  0.00    +0.149 C 
ATOM     13  C   UNL     1      -4.606   2.149  -0.246  0.00  0.00    +0.061 C 
ATOM     14  C   UNL     1      -5.256   1.920   1.113  0.00  0.00    +0.130 C 
ATOM     15  C   UNL     1      -5.354   0.409   1.209  0.00  0.00    +0.116 C 
ENDROOT
BRANCH  12  17
ATOM      5  O   UNL     1      -2.055   1.306  -2.140  0.00  0.00    -0.336 OA
ATOM     10  N   UNL     1      -1.367   1.055  -0.023  0.00  0.00    -0.190 NA
ATOM     11  N   UNL     1      -0.664   1.475  -2.159  0.00  0.00    -0.056 NA
ATOM     17  C   UNL     1      -2.386   1.063  -0.845  0.00  0.00    +0.245 A 
ATOM     21  C   UNL     1      -0.333   1.313  -0.875  0.00  0.00    +0.202 A 
BRANCH  21  24
ATOM     24  C   UNL     1       1.021   1.403  -0.410  0.00  0.00    +0.023 A 
ATOM     26  C   UNL     1       1.308   1.226   0.944  0.00  0.00    +0.015 A 
ATOM     27  C   UNL     1       2.051   1.669  -1.312  0.00  0.00    +0.015 A 
ATOM     29  C   UNL     1       2.624   1.315   1.395  0.00  0.00    +0.046 A 
ATOM     30  C   UNL     1       3.368   1.758  -0.861  0.00  0.00    +0.046 A 
ATOM     31  C   UNL     1       3.654   1.582   0.493  0.00  0.00    +0.130 A 
BRANCH  31   7
ATOM      7  O   UNL     1       4.939   1.669   0.933  0.00  0.00    -0.406 OA
BRANCH   7  32
ATOM      1  F   UNL     1       6.830   0.506   1.345  0.00  0.00    -0.133 F 
ATOM      2  F   UNL     1       5.320  -0.409   0.057  0.00  0.00    -0.133 F 
ATOM      3  F   UNL     1       6.526   1.293  -0.671  0.00  0.00    -0.133 F 
ATOM     32  C   UNL     1       5.897   0.762   0.399  0.00  0.00    +0.575 C 
ENDBRANCH   7  32
ENDBRANCH  31   7
ENDBRANCH  21  24
ENDBRANCH  12  17
BRANCH  14   4
ATOM      4  O   UNL     1      -6.530   2.533   1.170  0.00  0.00    -0.390 OA
ATOM     33  H   UNL     1      -6.402   3.486   1.027  0.00  0.00    +0.210 HD
ENDBRANCH  14   4
BRANCH   9  16
ATOM     16  C   UNL     1      -4.059  -1.436   0.326  0.00  0.00    +0.120 C 
BRANCH  16  18
ATOM     18  C   UNL     1      -2.654  -1.962   0.197  0.00  0.00    -0.033 A 
ATOM     19  C   UNL     1      -2.241  -2.564  -0.992  0.00  0.00    +0.006 A 
ATOM     20  C   UNL     1      -1.765  -1.848   1.266  0.00  0.00    +0.006 A 
ATOM     22  C   UNL     1      -0.940  -3.052  -1.112  0.00  0.00    +0.015 A 
ATOM     23  C   UNL     1      -0.464  -2.336   1.146  0.00  0.00    +0.015 A 
ATOM     25  C   UNL     1      -0.051  -2.937  -0.043  0.00  0.00    +0.059 A 
BRANCH  25  28
ATOM      8  O   UNL     1       1.777  -3.993  -1.170  0.00  0.00    -0.245 OA
ATOM     28  C   UNL     1       1.306  -3.444  -0.168  0.00  0.00    +0.337 C 
BRANCH  28   6
ATOM      6  O   UNL     1       2.039  -3.253   0.963  0.00  0.00    -0.477 OA
ATOM     34  H   UNL     1       2.953  -3.597   0.868  0.00  0.00    +0.295 HD
ENDBRANCH  28   6
ENDBRANCH  25  28
ENDBRANCH  16  18
ENDBRANCH   9  16
TORSDOF 9
