REMARK  Name = 71693104
REMARK  15 active torsions:
REMARK  status: ('A' for Active; 'I' for Inactive)
REMARK    1  A    between atoms: O_2  and  C_30
REMARK    2  A    between atoms: N_4  and  C_15
REMARK    3  A    between atoms: C_8  and  C_12
REMARK    4  A    between atoms: C_9  and  C_15
REMARK    5  A    between atoms: C_11  and  C_16
REMARK    6  A    between atoms: C_12  and  C_17
REMARK    7  A    between atoms: C_12  and  C_18
REMARK    8  A    between atoms: C_13  and  C_19
REMARK    9  A    between atoms: C_16  and  C_20
REMARK   10  A    between atoms: C_21  and  C_23
REMARK   11  A    between atoms: C_22  and  C_23
REMARK   12  A    between atoms: C_22  and  C_24
REMARK   13  A    between atoms: C_22  and  C_26
REMARK   14  A    between atoms: C_22  and  C_27
REMARK   15  A    between atoms: C_24  and  C_30
REMARK                            x       y       z     vdW  Elec       q    Type
REMARK                         _______ _______ _______ _____ _____    ______ ____
ROOT
ATOM      8  C   UNL     1       0.279   0.575   0.590  0.00  0.00    +0.000 C 
ATOM      9  C   UNL     1      -0.920  -0.405   0.550  0.00  0.00    +0.032 C 
ATOM     10  C   UNL     1       1.312   0.202  -0.483  0.00  0.00    +0.012 C 
ATOM     11  C   UNL     1       1.848  -1.232  -0.303  0.00  0.00    +0.022 C 
ATOM     13  C   UNL     1       0.728  -2.225  -0.067  0.00  0.00    -0.073 C 
ATOM     14  C   UNL     1      -0.506  -1.837   0.301  0.00  0.00    -0.022 C 
ATOM     19  C   UNL     1       1.048  -3.674  -0.307  0.00  0.00    +0.039 C 
ENDROOT
BRANCH   8  12
ATOM     12  C   UNL     1      -0.168   2.028   0.396  0.00  0.00    -0.013 C 
ATOM     17  C   UNL     1       0.848   2.983   1.013  0.00  0.00    +0.007 C 
ATOM     18  C   UNL     1      -0.365   2.331  -1.086  0.00  0.00    +0.007 C 
ENDBRANCH   8  12
BRANCH   9  15
ATOM     15  C   UNL     1      -1.740  -0.329   1.843  0.00  0.00    +0.112 C 
BRANCH  15   4
ATOM      1  O   UNL     1      -3.934   1.369   1.077  0.00  0.00    -0.276 OA
ATOM      4  N   UNL     1      -3.093  -0.729   1.610  0.00  0.00    -0.315 N 
ATOM     21  C   UNL     1      -4.098   0.162   1.241  0.00  0.00    +0.214 C 
ATOM     33  H   UNL     1      -3.320  -1.714   1.715  0.00  0.00    +0.149 HD
BRANCH  21  23
ATOM     23  C   UNL     1      -5.454  -0.496   1.044  0.00  0.00    +0.102 C 
BRANCH  23  22
ATOM     22  C   UNL     1      -5.763  -0.927  -0.412  0.00  0.00    -0.017 C 
ATOM     26  C   UNL     1      -7.134  -1.637  -0.417  0.00  0.00    +0.012 C 
ATOM     27  C   UNL     1      -4.715  -1.946  -0.906  0.00  0.00    +0.012 C 
BRANCH  22  24
ATOM     24  C   UNL     1      -5.776   0.263  -1.401  0.00  0.00    +0.127 C 
BRANCH  24  30
ATOM      3  O   UNL     1      -6.515   2.287  -0.296  0.00  0.00    -0.251 OA
ATOM     30  C   UNL     1      -6.759   1.362  -1.060  0.00  0.00    +0.305 C 
BRANCH  30   2
ATOM      2  O   UNL     1      -7.953   1.214  -1.686  0.00  0.00    -0.481 OA
ATOM     35  H   UNL     1      -8.580   1.931  -1.451  0.00  0.00    +0.295 HD
ENDBRANCH  30   2
ENDBRANCH  24  30
ENDBRANCH  22  24
ENDBRANCH  23  22
ENDBRANCH  21  23
ENDBRANCH  15   4
ENDBRANCH   9  15
BRANCH  11  16
ATOM     16  C   UNL     1       2.885  -1.296   0.824  0.00  0.00    +0.082 C 
BRANCH  16  20
ATOM      5  N   UNL     1       4.621   0.505   0.777  0.00  0.00    -0.341 N 
ATOM      6  N   UNL     1       5.093  -1.332  -0.390  0.00  0.00    -0.213 NA
ATOM      7  N   UNL     1       7.262  -0.614  -1.209  0.00  0.00    -0.234 NA
ATOM     20  C   UNL     1       4.209  -0.739   0.383  0.00  0.00    +0.110 A 
ATOM     25  C   UNL     1       5.852   0.728   0.222  0.00  0.00    +0.085 A 
ATOM     28  C   UNL     1       6.121  -0.430  -0.499  0.00  0.00    +0.178 A 
ATOM     29  C   UNL     1       6.746   1.792   0.266  0.00  0.00    +0.031 A 
ATOM     31  C   UNL     1       7.922   1.618  -0.458  0.00  0.00    +0.022 A 
ATOM     32  C   UNL     1       8.121   0.431  -1.155  0.00  0.00    +0.113 A 
ATOM     34  H   UNL     1       4.109   1.146   1.370  0.00  0.00    +0.167 HD
ENDBRANCH  16  20
ENDBRANCH  11  16
TORSDOF 10
