REMARK  Name = 45783785
REMARK  7 active torsions:
REMARK  status: ('A' for Active; 'I' for Inactive)
REMARK    1  A    between atoms: N_5  and  C_14
REMARK    2  A    between atoms: N_9  and  C_28
REMARK    3  A    between atoms: N_9  and  C_29
REMARK    4  A    between atoms: C_10  and  C_15
REMARK    5  A    between atoms: C_14  and  C_16
REMARK    6  A    between atoms: C_19  and  C_23
REMARK    7  A    between atoms: C_22  and  C_24
REMARK                            x       y       z     vdW  Elec       q    Type
REMARK                         _______ _______ _______ _____ _____    ______ ____
ROOT
ATOM      5  N   UNL     1      -3.726  -0.349  -0.696  0.00  0.00    -0.287 NA
ATOM     10  C   UNL     1      -3.450  -1.231   0.455  0.00  0.00    +0.146 C 
ATOM     11  C   UNL     1      -4.144  -2.560   0.104  0.00  0.00    +0.030 C 
ATOM     12  C   UNL     1      -4.832  -2.310  -1.230  0.00  0.00    +0.017 C 
ATOM     13  C   UNL     1      -4.992  -0.804  -1.272  0.00  0.00    +0.085 C 
ENDROOT
BRANCH  10  15
ATOM      4  O   UNL     1      -1.610  -1.670   2.002  0.00  0.00    -0.336 OA
ATOM      6  N   UNL     1      -0.962  -1.313  -0.112  0.00  0.00    -0.190 NA
ATOM      7  N   UNL     1      -0.213  -1.777   1.999  0.00  0.00    -0.056 NA
ATOM     15  C   UNL     1      -1.969  -1.397   0.720  0.00  0.00    +0.245 A 
ATOM     19  C   UNL     1       0.094  -1.554   0.718  0.00  0.00    +0.204 A 
BRANCH  19  23
ATOM      8  N   UNL     1       3.802  -1.836   0.698  0.00  0.00    -0.240 NA
ATOM     23  C   UNL     1       1.444  -1.566   0.234  0.00  0.00    +0.041 A 
ATOM     25  C   UNL     1       1.728  -1.331  -1.107  0.00  0.00    +0.016 A 
ATOM     26  C   UNL     1       2.507  -1.811   1.089  0.00  0.00    +0.124 A 
ATOM     27  C   UNL     1       3.047  -1.349  -1.546  0.00  0.00    +0.044 A 
ATOM     28  C   UNL     1       4.038  -1.604  -0.612  0.00  0.00    +0.118 A 
BRANCH  28   9
ATOM      9  N   UNL     1       5.377  -1.620  -1.075  0.00  0.00    -0.332 N 
ATOM     29  C   UNL     1       6.487  -1.870  -0.215  0.00  0.00    +0.127 C 
ATOM     30  H   UNL     1       5.554  -1.223  -1.992  0.00  0.00    +0.147 HD
ENDBRANCH  28   9
ENDBRANCH  19  23
ENDBRANCH  10  15
BRANCH   5  14
ATOM     14  C   UNL     1      -3.761   1.064  -0.342  0.00  0.00    +0.120 C 
BRANCH  14  16
ATOM     16  C   UNL     1      -2.378   1.645  -0.214  0.00  0.00    -0.033 A 
ATOM     17  C   UNL     1      -1.973   2.223   0.989  0.00  0.00    +0.005 A 
ATOM     18  C   UNL     1      -1.502   1.605  -1.298  0.00  0.00    +0.005 A 
ATOM     20  C   UNL     1      -0.691   2.760   1.108  0.00  0.00    +0.012 A 
ATOM     21  C   UNL     1      -0.220   2.143  -1.180  0.00  0.00    +0.012 A 
ATOM     22  C   UNL     1       0.185   2.720   0.024  0.00  0.00    +0.055 A 
BRANCH  22  24
ATOM      1  F   UNL     1       2.552   2.381  -0.058  0.00  0.00    -0.166 F 
ATOM      2  F   UNL     1       1.794   3.814   1.391  0.00  0.00    -0.166 F 
ATOM      3  F   UNL     1       1.811   4.306  -0.727  0.00  0.00    -0.166 F 
ATOM     24  C   UNL     1       1.556   3.292   0.152  0.00  0.00    +0.417 C 
ENDBRANCH  22  24
ENDBRANCH  14  16
ENDBRANCH   5  14
TORSDOF 6
