REMARK  Name = 38030637
REMARK  13 active torsions:
REMARK  status: ('A' for Active; 'I' for Inactive)
REMARK    1  A    between atoms: O_2  and  C_25
REMARK    2  A    between atoms: N_3  and  C_12
REMARK    3  A    between atoms: N_4  and  C_24
REMARK    4  A    between atoms: C_7  and  C_11
REMARK    5  A    between atoms: C_8  and  C_12
REMARK    6  A    between atoms: C_10  and  C_15
REMARK    7  A    between atoms: C_11  and  C_18
REMARK    8  A    between atoms: C_11  and  C_19
REMARK    9  A    between atoms: C_14  and  C_22
REMARK   10  A    between atoms: C_15  and  C_23
REMARK   11  A    between atoms: C_24  and  C_25
REMARK   12  A    between atoms: C_26  and  C_27
REMARK   13  A    between atoms: C_32  and  C_33
REMARK                            x       y       z     vdW  Elec       q    Type
REMARK                         _______ _______ _______ _____ _____    ______ ____
ROOT
ATOM      7  C   UNL     1      -1.622  -2.153  -0.868  0.00  0.00    +0.000 C 
ATOM      8  C   UNL     1      -1.844  -2.051   0.659  0.00  0.00    +0.029 C 
ATOM      9  C   UNL     1      -0.123  -2.226  -1.190  0.00  0.00    +0.012 C 
ATOM     10  C   UNL     1       0.597  -3.397  -0.487  0.00  0.00    +0.024 C 
ATOM     13  C   UNL     1      -0.969  -3.001   1.436  0.00  0.00    -0.023 C 
ATOM     14  C   UNL     1       0.118  -3.621   0.939  0.00  0.00    -0.073 C 
ATOM     22  C   UNL     1       0.871  -4.618   1.777  0.00  0.00    +0.039 C 
ENDROOT
BRANCH   7  11
ATOM     11  C   UNL     1      -2.377  -3.348  -1.464  0.00  0.00    -0.013 C 
ATOM     18  C   UNL     1      -3.871  -3.048  -1.545  0.00  0.00    +0.007 C 
ATOM     19  C   UNL     1      -1.820  -3.696  -2.841  0.00  0.00    +0.007 C 
ENDBRANCH   7  11
BRANCH   8  12
ATOM     12  C   UNL     1      -1.617  -0.625   1.171  0.00  0.00    +0.092 C 
BRANCH  12   3
ATOM      3  N   UNL     1      -2.470   0.322   0.454  0.00  0.00    -0.299 NA
ATOM      4  N   UNL     1      -4.183   2.647   0.313  0.00  0.00    -0.298 NA
ATOM     16  C   UNL     1      -3.840   0.293   0.983  0.00  0.00    +0.100 C 
ATOM     17  C   UNL     1      -1.920   1.681   0.531  0.00  0.00    +0.100 C 
ATOM     20  C   UNL     1      -4.734   1.288   0.236  0.00  0.00    +0.100 C 
ATOM     21  C   UNL     1      -2.815   2.675  -0.217  0.00  0.00    +0.100 C 
BRANCH   4  24
ATOM     24  C   UNL     1      -5.037   3.594  -0.401  0.00  0.00    +0.112 C 
BRANCH  24  25
ATOM     25  C   UNL     1      -6.209   4.021   0.467  0.00  0.00    +0.171 C 
BRANCH  25   2
ATOM      2  O   UNL     1      -7.000   4.953  -0.259  0.00  0.00    -0.394 OA
ATOM     34  H   UNL     1      -7.736   5.215   0.320  0.00  0.00    +0.209 HD
ENDBRANCH  25   2
ENDBRANCH  24  25
ENDBRANCH   4  24
ENDBRANCH  12   3
ENDBRANCH   8  12
BRANCH  10  15
ATOM     15  C   UNL     1       2.110  -3.167  -0.579  0.00  0.00    +0.105 C 
BRANCH  15  23
ATOM      1  O   UNL     1       3.162  -0.967  -0.478  0.00  0.00    -0.420 OA
ATOM      5  N   UNL     1       2.381  -1.700   1.486  0.00  0.00    -0.112 NA
ATOM      6  N   UNL     1       2.946  -0.454   1.688  0.00  0.00    -0.107 NA
ATOM     23  C   UNL     1       2.530  -1.959   0.208  0.00  0.00    +0.218 A 
ATOM     26  C   UNL     1       3.388  -0.065   0.515  0.00  0.00    +0.248 A 
BRANCH  26  27
ATOM     27  C   UNL     1       4.060   1.141   0.127  0.00  0.00    +0.038 A 
ATOM     28  C   UNL     1       4.334   2.124   1.078  0.00  0.00    +0.013 A 
ATOM     29  C   UNL     1       4.440   1.331  -1.201  0.00  0.00    +0.013 A 
ATOM     30  C   UNL     1       4.988   3.296   0.701  0.00  0.00    +0.004 A 
ATOM     31  C   UNL     1       5.094   2.504  -1.579  0.00  0.00    +0.004 A 
ATOM     32  C   UNL     1       5.368   3.486  -0.627  0.00  0.00    -0.050 A 
ATOM     33  C   UNL     1       6.067   4.741  -1.031  0.00  0.00    +0.044 C 
ENDBRANCH  26  27
ENDBRANCH  15  23
ENDBRANCH  10  15
TORSDOF 9
