REMARK  Name = 7144095
REMARK  4 active torsions:
REMARK  status: ('A' for Active; 'I' for Inactive)
REMARK    1  A    between atoms: O_4  and  C_26
REMARK    2  A    between atoms: O_4  and  C_29
REMARK    3  A    between atoms: C_14  and  C_19
REMARK    4  A    between atoms: C_16  and  C_20
REMARK                            x       y       z     vdW  Elec       q    Type
REMARK                         _______ _______ _______ _____ _____    ______ ____
ROOT
ATOM      1  O   UNL     1       2.681   3.320  -1.764  0.00  0.00    -0.268 OA
ATOM      2  O   UNL     1       3.814  -0.931  -0.414  0.00  0.00    -0.267 OA
ATOM      5  N   UNL     1       1.432   2.136  -0.175  0.00  0.00    -0.311 N 
ATOM      6  N   UNL     1       2.146  -0.618   1.194  0.00  0.00    -0.294 N 
ATOM      7  C   UNL     1       2.356   1.654   2.170  0.00  0.00    +0.027 C 
ATOM      8  C   UNL     1       0.138   0.809   1.523  0.00  0.00    +0.054 C 
ATOM      9  C   UNL     1       0.891   1.616   2.580  0.00  0.00    +0.018 C 
ATOM     10  C   UNL     1       2.467   2.396   0.836  0.00  0.00    +0.130 C 
ATOM     11  C   UNL     1       2.933   0.231   2.087  0.00  0.00    +0.113 C 
ATOM     12  C   UNL     1       0.702  -0.627   1.470  0.00  0.00    +0.117 C 
ATOM     13  C   UNL     1       0.236   1.460   0.141  0.00  0.00    +0.034 A 
ATOM     14  C   UNL     1      -0.759   1.379  -0.780  0.00  0.00    +0.002 A 
ATOM     15  C   UNL     1       1.663   2.709  -1.438  0.00  0.00    +0.252 A 
ATOM     16  C   UNL     1       2.782  -1.293   0.149  0.00  0.00    +0.282 C 
ATOM     17  C   UNL     1      -0.555   1.954  -2.096  0.00  0.00    +0.015 A 
ATOM     18  C   UNL     1       0.577   2.570  -2.435  0.00  0.00    +0.071 A 
ENDROOT
BRANCH  14  19
ATOM     19  C   UNL     1      -2.041   0.702  -0.484  0.00  0.00    -0.016 A 
ATOM     21  C   UNL     1      -2.175  -0.661  -0.731  0.00  0.00    +0.012 A 
ATOM     22  C   UNL     1      -3.103   1.432   0.040  0.00  0.00    +0.012 A 
ATOM     24  C   UNL     1      -3.384  -1.299  -0.452  0.00  0.00    +0.046 A 
ATOM     25  C   UNL     1      -4.312   0.794   0.319  0.00  0.00    +0.046 A 
ATOM     26  C   UNL     1      -4.452  -0.572   0.073  0.00  0.00    +0.120 A 
BRANCH  26   4
ATOM      4  O   UNL     1      -5.631  -1.194   0.344  0.00  0.00    -0.495 OA
ATOM     29  C   UNL     1      -6.682  -0.391   0.880  0.00  0.00    +0.277 C 
ENDBRANCH  26   4
ENDBRANCH  14  19
BRANCH  16  20
ATOM      3  O   UNL     1       1.467  -3.279   0.532  0.00  0.00    -0.458 OA
ATOM     20  C   UNL     1       2.175  -2.533  -0.348  0.00  0.00    +0.189 A 
ATOM     23  C   UNL     1       2.188  -3.108  -1.590  0.00  0.00    +0.054 A 
ATOM     27  C   UNL     1       1.431  -4.299  -1.470  0.00  0.00    +0.042 A 
ATOM     28  C   UNL     1       1.015  -4.357  -0.161  0.00  0.00    +0.196 A 
ENDBRANCH  16  20
TORSDOF 3
