REMARK  Name = 38028941
REMARK  12 active torsions:
REMARK  status: ('A' for Active; 'I' for Inactive)
REMARK    1  A    between atoms: O_3  and  C_28
REMARK    2  A    between atoms: O_3  and  C_33
REMARK    3  A    between atoms: N_4  and  C_16
REMARK    4  A    between atoms: C_8  and  C_12
REMARK    5  A    between atoms: C_9  and  C_16
REMARK    6  A    between atoms: C_11  and  C_15
REMARK    7  A    between atoms: C_12  and  C_17
REMARK    8  A    between atoms: C_12  and  C_18
REMARK    9  A    between atoms: C_13  and  C_19
REMARK   10  A    between atoms: C_15  and  C_20
REMARK   11  A    between atoms: C_25  and  C_26
REMARK   12  A    between atoms: C_26  and  C_28
REMARK                            x       y       z     vdW  Elec       q    Type
REMARK                         _______ _______ _______ _____ _____    ______ ____
ROOT
ATOM      8  C   UNL     1      -3.092   0.242   1.137  0.00  0.00    +0.000 C 
ATOM      9  C   UNL     1      -4.456  -0.060   0.466  0.00  0.00    +0.032 C 
ATOM     10  C   UNL     1      -2.742   1.731   0.992  0.00  0.00    +0.012 C 
ATOM     11  C   UNL     1      -2.669   2.171  -0.482  0.00  0.00    +0.023 C 
ATOM     13  C   UNL     1      -3.860   1.676  -1.278  0.00  0.00    -0.073 C 
ATOM     14  C   UNL     1      -4.655   0.687  -0.832  0.00  0.00    -0.022 C 
ATOM     19  C   UNL     1      -4.143   2.375  -2.578  0.00  0.00    +0.039 C 
ENDROOT
BRANCH   8  12
ATOM     12  C   UNL     1      -3.088  -0.150   2.618  0.00  0.00    -0.013 C 
ATOM     17  C   UNL     1      -1.663  -0.418   3.093  0.00  0.00    +0.007 C 
ATOM     18  C   UNL     1      -3.743   0.941   3.459  0.00  0.00    +0.007 C 
ENDBRANCH   8  12
BRANCH  11  15
ATOM     15  C   UNL     1      -1.353   1.723  -1.128  0.00  0.00    +0.103 C 
BRANCH  15  20
ATOM      1  O   UNL     1      -0.439   3.768  -0.338  0.00  0.00    -0.276 OA
ATOM      5  N   UNL     1       1.035   1.987  -0.568  0.00  0.00    -0.298 N 
ATOM      6  N   UNL     1       3.634   0.775  -0.175  0.00  0.00    -0.312 N 
ATOM      7  N   UNL     1       5.521  -0.380  -1.002  0.00  0.00    -0.240 NA
ATOM     20  C   UNL     1      -0.220   2.593  -0.640  0.00  0.00    +0.216 C 
ATOM     21  C   UNL     1       2.184   2.763  -0.111  0.00  0.00    +0.126 C 
ATOM     22  C   UNL     1       1.292   0.588  -0.918  0.00  0.00    +0.126 C 
ATOM     23  C   UNL     1       3.190   1.901   0.650  0.00  0.00    +0.125 C 
ATOM     24  C   UNL     1       2.759   0.323  -1.259  0.00  0.00    +0.125 C 
ATOM     27  C   UNL     1       4.873   0.177   0.046  0.00  0.00    +0.121 A 
ATOM     29  C   UNL     1       5.363   0.194   1.342  0.00  0.00    +0.043 A 
ATOM     30  C   UNL     1       6.598  -0.400   1.578  0.00  0.00    +0.005 A 
ATOM     31  C   UNL     1       6.719  -0.948  -0.733  0.00  0.00    +0.113 A 
ATOM     32  C   UNL     1       7.295  -0.983   0.526  0.00  0.00    +0.020 A 
ENDBRANCH  15  20
ENDBRANCH  11  15
BRANCH   9  16
ATOM     16  C   UNL     1      -4.631  -1.563   0.222  0.00  0.00    +0.112 C 
BRANCH  16   4
ATOM      2  O   UNL     1      -2.617  -3.591   0.626  0.00  0.00    -0.276 OA
ATOM      4  N   UNL     1      -3.681  -2.036  -0.736  0.00  0.00    -0.315 N 
ATOM     25  C   UNL     1      -2.736  -3.025  -0.457  0.00  0.00    +0.215 C 
ATOM     34  H   UNL     1      -3.744  -1.677  -1.684  0.00  0.00    +0.149 HD
BRANCH  25  26
ATOM     26  C   UNL     1      -1.858  -3.330  -1.661  0.00  0.00    +0.124 C 
BRANCH  26  28
ATOM     28  C   UNL     1      -0.459  -3.786  -1.275  0.00  0.00    +0.168 C 
BRANCH  28   3
ATOM      3  O   UNL     1       0.166  -2.780  -0.489  0.00  0.00    -0.382 OA
ATOM     33  C   UNL     1       1.476  -3.164  -0.096  0.00  0.00    +0.194 C 
ENDBRANCH  28   3
ENDBRANCH  26  28
ENDBRANCH  25  26
ENDBRANCH  16   4
ENDBRANCH   9  16
TORSDOF 8
