REMARK  Name = 11883097
REMARK  9 active torsions:
REMARK  status: ('A' for Active; 'I' for Inactive)
REMARK    1  A    between atoms: O_2  and  C_14
REMARK    2  A    between atoms: O_3  and  C_19
REMARK    3  A    between atoms: N_7  and  C_25
REMARK    4  A    between atoms: C_9  and  C_17
REMARK    5  A    between atoms: C_11  and  C_19
REMARK    6  A    between atoms: C_11  and  C_20
REMARK    7  A    between atoms: C_12  and  C_22
REMARK    8  A    between atoms: C_22  and  C_23
REMARK    9  A    between atoms: C_28  and  C_29
REMARK                            x       y       z     vdW  Elec       q    Type
REMARK                         _______ _______ _______ _____ _____    ______ ____
ROOT
ATOM      1  S   UNL     1      -0.384  -3.365  -0.161  0.00  0.00    -0.057 S 
ATOM      5  O   UNL     1       3.671  -1.215   0.564  0.00  0.00    -0.275 OA
ATOM      6  N   UNL     1       0.742  -1.074   0.261  0.00  0.00    -0.229 NA
ATOM      8  N   UNL     1       2.192  -2.998   0.167  0.00  0.00    -0.264 N 
ATOM      9  C   UNL     1      -2.698   0.574  -0.306  0.00  0.00    -0.019 C 
ATOM     10  C   UNL     1      -3.484  -0.688   0.262  0.00  0.00    +0.011 C 
ATOM     11  C   UNL     1      -5.059  -0.650   0.173  0.00  0.00    +0.021 C 
ATOM     12  C   UNL     1      -1.208   0.527   0.270  0.00  0.00    +0.054 C 
ATOM     13  C   UNL     1      -3.376   1.874   0.200  0.00  0.00    +0.010 C 
ATOM     14  C   UNL     1      -5.566   0.733   0.672  0.00  0.00    +0.123 C 
ATOM     15  C   UNL     1      -2.860  -2.022  -0.243  0.00  0.00    +0.049 C 
ATOM     16  C   UNL     1      -4.882   1.908  -0.015  0.00  0.00    +0.032 C 
ATOM     17  C   UNL     1      -2.651   0.608  -1.853  0.00  0.00    +0.012 C 
ATOM     18  C   UNL     1      -0.617  -0.853   0.132  0.00  0.00    +0.058 A 
ATOM     20  C   UNL     1      -5.646  -1.730   1.125  0.00  0.00    +0.016 C 
ATOM     21  C   UNL     1      -1.378  -1.984  -0.080  0.00  0.00    +0.015 A 
ATOM     24  C   UNL     1       0.980  -2.360   0.118  0.00  0.00    +0.165 A 
ATOM     29  C   UNL     1       3.453  -2.416   0.382  0.00  0.00    +0.222 C 
ATOM     39  H   UNL     1       2.153  -4.004   0.030  0.00  0.00    +0.157 HD
ENDROOT
BRANCH  29  28
ATOM     28  C   UNL     1       4.606  -3.441   0.367  0.00  0.00    +0.075 C 
ATOM     32  C   UNL     1       6.046  -2.889   0.374  0.00  0.00    +0.013 C 
ATOM     33  C   UNL     1       4.948  -4.106  -0.982  0.00  0.00    +0.013 C 
ATOM     35  C   UNL     1       6.424  -4.079  -0.534  0.00  0.00    +0.001 C 
ENDBRANCH  29  28
BRANCH  14   2
ATOM      2  O   UNL     1      -6.977   0.848   0.484  0.00  0.00    -0.391 OA
ATOM     36  H   UNL     1      -7.254   1.704   0.852  0.00  0.00    +0.210 HD
ENDBRANCH  14   2
BRANCH  11  19
ATOM     19  C   UNL     1      -5.630  -0.974  -1.225  0.00  0.00    +0.165 C 
BRANCH  19   3
ATOM      3  O   UNL     1      -7.036  -0.911  -1.142  0.00  0.00    -0.394 OA
ATOM     37  H   UNL     1      -7.388  -1.126  -2.023  0.00  0.00    +0.209 HD
ENDBRANCH  19   3
ENDBRANCH  11  19
BRANCH  12  22
ATOM     22  C   UNL     1      -0.269   1.599  -0.299  0.00  0.00    +0.106 C 
BRANCH  22  23
ATOM      4  O   UNL     1       0.977   1.428   1.768  0.00  0.00    -0.276 OA
ATOM      7  N   UNL     1       1.688   2.904   0.119  0.00  0.00    -0.312 N 
ATOM     23  C   UNL     1       0.848   1.941   0.660  0.00  0.00    +0.214 C 
ATOM     38  H   UNL     1       1.519   3.218  -0.832  0.00  0.00    +0.149 HD
BRANCH   7  25
ATOM     25  C   UNL     1       2.843   3.425   0.816  0.00  0.00    +0.073 C 
ATOM     26  C   UNL     1       3.099   4.888   0.439  0.00  0.00    +0.022 C 
ATOM     27  C   UNL     1       4.081   2.560   0.556  0.00  0.00    +0.022 C 
ATOM     30  C   UNL     1       3.635   5.041  -0.985  0.00  0.00    +0.002 C 
ATOM     31  C   UNL     1       4.615   2.716  -0.868  0.00  0.00    +0.002 C 
ATOM     34  C   UNL     1       4.872   4.179  -1.216  0.00  0.00    +0.000 C 
ENDBRANCH   7  25
ENDBRANCH  22  23
ENDBRANCH  12  22
TORSDOF 7
