REMARK  Name = 26742846
REMARK  4 active torsions:
REMARK  status: ('A' for Active; 'I' for Inactive)
REMARK    1  A    between atoms: N_5  and  C_17
REMARK    2  A    between atoms: N_6  and  C_19
REMARK    3  A    between atoms: C_17  and  C_19
REMARK    4  A    between atoms: C_18  and  C_20
REMARK                            x       y       z     vdW  Elec       q    Type
REMARK                         _______ _______ _______ _____ _____    ______ ____
ROOT
ATOM      1  O   UNL     1      -2.393  -0.825  -1.389  0.00  0.00    -0.276 OA
ATOM      2  O   UNL     1       3.948   1.424   1.714  0.00  0.00    -0.270 OA
ATOM      4  N   UNL     1       2.709   1.364  -0.267  0.00  0.00    -0.297 N 
ATOM      5  N   UNL     1      -1.891   0.121   0.669  0.00  0.00    -0.300 N 
ATOM      8  C   UNL     1       0.437   2.303   0.045  0.00  0.00    +0.011 C 
ATOM      9  C   UNL     1       0.024   1.643  -1.293  0.00  0.00    +0.004 C 
ATOM     10  C   UNL     1       0.884   0.403  -1.608  0.00  0.00    +0.023 C 
ATOM     11  C   UNL     1       1.954   2.580   0.036  0.00  0.00    +0.112 C 
ATOM     12  C   UNL     1       0.055   1.512   1.311  0.00  0.00    +0.024 C 
ATOM     13  C   UNL     1      -1.481   1.373  -1.422  0.00  0.00    +0.100 C 
ATOM     14  C   UNL     1       2.372   0.741  -1.552  0.00  0.00    +0.108 C 
ATOM     15  C   UNL     1      -1.445   1.274   1.448  0.00  0.00    +0.108 C 
ATOM     16  C   UNL     1      -1.968   0.120  -0.719  0.00  0.00    +0.216 C 
ATOM     18  C   UNL     1       3.667   0.900   0.637  0.00  0.00    +0.247 C 
ENDROOT
BRANCH  18  20
ATOM     20  C   UNL     1       4.398  -0.328   0.302  0.00  0.00    +0.037 A 
ATOM     24  C   UNL     1       5.591  -0.255  -0.416  0.00  0.00    +0.013 A 
ATOM     25  C   UNL     1       3.900  -1.567   0.703  0.00  0.00    +0.013 A 
ATOM     26  C   UNL     1       6.287  -1.422  -0.734  0.00  0.00    +0.001 A 
ATOM     27  C   UNL     1       4.595  -2.734   0.386  0.00  0.00    +0.001 A 
ATOM     28  C   UNL     1       5.788  -2.661  -0.333  0.00  0.00    +0.000 A 
ENDBRANCH  18  20
BRANCH   5  17
ATOM     17  C   UNL     1      -2.249  -1.074   1.421  0.00  0.00    +0.126 C 
BRANCH  17  19
ATOM     19  C   UNL     1      -3.708  -1.067   1.847  0.00  0.00    +0.128 C 
BRANCH  19   6
ATOM      3  O   UNL     1      -4.855   1.299   0.392  0.00  0.00    -0.253 OA
ATOM      6  N   UNL     1      -4.599  -1.024   0.720  0.00  0.00    -0.283 N 
ATOM      7  N   UNL     1      -5.894  -0.288  -0.981  0.00  0.00    -0.298 N 
ATOM     21  C   UNL     1      -5.040  -2.225   0.033  0.00  0.00    +0.128 C 
ATOM     22  C   UNL     1      -6.002  -1.724  -1.035  0.00  0.00    +0.124 C 
ATOM     23  C   UNL     1      -5.085   0.136   0.086  0.00  0.00    +0.302 C 
ATOM     29  H   UNL     1      -6.381   0.346  -1.607  0.00  0.00    +0.150 HD
ENDBRANCH  19   6
ENDBRANCH  17  19
ENDBRANCH   5  17
TORSDOF 4
