REMARK  Name = 11865857
REMARK  14 active torsions:
REMARK  status: ('A' for Active; 'I' for Inactive)
REMARK    1  A    between atoms: N_6  and  C_12
REMARK    2  A    between atoms: N_7  and  C_19
REMARK    3  A    between atoms: N_8  and  C_27
REMARK    4  A    between atoms: C_11  and  C_16
REMARK    5  A    between atoms: C_15  and  C_17
REMARK    6  A    between atoms: C_17  and  C_18
REMARK    7  A    between atoms: C_18  and  C_20
REMARK    8  A    between atoms: C_18  and  C_21
REMARK    9  A    between atoms: C_18  and  C_22
REMARK   10  A    between atoms: C_19  and  C_24
REMARK   11  A    between atoms: C_19  and  C_26
REMARK   12  A    between atoms: C_24  and  C_25
REMARK   13  A    between atoms: C_27  and  C_31
REMARK   14  A    between atoms: C_27  and  C_32
REMARK                            x       y       z     vdW  Elec       q    Type
REMARK                         _______ _______ _______ _____ _____    ______ ____
ROOT
ATOM      1  O   UNL     1       3.442  -0.300  -1.566  0.00  0.00    -0.276 OA
ATOM      5  N   UNL     1       2.242  -1.204   0.195  0.00  0.00    -0.288 N 
ATOM     11  C   UNL     1       0.992  -0.502  -0.078  0.00  0.00    +0.182 C 
ATOM     12  C   UNL     1      -0.060  -1.227   0.761  0.00  0.00    +0.105 C 
ATOM     13  C   UNL     1       0.747  -1.793   1.933  0.00  0.00    +0.043 C 
ATOM     14  C   UNL     1       2.098  -2.130   1.315  0.00  0.00    +0.110 C 
ATOM     15  C   UNL     1       3.353  -1.094  -0.628  0.00  0.00    +0.217 C 
ENDROOT
BRANCH  12   6
ATOM      3  O   UNL     1      -2.709  -2.302   1.155  0.00  0.00    -0.253 OA
ATOM      6  N   UNL     1      -0.693  -2.279   0.002  0.00  0.00    -0.294 N 
ATOM      8  N   UNL     1      -2.344  -3.755  -0.618  0.00  0.00    -0.297 N 
ATOM     23  C   UNL     1      -1.982  -2.738   0.263  0.00  0.00    +0.300 C 
ATOM     37  H   UNL     1      -0.150  -2.754  -0.713  0.00  0.00    +0.151 HD
ATOM     39  H   UNL     1      -1.648  -4.096  -1.274  0.00  0.00    +0.150 HD
BRANCH   8  27
ATOM     27  C   UNL     1      -3.629  -4.411  -0.570  0.00  0.00    +0.068 C 
ATOM     31  C   UNL     1      -4.062  -4.842  -1.966  0.00  0.00    +0.027 C 
ATOM     32  C   UNL     1      -3.583  -5.597   0.385  0.00  0.00    +0.027 C 
ENDBRANCH   8  27
ENDBRANCH  12   6
BRANCH  11  16
ATOM      2  O   UNL     1       1.924   1.190   1.326  0.00  0.00    -0.274 OA
ATOM      7  N   UNL     1       0.433   1.811  -0.351  0.00  0.00    -0.302 N 
ATOM     16  C   UNL     1       1.186   0.911   0.384  0.00  0.00    +0.236 C 
ATOM     38  H   UNL     1      -0.063   1.477  -1.171  0.00  0.00    +0.150 HD
BRANCH   7  19
ATOM     19  C   UNL     1       0.424   3.232  -0.091  0.00  0.00    +0.163 C 
BRANCH  19  26
ATOM      4  O   UNL     1       1.957   3.431  -1.966  0.00  0.00    -0.274 OA
ATOM     10  N   UNL     1       2.145   4.924  -0.231  0.00  0.00    -0.328 N 
ATOM     26  C   UNL     1       1.585   3.837  -0.868  0.00  0.00    +0.231 C 
ATOM     41  H   UNL     1       2.919   5.429  -0.648  0.00  0.00    +0.145 HD
ATOM     42  H   UNL     1       1.812   5.262   0.666  0.00  0.00    +0.145 HD
ENDBRANCH  19  26
BRANCH  19  24
ATOM     24  C   UNL     1      -0.898   3.890  -0.504  0.00  0.00    +0.069 C 
BRANCH  24  25
ATOM      9  N   UNL     1      -3.684   2.983   1.715  0.00  0.00    -0.360 N 
ATOM     25  C   UNL     1      -2.090   3.316   0.207  0.00  0.00    -0.020 A 
ATOM     28  C   UNL     1      -2.886   2.218  -0.223  0.00  0.00    +0.003 A 
ATOM     29  C   UNL     1      -2.605   3.764   1.402  0.00  0.00    +0.087 A 
ATOM     30  C   UNL     1      -3.880   2.030   0.741  0.00  0.00    +0.047 A 
ATOM     33  C   UNL     1      -2.858   1.364  -1.343  0.00  0.00    +0.010 A 
ATOM     34  C   UNL     1      -4.849   1.026   0.639  0.00  0.00    +0.026 A 
ATOM     35  C   UNL     1      -3.821   0.355  -1.458  0.00  0.00    +0.001 A 
ATOM     36  C   UNL     1      -4.801   0.191  -0.480  0.00  0.00    +0.002 A 
ATOM     40  H   UNL     1      -4.256   3.089   2.542  0.00  0.00    +0.165 HD
ENDBRANCH  24  25
ENDBRANCH  19  24
ENDBRANCH   7  19
ENDBRANCH  11  16
BRANCH  15  17
ATOM     17  C   UNL     1       4.497  -2.021  -0.304  0.00  0.00    +0.102 C 
BRANCH  17  18
ATOM     18  C   UNL     1       5.782  -1.270   0.089  0.00  0.00    -0.029 C 
ATOM     20  C   UNL     1       5.464  -0.404   1.322  0.00  0.00    +0.011 C 
ATOM     21  C   UNL     1       6.908  -2.251   0.457  0.00  0.00    +0.011 C 
ATOM     22  C   UNL     1       6.257  -0.349  -1.048  0.00  0.00    +0.011 C 
ENDBRANCH  17  18
ENDBRANCH  15  17
TORSDOF 9
