REMARK  Name = 75536739
REMARK  10 active torsions:
REMARK  status: ('A' for Active; 'I' for Inactive)
REMARK    1  A    between atoms: O_2  and  C_9
REMARK    2  A    between atoms: N_4  and  C_8
REMARK    3  A    between atoms: N_4  and  C_13
REMARK    4  A    between atoms: N_5  and  C_12
REMARK    5  A    between atoms: N_6  and  C_18
REMARK    6  A    between atoms: C_10  and  C_12
REMARK    7  A    between atoms: C_13  and  C_14
REMARK    8  A    between atoms: C_18  and  C_21
REMARK    9  A    between atoms: C_18  and  C_22
REMARK   10  A    between atoms: C_19  and  C_24
REMARK                            x       y       z     vdW  Elec       q    Type
REMARK                         _______ _______ _______ _____ _____    ______ ____
ROOT
ATOM      1  O   UNL     1       3.535   0.419   1.051  0.00  0.00    -0.371 OA
ATOM      8  C   UNL     1       2.193  -1.530   0.970  0.00  0.00    +0.111 C 
ATOM      9  C   UNL     1       3.163  -1.583  -0.197  0.00  0.00    +0.164 C 
ATOM     10  C   UNL     1       3.834  -0.210  -0.209  0.00  0.00    +0.165 C 
ATOM     11  C   UNL     1       2.870  -0.530   1.893  0.00  0.00    +0.181 C 
ENDROOT
BRANCH   9   2
ATOM      2  O   UNL     1       4.145  -2.579   0.098  0.00  0.00    -0.388 OA
ATOM     26  H   UNL     1       4.782  -2.585  -0.637  0.00  0.00    +0.210 HD
ENDBRANCH   9   2
BRANCH   8   4
ATOM      4  N   UNL     1       0.878  -1.044   0.556  0.00  0.00    -0.305 NA
ATOM     25  H   UNL     1       0.413  -0.608   1.352  0.00  0.00    +0.123 HD
BRANCH   4  13
ATOM     13  C   UNL     1       0.043  -2.137   0.072  0.00  0.00    +0.116 C 
BRANCH  13  14
ATOM     14  C   UNL     1      -1.311  -1.653  -0.374  0.00  0.00    -0.032 A 
ATOM     16  C   UNL     1      -2.281  -1.323   0.571  0.00  0.00    +0.023 A 
ATOM     17  C   UNL     1      -1.593  -1.535  -1.735  0.00  0.00    +0.005 A 
ATOM     19  C   UNL     1      -3.535  -0.873   0.156  0.00  0.00    +0.052 A 
ATOM     20  C   UNL     1      -2.847  -1.085  -2.150  0.00  0.00    +0.002 A 
ATOM     23  C   UNL     1      -3.818  -0.754  -1.205  0.00  0.00    +0.019 A 
BRANCH  19  24
ATOM      7  N   UNL     1      -5.338  -0.258   1.910  0.00  0.00    -0.191 NA
ATOM     24  C   UNL     1      -4.530  -0.534   1.124  0.00  0.00    +0.099 C 
ENDBRANCH  19  24
ENDBRANCH  13  14
ENDBRANCH   4  13
ENDBRANCH   8   4
BRANCH  10  12
ATOM     12  C   UNL     1       3.341   0.699  -1.325  0.00  0.00    +0.140 C 
BRANCH  12   5
ATOM      3  O   UNL     1       2.040   2.830   0.122  0.00  0.00    -0.253 OA
ATOM      5  N   UNL     1       1.930   0.936  -1.219  0.00  0.00    -0.297 N 
ATOM      6  N   UNL     1      -0.013   1.991  -0.558  0.00  0.00    -0.297 N 
ATOM     15  C   UNL     1       1.378   1.996  -0.494  0.00  0.00    +0.300 C 
ATOM     27  H   UNL     1       1.298   0.294  -1.688  0.00  0.00    +0.150 HD
ATOM     28  H   UNL     1      -0.472   1.220  -1.033  0.00  0.00    +0.150 HD
BRANCH   6  18
ATOM     18  C   UNL     1      -0.831   2.980   0.104  0.00  0.00    +0.068 C 
ATOM     21  C   UNL     1      -2.106   3.239  -0.689  0.00  0.00    +0.027 C 
ATOM     22  C   UNL     1      -1.147   2.539   1.528  0.00  0.00    +0.027 C 
ENDBRANCH   6  18
ENDBRANCH  12   5
ENDBRANCH  10  12
TORSDOF 8
