REMARK  Name = 28961576
REMARK  9 active torsions:
REMARK  status: ('A' for Active; 'I' for Inactive)
REMARK    1  A    between atoms: O_2  and  C_8
REMARK    2  A    between atoms: O_3  and  C_15
REMARK    3  A    between atoms: N_4  and  C_6
REMARK    4  A    between atoms: N_5  and  C_14
REMARK    5  A    between atoms: N_5  and  C_16
REMARK    6  A    between atoms: C_7  and  C_14
REMARK    7  A    between atoms: C_9  and  C_15
REMARK    8  A    between atoms: C_16  and  C_17
REMARK    9  A    between atoms: C_16  and  C_18
REMARK                            x       y       z     vdW  Elec       q    Type
REMARK                         _______ _______ _______ _____ _____    ______ ____
ROOT
ATOM      1  O   UNL     1       1.089   1.375   0.804  0.00  0.00    -0.366 OA
ATOM      6  C   UNL     1      -1.124   0.524   0.601  0.00  0.00    +0.118 C 
ATOM      7  C   UNL     1       0.333   0.148   0.901  0.00  0.00    +0.152 C 
ATOM      8  C   UNL     1      -0.987   1.768  -0.264  0.00  0.00    +0.165 C 
ATOM      9  C   UNL     1       0.208   2.441   0.401  0.00  0.00    +0.174 C 
ENDROOT
BRANCH   6   4
ATOM      4  N   UNL     1      -1.959  -0.530   0.044  0.00  0.00    -0.295 NA
ATOM     10  C   UNL     1      -2.444  -1.457   1.066  0.00  0.00    +0.085 C 
ATOM     11  C   UNL     1      -3.165  -0.007  -0.597  0.00  0.00    +0.085 C 
ATOM     12  C   UNL     1      -3.565  -2.197   0.351  0.00  0.00    +0.017 C 
ATOM     13  C   UNL     1      -4.037  -1.246  -0.744  0.00  0.00    +0.017 C 
ENDBRANCH   6   4
BRANCH   8   2
ATOM      2  O   UNL     1      -0.680   1.434  -1.611  0.00  0.00    -0.388 OA
ATOM     19  H   UNL     1      -0.711   2.254  -2.132  0.00  0.00    +0.210 HD
ENDBRANCH   8   2
BRANCH   7  14
ATOM     14  C   UNL     1       0.985  -0.861  -0.037  0.00  0.00    +0.114 C 
BRANCH  14   5
ATOM      5  N   UNL     1       2.353  -1.145   0.373  0.00  0.00    -0.311 NA
ATOM     20  H   UNL     1       2.883  -0.274   0.364  0.00  0.00    +0.122 HD
BRANCH   5  16
ATOM     16  C   UNL     1       2.973  -2.117  -0.518  0.00  0.00    +0.048 C 
ATOM     17  C   UNL     1       2.516  -3.528  -0.162  0.00  0.00    +0.023 C 
ATOM     18  C   UNL     1       4.491  -1.993  -0.426  0.00  0.00    +0.023 C 
ENDBRANCH   5  16
ENDBRANCH  14   5
ENDBRANCH   7  14
BRANCH   9  15
ATOM     15  C   UNL     1       0.973   3.421  -0.469  0.00  0.00    +0.190 C 
BRANCH  15   3
ATOM      3  O   UNL     1       2.041   3.970   0.287  0.00  0.00    -0.392 OA
ATOM     21  H   UNL     1       2.510   4.595  -0.291  0.00  0.00    +0.210 HD
ENDBRANCH  15   3
ENDBRANCH   9  15
TORSDOF 7
