REMARK  Name = 45784010
REMARK  3 active torsions:
REMARK  status: ('A' for Active; 'I' for Inactive)
REMARK    1  A    between atoms: C_5  and  C_12
REMARK    2  A    between atoms: C_6  and  C_16
REMARK    3  A    between atoms: C_21  and  C_23
REMARK                            x       y       z     vdW  Elec       q    Type
REMARK                         _______ _______ _______ _____ _____    ______ ____
ROOT
ATOM      1  O   UNL     1      -3.014  -0.864  -1.978  0.00  0.00    -0.275 OA
ATOM      2  N   UNL     1      -1.699  -1.316  -0.132  0.00  0.00    -0.301 N 
ATOM      6  C   UNL     1       0.456  -2.284   0.133  0.00  0.00    +0.074 C 
ATOM      7  C   UNL     1      -0.722  -2.135  -0.839  0.00  0.00    +0.119 C 
ATOM      8  C   UNL     1      -0.246  -2.212   1.498  0.00  0.00    +0.032 C 
ATOM      9  C   UNL     1      -1.367  -1.202   1.283  0.00  0.00    +0.108 C 
ATOM     12  C   UNL     1      -2.778  -0.736  -0.775  0.00  0.00    +0.219 C 
ENDROOT
BRANCH   6  16
ATOM      3  N   UNL     1       2.845  -1.542   0.407  0.00  0.00    -0.342 N 
ATOM      4  N   UNL     1       1.456  -0.027  -0.438  0.00  0.00    -0.232 NA
ATOM     16  C   UNL     1       1.566  -1.254   0.019  0.00  0.00    +0.113 A 
ATOM     17  C   UNL     1       3.611  -0.426   0.186  0.00  0.00    +0.066 A 
ATOM     18  C   UNL     1       2.721   0.505  -0.342  0.00  0.00    +0.089 A 
ATOM     19  C   UNL     1       4.964  -0.160   0.396  0.00  0.00    +0.031 A 
ATOM     20  C   UNL     1       3.191   1.784  -0.686  0.00  0.00    +0.030 A 
ATOM     21  C   UNL     1       5.416   1.118   0.047  0.00  0.00    -0.048 A 
ATOM     22  C   UNL     1       4.547   2.074  -0.484  0.00  0.00    +0.005 A 
ATOM     23  C   UNL     1       6.855   1.464   0.247  0.00  0.00    +0.044 C 
ATOM     24  H   UNL     1       3.171  -2.419   0.791  0.00  0.00    +0.167 HD
ENDBRANCH   6  16
BRANCH  12   5
ATOM      5  C   UNL     1      -3.684   0.081   0.093  0.00  0.00    +0.075 C 
ATOM     10  C   UNL     1      -3.198   1.530   0.134  0.00  0.00    +0.013 C 
ATOM     11  C   UNL     1      -5.115  -0.016  -0.439  0.00  0.00    +0.013 C 
ATOM     13  C   UNL     1      -4.154   2.419   0.926  0.00  0.00    +0.001 C 
ATOM     14  C   UNL     1      -6.069   0.876   0.350  0.00  0.00    +0.001 C 
ATOM     15  C   UNL     1      -5.582   2.322   0.394  0.00  0.00    +0.000 C 
ENDBRANCH  12   5
TORSDOF 2
