REMARK  Name = 11885218
REMARK  5 active torsions:
REMARK  status: ('A' for Active; 'I' for Inactive)
REMARK    1  A    between atoms: S_1  and  N_6
REMARK    2  A    between atoms: S_1  and  C_19
REMARK    3  A    between atoms: S_2  and  C_30
REMARK    4  A    between atoms: S_2  and  C_31
REMARK    5  A    between atoms: C_17  and  C_20
REMARK                            x       y       z     vdW  Elec       q    Type
REMARK                         _______ _______ _______ _____ _____    ______ ____
ROOT
ATOM      5  O   UNL     1      -2.323   0.923  -1.705  0.00  0.00    -0.267 OA
ATOM      6  N   UNL     1       2.379  -0.037  -0.358  0.00  0.00    -0.176 NA
ATOM      7  N   UNL     1      -0.469   1.331  -0.351  0.00  0.00    -0.311 N 
ATOM      8  C   UNL     1       1.754   2.197  -1.281  0.00  0.00    +0.025 C 
ATOM      9  C   UNL     1       1.524   1.766   1.126  0.00  0.00    +0.052 C 
ATOM     10  C   UNL     1       1.927   2.820   0.098  0.00  0.00    +0.017 C 
ATOM     11  C   UNL     1       2.655   0.960  -1.431  0.00  0.00    +0.114 C 
ATOM     12  C   UNL     1       2.464   0.552   1.012  0.00  0.00    +0.119 C 
ATOM     13  C   UNL     1       0.272   1.873  -1.498  0.00  0.00    +0.130 C 
ATOM     14  C   UNL     1       0.082   1.337   0.933  0.00  0.00    +0.026 A 
ATOM     15  C   UNL     1      -0.656   0.946   1.984  0.00  0.00    +0.022 A 
ATOM     16  C   UNL     1      -1.791   0.909  -0.594  0.00  0.00    +0.259 A 
ATOM     17  C   UNL     1      -2.581   0.442   0.599  0.00  0.00    +0.047 A 
ATOM     18  C   UNL     1      -2.004   0.486   1.809  0.00  0.00    +0.015 A 
ENDROOT
BRANCH  17  20
ATOM     20  C   UNL     1      -3.957  -0.064   0.453  0.00  0.00    -0.013 A 
ATOM     23  C   UNL     1      -5.038   0.813   0.547  0.00  0.00    +0.010 A 
ATOM     24  C   UNL     1      -4.181  -1.422   0.221  0.00  0.00    +0.010 A 
ATOM     28  C   UNL     1      -6.340   0.334   0.409  0.00  0.00    +0.015 A 
ATOM     29  C   UNL     1      -5.484  -1.901   0.084  0.00  0.00    +0.015 A 
ATOM     30  C   UNL     1      -6.563  -1.024   0.178  0.00  0.00    +0.008 A 
BRANCH  30   2
ATOM      2  S   UNL     1      -8.227  -1.636   0.003  0.00  0.00    -0.129 S 
ATOM     31  C   UNL     1      -8.820  -0.693  -1.430  0.00  0.00    +0.090 C 
ENDBRANCH  30   2
ENDBRANCH  17  20
BRANCH   6   1
ATOM      1  S   UNL     1       3.127  -1.563  -0.555  0.00  0.00    +0.061 S 
ATOM      3  O   UNL     1       3.108  -1.922  -1.957  0.00  0.00    -0.153 OA
ATOM      4  O   UNL     1       2.620  -2.470   0.453  0.00  0.00    -0.153 OA
BRANCH   1  19
ATOM     19  C   UNL     1       4.790  -1.150  -0.127  0.00  0.00    +0.105 A 
ATOM     21  C   UNL     1       5.195  -1.255   1.194  0.00  0.00    +0.028 A 
ATOM     22  C   UNL     1       5.660  -0.727  -1.118  0.00  0.00    +0.028 A 
ATOM     25  C   UNL     1       6.508  -0.927   1.532  0.00  0.00    +0.002 A 
ATOM     26  C   UNL     1       6.973  -0.400  -0.779  0.00  0.00    +0.002 A 
ATOM     27  C   UNL     1       7.397  -0.499   0.546  0.00  0.00    +0.000 A 
ENDBRANCH   1  19
ENDBRANCH   6   1
TORSDOF 4
