REMARK  Name = 45783539
REMARK  9 active torsions:
REMARK  status: ('A' for Active; 'I' for Inactive)
REMARK    1  A    between atoms: O_3  and  C_27
REMARK    2  A    between atoms: O_3  and  C_28
REMARK    3  A    between atoms: O_4  and  C_29
REMARK    4  A    between atoms: O_4  and  C_30
REMARK    5  A    between atoms: N_5  and  C_10
REMARK    6  A    between atoms: C_11  and  C_19
REMARK    7  A    between atoms: C_20  and  C_21
REMARK    8  A    between atoms: C_22  and  C_23
REMARK    9  A    between atoms: C_28  and  C_29
REMARK                            x       y       z     vdW  Elec       q    Type
REMARK                         _______ _______ _______ _____ _____    ______ ____
ROOT
ATOM      1  O   UNL     1       1.091   2.496   1.798  0.00  0.00    -0.336 OA
ATOM      7  N   UNL     1       0.575   1.442  -0.110  0.00  0.00    -0.190 NA
ATOM      8  N   UNL     1      -0.247   2.102   1.921  0.00  0.00    -0.056 NA
ATOM     19  C   UNL     1       1.499   2.069   0.574  0.00  0.00    +0.245 A 
ATOM     22  C   UNL     1      -0.478   1.487   0.757  0.00  0.00    +0.204 A 
ENDROOT
BRANCH  22  23
ATOM      9  N   UNL     1      -4.031   0.434   1.071  0.00  0.00    -0.221 NA
ATOM     23  C   UNL     1      -1.749   0.908   0.429  0.00  0.00    +0.041 A 
ATOM     24  C   UNL     1      -1.954   0.277  -0.793  0.00  0.00    +0.018 A 
ATOM     25  C   UNL     1      -2.810   0.960   1.318  0.00  0.00    +0.126 A 
ATOM     26  C   UNL     1      -3.196  -0.276  -1.084  0.00  0.00    +0.068 A 
ATOM     27  C   UNL     1      -4.193  -0.172  -0.127  0.00  0.00    +0.215 A 
BRANCH  27   3
ATOM      3  O   UNL     1      -5.426  -0.708  -0.389  0.00  0.00    -0.474 OA
BRANCH   3  28
ATOM     28  C   UNL     1      -6.412  -0.573   0.627  0.00  0.00    +0.258 C 
BRANCH  28  29
ATOM     29  C   UNL     1      -7.706  -1.202   0.148  0.00  0.00    +0.200 C 
BRANCH  29   4
ATOM      4  O   UNL     1      -8.146  -0.525  -1.023  0.00  0.00    -0.380 OA
ATOM     30  C   UNL     1      -9.347  -1.089  -1.531  0.00  0.00    +0.194 C 
ENDBRANCH  29   4
ENDBRANCH  28  29
ENDBRANCH   3  28
ENDBRANCH  27   3
ENDBRANCH  22  23
BRANCH  19  11
ATOM      5  N   UNL     1       3.487   1.400  -0.764  0.00  0.00    -0.288 NA
ATOM     11  C   UNL     1       2.932   2.376   0.195  0.00  0.00    +0.146 C 
ATOM     12  C   UNL     1       4.486   2.119  -1.554  0.00  0.00    +0.085 C 
ATOM     13  C   UNL     1       3.083   3.740  -0.504  0.00  0.00    +0.030 C 
ATOM     16  C   UNL     1       3.787   3.437  -1.819  0.00  0.00    +0.017 C 
BRANCH   5  10
ATOM      2  O   UNL     1       4.187  -4.709  -0.768  0.00  0.00    -0.276 OA
ATOM      6  N   UNL     1       4.055  -2.651   0.301  0.00  0.00    -0.302 N 
ATOM     10  C   UNL     1       4.046   0.214  -0.119  0.00  0.00    +0.060 C 
ATOM     14  C   UNL     1       4.592  -0.753  -1.178  0.00  0.00    +0.038 C 
ATOM     15  C   UNL     1       2.975  -0.476   0.735  0.00  0.00    +0.038 C 
ATOM     17  C   UNL     1       5.094  -2.043  -0.532  0.00  0.00    +0.109 C 
ATOM     18  C   UNL     1       3.509  -1.772   1.343  0.00  0.00    +0.109 C 
ATOM     20  C   UNL     1       3.687  -3.980   0.092  0.00  0.00    +0.212 C 
ATOM     21  C   UNL     1       2.607  -4.531   0.989  0.00  0.00    +0.109 C 
ENDBRANCH   5  10
ENDBRANCH  19  11
TORSDOF 7
