REMARK  Name = 45361417
REMARK  14 active torsions:
REMARK  status: ('A' for Active; 'I' for Inactive)
REMARK    1  A    between atoms: O_2  and  C_10
REMARK    2  A    between atoms: N_5  and  C_14
REMARK    3  A    between atoms: N_6  and  C_25
REMARK    4  A    between atoms: C_7  and  C_17
REMARK    5  A    between atoms: C_9  and  C_19
REMARK    6  A    between atoms: C_13  and  C_18
REMARK    7  A    between atoms: C_18  and  C_20
REMARK    8  A    between atoms: C_18  and  C_21
REMARK    9  A    between atoms: C_22  and  C_23
REMARK   10  A    between atoms: C_23  and  C_24
REMARK   11  A    between atoms: C_24  and  C_26
REMARK   12  A    between atoms: C_24  and  C_27
REMARK   13  A    between atoms: C_24  and  C_28
REMARK   14  A    between atoms: C_25  and  C_29
REMARK                            x       y       z     vdW  Elec       q    Type
REMARK                         _______ _______ _______ _____ _____    ______ ____
ROOT
ATOM      7  C   UNL     1      -0.588   0.286   0.938  0.00  0.00    -0.027 C 
ATOM      8  C   UNL     1      -0.854  -0.736  -0.218  0.00  0.00    +0.028 C 
ATOM      9  C   UNL     1      -2.378  -1.108  -0.295  0.00  0.00    +0.012 C 
ATOM     10  C   UNL     1       0.126  -1.942  -0.140  0.00  0.00    +0.122 C 
ATOM     11  C   UNL     1       0.897   0.717   0.914  0.00  0.00    +0.007 C 
ATOM     12  C   UNL     1      -1.448   1.549   0.702  0.00  0.00    +0.009 C 
ATOM     13  C   UNL     1       1.606  -1.501  -0.059  0.00  0.00    +0.029 C 
ATOM     14  C   UNL     1      -3.239   0.176  -0.457  0.00  0.00    +0.076 C 
ATOM     15  C   UNL     1       1.859  -0.458   1.030  0.00  0.00    +0.007 C 
ATOM     16  C   UNL     1      -2.936   1.247   0.592  0.00  0.00    +0.023 C 
ATOM     17  C   UNL     1      -0.914  -0.300   2.335  0.00  0.00    +0.011 C 
ATOM     19  C   UNL     1      -2.715  -2.089  -1.431  0.00  0.00    +0.010 C 
ENDROOT
BRANCH  14   5
ATOM      4  O   UNL     1      -5.363   1.560  -1.857  0.00  0.00    -0.276 OA
ATOM      5  N   UNL     1      -4.656  -0.119  -0.415  0.00  0.00    -0.312 N 
ATOM     22  C   UNL     1      -5.599   0.603  -1.123  0.00  0.00    +0.214 C 
ATOM     35  H   UNL     1      -4.961  -0.872   0.194  0.00  0.00    +0.149 HD
BRANCH  22  23
ATOM     23  C   UNL     1      -7.017   0.100  -0.904  0.00  0.00    +0.102 C 
BRANCH  23  24
ATOM     24  C   UNL     1      -7.743   0.723   0.312  0.00  0.00    -0.029 C 
ATOM     26  C   UNL     1      -7.827   2.253   0.194  0.00  0.00    +0.011 C 
ATOM     27  C   UNL     1      -6.937   0.375   1.579  0.00  0.00    +0.011 C 
ATOM     28  C   UNL     1      -9.161   0.147   0.465  0.00  0.00    +0.011 C 
ENDBRANCH  23  24
ENDBRANCH  22  23
ENDBRANCH  14   5
BRANCH  10   2
ATOM      2  O   UNL     1       0.000  -2.735  -1.321  0.00  0.00    -0.391 OA
ATOM     36  H   UNL     1       0.213  -2.174  -2.086  0.00  0.00    +0.210 HD
ENDBRANCH  10   2
BRANCH  13  18
ATOM     18  C   UNL     1       2.545  -2.696   0.148  0.00  0.00    +0.077 C 
ATOM     20  C   UNL     1       2.187  -3.427   1.438  0.00  0.00    +0.017 C 
BRANCH  18  21
ATOM      3  O   UNL     1       4.746  -2.408   1.116  0.00  0.00    -0.276 OA
ATOM      6  N   UNL     1       4.351  -1.569  -1.010  0.00  0.00    -0.311 N 
ATOM     21  C   UNL     1       3.995  -2.222   0.161  0.00  0.00    +0.216 C 
ATOM     37  H   UNL     1       3.687  -1.501  -1.774  0.00  0.00    +0.149 HD
BRANCH   6  25
ATOM     25  C   UNL     1       5.672  -1.028  -1.232  0.00  0.00    +0.139 C 
BRANCH  25  29
ATOM      1  F   UNL     1       6.086   4.307   0.520  0.00  0.00    -0.205 F 
ATOM     29  C   UNL     1       5.782   0.394  -0.764  0.00  0.00    -0.030 A 
ATOM     30  C   UNL     1       5.492   1.440  -1.640  0.00  0.00    +0.008 A 
ATOM     31  C   UNL     1       6.175   0.670   0.545  0.00  0.00    +0.008 A 
ATOM     32  C   UNL     1       5.595   2.762  -1.207  0.00  0.00    +0.038 A 
ATOM     33  C   UNL     1       6.278   1.992   0.979  0.00  0.00    +0.038 A 
ATOM     34  C   UNL     1       5.988   3.038   0.103  0.00  0.00    +0.123 A 
ENDBRANCH  25  29
ENDBRANCH   6  25
ENDBRANCH  18  21
ENDBRANCH  13  18
TORSDOF 8
