REMARK  Name = 11911964
REMARK  3 active torsions:
REMARK  status: ('A' for Active; 'I' for Inactive)
REMARK    1  A    between atoms: C_16  and  C_19
REMARK    2  A    between atoms: C_17  and  C_20
REMARK    3  A    between atoms: C_28  and  C_33
REMARK                            x       y       z     vdW  Elec       q    Type
REMARK                         _______ _______ _______ _____ _____    ______ ____
ROOT
ATOM      2  O   UNL     1      -1.176   2.409  -1.168  0.00  0.00    -0.267 OA
ATOM      3  O   UNL     1       3.091   0.241  -2.689  0.00  0.00    -0.270 OA
ATOM      4  N   UNL     1       3.561   1.092  -0.585  0.00  0.00    -0.297 N 
ATOM      5  N   UNL     1       0.722   2.236   0.178  0.00  0.00    -0.311 N 
ATOM      7  C   UNL     1       2.901   3.478  -0.346  0.00  0.00    +0.027 C 
ATOM      8  C   UNL     1       2.784   1.976   1.601  0.00  0.00    +0.054 C 
ATOM      9  C   UNL     1       3.147   3.392   1.156  0.00  0.00    +0.018 C 
ATOM     10  C   UNL     1       3.772   2.450  -1.092  0.00  0.00    +0.113 C 
ATOM     11  C   UNL     1       1.404   3.270  -0.613  0.00  0.00    +0.130 C 
ATOM     12  C   UNL     1       3.690   0.958   0.876  0.00  0.00    +0.117 C 
ATOM     13  C   UNL     1       1.331   1.664   1.300  0.00  0.00    +0.027 A 
ATOM     14  C   UNL     1       0.649   0.807   2.076  0.00  0.00    +0.022 A 
ATOM     15  C   UNL     1      -0.601   1.923  -0.193  0.00  0.00    +0.260 A 
ATOM     16  C   UNL     1       3.182   0.068  -1.473  0.00  0.00    +0.247 C 
ATOM     17  C   UNL     1      -1.323   0.935   0.680  0.00  0.00    +0.053 A 
ATOM     18  C   UNL     1      -0.702   0.438   1.759  0.00  0.00    +0.016 A 
ENDROOT
BRANCH  17  20
ATOM      1  S   UNL     1      -2.929  -0.825  -0.624  0.00  0.00    -0.088 S 
ATOM     20  C   UNL     1      -2.660   0.535   0.375  0.00  0.00    +0.026 A 
ATOM     23  C   UNL     1      -3.846   1.107   0.784  0.00  0.00    +0.024 A 
ATOM     24  C   UNL     1      -5.005   0.428   0.276  0.00  0.00    -0.010 A 
ATOM     25  C   UNL     1      -4.643  -0.663  -0.520  0.00  0.00    +0.020 A 
ATOM     29  C   UNL     1      -6.383   0.695   0.459  0.00  0.00    +0.009 A 
ATOM     30  C   UNL     1      -5.612  -1.484  -1.130  0.00  0.00    +0.015 A 
ATOM     31  C   UNL     1      -7.347  -0.117  -0.144  0.00  0.00    +0.001 A 
ATOM     32  C   UNL     1      -6.963  -1.195  -0.930  0.00  0.00    +0.001 A 
ENDBRANCH  17  20
BRANCH  16  19
ATOM     19  C   UNL     1       2.862  -1.230  -0.893  0.00  0.00    +0.037 A 
ATOM     21  C   UNL     1       1.554  -1.513  -0.508  0.00  0.00    +0.014 A 
ATOM     22  C   UNL     1       3.866  -2.180  -0.727  0.00  0.00    +0.014 A 
ATOM     26  C   UNL     1       1.248  -2.756   0.046  0.00  0.00    +0.019 A 
ATOM     27  C   UNL     1       3.559  -3.423  -0.173  0.00  0.00    +0.019 A 
ATOM     28  C   UNL     1       2.251  -3.711   0.213  0.00  0.00    +0.052 A 
BRANCH  28  33
ATOM      6  N   UNL     1       1.682  -6.018   1.247  0.00  0.00    -0.191 NA
ATOM     33  C   UNL     1       1.937  -4.984   0.783  0.00  0.00    +0.099 C 
ENDBRANCH  28  33
ENDBRANCH  16  19
TORSDOF 3
