REMARK  Name = 11887495
REMARK  5 active torsions:
REMARK  status: ('A' for Active; 'I' for Inactive)
REMARK    1  A    between atoms: O_4  and  C_28
REMARK    2  A    between atoms: O_4  and  C_32
REMARK    3  A    between atoms: N_7  and  C_18
REMARK    4  A    between atoms: C_17  and  C_20
REMARK    5  A    between atoms: C_24  and  C_28
REMARK                            x       y       z     vdW  Elec       q    Type
REMARK                         _______ _______ _______ _____ _____    ______ ____
ROOT
ATOM      1  O   UNL     1      -0.186   3.287   1.075  0.00  0.00    -0.266 OA
ATOM      2  O   UNL     1      -3.515  -0.251   2.855  0.00  0.00    -0.270 OA
ATOM      5  N   UNL     1      -4.303   0.484   0.778  0.00  0.00    -0.297 N 
ATOM      6  N   UNL     1      -2.011   2.476  -0.138  0.00  0.00    -0.310 N 
ATOM      8  C   UNL     1      -4.438   2.956   0.526  0.00  0.00    +0.027 C 
ATOM      9  C   UNL     1      -3.961   1.551  -1.438  0.00  0.00    +0.054 C 
ATOM     10  C   UNL     1      -4.731   2.781  -0.960  0.00  0.00    +0.018 C 
ATOM     11  C   UNL     1      -4.890   1.712   1.312  0.00  0.00    +0.113 C 
ATOM     12  C   UNL     1      -2.942   3.240   0.705  0.00  0.00    +0.130 C 
ATOM     13  C   UNL     1      -4.454   0.305  -0.675  0.00  0.00    +0.117 C 
ATOM     14  C   UNL     1      -2.469   1.724  -1.225  0.00  0.00    +0.027 A 
ATOM     15  C   UNL     1      -1.594   1.128  -2.052  0.00  0.00    +0.024 A 
ATOM     16  C   UNL     1      -0.637   2.622   0.141  0.00  0.00    +0.273 A 
ATOM     17  C   UNL     1      -3.644  -0.395   1.640  0.00  0.00    +0.247 C 
ATOM     18  C   UNL     1       0.304   1.920  -0.788  0.00  0.00    +0.099 A 
ATOM     19  C   UNL     1      -0.180   1.229  -1.826  0.00  0.00    +0.030 A 
ENDROOT
BRANCH  17  20
ATOM     20  C   UNL     1      -3.028  -1.593   1.061  0.00  0.00    +0.037 A 
ATOM     21  C   UNL     1      -1.707  -1.550   0.622  0.00  0.00    +0.021 A 
ATOM     22  C   UNL     1      -3.765  -2.766   0.954  0.00  0.00    +0.013 A 
ATOM     23  C   UNL     1      -1.102  -2.689   0.065  0.00  0.00    -0.017 A 
ATOM     25  C   UNL     1      -3.181  -3.907   0.403  0.00  0.00    +0.009 A 
ATOM     26  C   UNL     1      -1.850  -3.885  -0.046  0.00  0.00    -0.018 A 
ATOM     27  C   UNL     1       0.228  -2.667  -0.383  0.00  0.00    +0.008 A 
ATOM     29  C   UNL     1      -1.246  -5.024  -0.602  0.00  0.00    +0.008 A 
ATOM     30  C   UNL     1       0.813  -3.808  -0.934  0.00  0.00    +0.001 A 
ATOM     31  C   UNL     1       0.077  -4.984  -1.043  0.00  0.00    +0.001 A 
ENDBRANCH  17  20
BRANCH  18   7
ATOM      3  O   UNL     1       2.308  -0.028  -1.429  0.00  0.00    -0.272 OA
ATOM      7  N   UNL     1       1.641   2.022  -0.541  0.00  0.00    -0.278 N 
ATOM     24  C   UNL     1       2.563   1.039  -0.877  0.00  0.00    +0.255 C 
ATOM     38  H   UNL     1       1.933   2.747   0.110  0.00  0.00    +0.155 HD
BRANCH  24  28
ATOM     28  C   UNL     1       3.969   1.436  -0.478  0.00  0.00    +0.324 C 
BRANCH  28   4
ATOM      4  O   UNL     1       4.894   0.434  -0.845  0.00  0.00    -0.483 OA
BRANCH   4  32
ATOM     32  C   UNL     1       6.030   0.318  -0.080  0.00  0.00    +0.121 A 
ATOM     33  C   UNL     1       6.551   1.442   0.546  0.00  0.00    +0.045 A 
ATOM     34  C   UNL     1       6.638  -0.922   0.056  0.00  0.00    +0.045 A 
ATOM     35  C   UNL     1       7.704   1.324   1.322  0.00  0.00    +0.004 A 
ATOM     36  C   UNL     1       7.790  -1.041   0.833  0.00  0.00    +0.004 A 
ATOM     37  C   UNL     1       8.323   0.082   1.466  0.00  0.00    +0.000 A 
ENDBRANCH   4  32
ENDBRANCH  28   4
ENDBRANCH  24  28
ENDBRANCH  18   7
TORSDOF 5
