REMARK  Name = 25313526
REMARK  11 active torsions:
REMARK  status: ('A' for Active; 'I' for Inactive)
REMARK    1  A    between atoms: O_4  and  C_27
REMARK    2  A    between atoms: O_4  and  C_33
REMARK    3  A    between atoms: O_5  and  C_31
REMARK    4  A    between atoms: O_5  and  C_34
REMARK    5  A    between atoms: N_7  and  C_20
REMARK    6  A    between atoms: C_9  and  C_15
REMARK    7  A    between atoms: C_10  and  C_14
REMARK    8  A    between atoms: C_14  and  C_16
REMARK    9  A    between atoms: C_15  and  C_17
REMARK   10  A    between atoms: C_19  and  C_21
REMARK   11  A    between atoms: C_20  and  C_22
REMARK                            x       y       z     vdW  Elec       q    Type
REMARK                         _______ _______ _______ _____ _____    ______ ____
ROOT
ATOM      6  N   UNL     1       6.277  -1.333   0.957  0.00  0.00    -0.316 NA
ATOM      9  C   UNL     1       3.643  -0.084   0.500  0.00  0.00    +0.004 C 
ATOM     10  C   UNL     1       4.067  -1.411  -0.173  0.00  0.00    +0.012 C 
ATOM     11  C   UNL     1       4.450   0.102   1.796  0.00  0.00    +0.019 C 
ATOM     12  C   UNL     1       5.594  -1.508  -0.326  0.00  0.00    +0.085 C 
ATOM     13  C   UNL     1       5.954  -0.048   1.574  0.00  0.00    +0.081 C 
ATOM     35  H   UNL     1       7.285  -1.395   0.814  0.00  0.00    +0.122 HD
ENDROOT
BRANCH  10  14
ATOM     14  C   UNL     1       3.376  -1.649  -1.516  0.00  0.00    +0.064 C 
BRANCH  14  16
ATOM      3  O   UNL     1      -0.191  -1.379  -1.921  0.00  0.00    -0.354 OA
ATOM      8  N   UNL     1       1.112  -1.250  -2.385  0.00  0.00    -0.083 NA
ATOM     16  C   UNL     1       1.882  -1.653  -1.370  0.00  0.00    +0.085 A 
ATOM     18  C   UNL     1       1.127  -2.043  -0.250  0.00  0.00    +0.076 A 
ATOM     19  C   UNL     1      -0.169  -1.852  -0.649  0.00  0.00    +0.167 A 
BRANCH  19  21
ATOM      1  F   UNL     1      -5.140  -2.577   1.741  0.00  0.00    -0.205 F 
ATOM     21  C   UNL     1      -1.451  -2.038  -0.033  0.00  0.00    +0.020 A 
ATOM     24  C   UNL     1      -1.587  -1.902   1.349  0.00  0.00    +0.014 A 
ATOM     25  C   UNL     1      -2.561  -2.356  -0.815  0.00  0.00    +0.014 A 
ATOM     29  C   UNL     1      -2.833  -2.084   1.948  0.00  0.00    +0.039 A 
ATOM     30  C   UNL     1      -3.807  -2.538  -0.216  0.00  0.00    +0.039 A 
ATOM     32  C   UNL     1      -3.943  -2.402   1.165  0.00  0.00    +0.123 A 
ENDBRANCH  19  21
ENDBRANCH  14  16
ENDBRANCH  10  14
BRANCH   9  15
ATOM     15  C   UNL     1       3.776   1.146  -0.406  0.00  0.00    +0.099 C 
BRANCH  15  17
ATOM      2  O   UNL     1       3.296   3.149   0.864  0.00  0.00    -0.276 OA
ATOM      7  N   UNL     1       1.661   2.260  -0.528  0.00  0.00    -0.311 N 
ATOM     17  C   UNL     1       2.915   2.300   0.062  0.00  0.00    +0.214 C 
ATOM     36  H   UNL     1       1.460   1.538  -1.214  0.00  0.00    +0.149 HD
BRANCH   7  20
ATOM     20  C   UNL     1       0.632   3.239  -0.261  0.00  0.00    +0.139 C 
BRANCH  20  22
ATOM     22  C   UNL     1      -0.746   2.656  -0.389  0.00  0.00    -0.027 A 
ATOM     23  C   UNL     1      -1.488   2.364   0.755  0.00  0.00    +0.054 A 
ATOM     26  C   UNL     1      -1.283   2.406  -1.652  0.00  0.00    +0.009 A 
ATOM     27  C   UNL     1      -2.768   1.822   0.636  0.00  0.00    +0.162 A 
ATOM     28  C   UNL     1      -2.563   1.864  -1.770  0.00  0.00    +0.050 A 
ATOM     31  C   UNL     1      -3.305   1.572  -0.626  0.00  0.00    +0.162 A 
BRANCH  27   4
ATOM      4  O   UNL     1      -3.483   1.541   1.761  0.00  0.00    -0.491 OA
ATOM     33  C   UNL     1      -2.861   1.827   3.013  0.00  0.00    +0.277 C 
ENDBRANCH  27   4
BRANCH  31   5
ATOM      5  O   UNL     1      -4.553   1.041  -0.755  0.00  0.00    -0.491 OA
ATOM     34  C   UNL     1      -5.028   0.817  -2.081  0.00  0.00    +0.277 C 
ENDBRANCH  31   5
ENDBRANCH  20  22
ENDBRANCH   7  20
ENDBRANCH  15  17
ENDBRANCH   9  15
TORSDOF 9
