REMARK  Name = 51136947
REMARK  5 active torsions:
REMARK  status: ('A' for Active; 'I' for Inactive)
REMARK    1  A    between atoms: N_2  and  C_14
REMARK    2  A    between atoms: N_3  and  C_19
REMARK    3  A    between atoms: C_10  and  C_15
REMARK    4  A    between atoms: C_14  and  C_16
REMARK    5  A    between atoms: C_20  and  C_23
REMARK                            x       y       z     vdW  Elec       q    Type
REMARK                         _______ _______ _______ _____ _____    ______ ____
ROOT
ATOM      2  N   UNL     1      -2.813  -1.356  -0.681  0.00  0.00    -0.284 NA
ATOM     10  C   UNL     1      -2.261  -1.947   0.555  0.00  0.00    +0.146 C 
ATOM     11  C   UNL     1      -2.433  -3.466   0.373  0.00  0.00    +0.030 C 
ATOM     12  C   UNL     1      -3.826  -2.292  -1.169  0.00  0.00    +0.085 C 
ATOM     13  C   UNL     1      -3.143  -3.629  -0.963  0.00  0.00    +0.017 C 
ENDROOT
BRANCH  10  15
ATOM      1  O   UNL     1      -0.557  -0.926   1.979  0.00  0.00    -0.336 OA
ATOM      4  N   UNL     1       0.227  -1.708   0.032  0.00  0.00    -0.190 NA
ATOM      6  N   UNL     1       0.818  -0.657   1.976  0.00  0.00    -0.056 NA
ATOM     15  C   UNL     1      -0.821  -1.546   0.799  0.00  0.00    +0.245 A 
ATOM     20  C   UNL     1       1.209  -1.147   0.796  0.00  0.00    +0.207 A 
BRANCH  20  23
ATOM      7  N   UNL     1       4.225  -0.964  -1.393  0.00  0.00    -0.220 NA
ATOM      8  N   UNL     1       1.929  -0.982  -1.966  0.00  0.00    -0.342 N 
ATOM      9  N   UNL     1       4.912  -1.074   0.914  0.00  0.00    -0.243 NA
ATOM     23  C   UNL     1       2.571  -1.093   0.351  0.00  0.00    +0.080 A 
ATOM     26  C   UNL     1       2.943  -1.014  -0.976  0.00  0.00    +0.130 A 
ATOM     27  C   UNL     1       3.609  -1.121   1.261  0.00  0.00    +0.127 A 
ATOM     28  C   UNL     1       5.145  -0.997  -0.410  0.00  0.00    +0.223 A 
ATOM     29  H   UNL     1       2.244  -0.911  -2.927  0.00  0.00    +0.144 HD
ATOM     30  H   UNL     1       1.066  -1.482  -1.798  0.00  0.00    +0.144 HD
ENDBRANCH  20  23
ENDBRANCH  10  15
BRANCH   2  14
ATOM     14  C   UNL     1      -3.352  -0.016  -0.486  0.00  0.00    +0.159 C 
BRANCH  14  16
ATOM      3  N   UNL     1      -2.074   1.850   0.614  0.00  0.00    -0.330 N 
ATOM      5  N   UNL     1      -1.405   1.266  -1.423  0.00  0.00    -0.231 NA
ATOM     16  C   UNL     1      -2.266   1.026  -0.460  0.00  0.00    +0.125 A 
ATOM     17  C   UNL     1      -1.018   2.676   0.325  0.00  0.00    +0.069 A 
ATOM     18  C   UNL     1      -0.618   2.292  -0.952  0.00  0.00    +0.089 A 
ATOM     19  C   UNL     1      -2.844   1.854   1.838  0.00  0.00    +0.150 C 
ATOM     21  C   UNL     1      -0.398   3.696   1.048  0.00  0.00    +0.028 A 
ATOM     22  C   UNL     1       0.464   2.953  -1.558  0.00  0.00    +0.030 A 
ATOM     24  C   UNL     1       0.676   4.342   0.429  0.00  0.00    +0.002 A 
ATOM     25  C   UNL     1       1.101   3.979  -0.851  0.00  0.00    +0.002 A 
ENDBRANCH  14  16
ENDBRANCH   2  14
TORSDOF 4
