REMARK  Name = 26744421
REMARK  5 active torsions:
REMARK  status: ('A' for Active; 'I' for Inactive)
REMARK    1  A    between atoms: O_2  and  C_14
REMARK    2  A    between atoms: N_4  and  C_10
REMARK    3  A    between atoms: C_7  and  C_10
REMARK    4  A    between atoms: C_11  and  C_15
REMARK    5  A    between atoms: C_16  and  C_17
REMARK                            x       y       z     vdW  Elec       q    Type
REMARK                         _______ _______ _______ _____ _____    ______ ____
ROOT
ATOM      3  O   UNL     1      -0.313   1.741  -1.740  0.00  0.00    -0.336 OA
ATOM      5  N   UNL     1       0.114   0.404   0.005  0.00  0.00    -0.190 NA
ATOM      6  N   UNL     1       1.081   1.614  -1.678  0.00  0.00    -0.056 NA
ATOM     15  C   UNL     1      -0.804   0.998  -0.714  0.00  0.00    +0.245 A 
ATOM     16  C   UNL     1       1.254   0.811  -0.624  0.00  0.00    +0.202 A 
ENDROOT
BRANCH  16  17
ATOM      1  F   UNL     1       6.287  -0.788   1.126  0.00  0.00    -0.205 F 
ATOM     17  C   UNL     1       2.551   0.399  -0.173  0.00  0.00    +0.023 A 
ATOM     18  C   UNL     1       2.671  -0.440   0.935  0.00  0.00    +0.014 A 
ATOM     19  C   UNL     1       3.694   0.836  -0.842  0.00  0.00    +0.014 A 
ATOM     20  C   UNL     1       3.933  -0.841   1.374  0.00  0.00    +0.039 A 
ATOM     21  C   UNL     1       4.956   0.435  -0.404  0.00  0.00    +0.039 A 
ATOM     22  C   UNL     1       5.075  -0.403   0.705  0.00  0.00    +0.123 A 
ENDBRANCH  16  17
BRANCH  15  11
ATOM      4  N   UNL     1      -2.795  -0.270   0.077  0.00  0.00    -0.289 NA
ATOM     11  C   UNL     1      -2.311   0.970  -0.563  0.00  0.00    +0.148 C 
ATOM     12  C   UNL     1      -4.023   0.082   0.787  0.00  0.00    +0.116 C 
ATOM     13  C   UNL     1      -2.841   2.107   0.330  0.00  0.00    +0.061 C 
ATOM     14  C   UNL     1      -3.648   1.410   1.418  0.00  0.00    +0.130 C 
BRANCH  14   2
ATOM      2  O   UNL     1      -4.791   2.170   1.760  0.00  0.00    -0.390 OA
ATOM     23  H   UNL     1      -4.482   3.033   2.085  0.00  0.00    +0.210 HD
ENDBRANCH  14   2
BRANCH   4  10
ATOM     10  C   UNL     1      -3.001  -1.361  -0.866  0.00  0.00    +0.088 C 
BRANCH  10   7
ATOM      7  C   UNL     1      -2.971  -2.688  -0.178  0.00  0.00    +0.003 C 
ATOM      8  C   UNL     1      -2.467  -3.889  -0.923  0.00  0.00    +0.005 C 
ATOM      9  C   UNL     1      -1.649  -3.296   0.187  0.00  0.00    +0.005 C 
ENDBRANCH  10   7
ENDBRANCH   4  10
ENDBRANCH  15  11
TORSDOF 5
