REMARK  Name = 45783550
REMARK  9 active torsions:
REMARK  status: ('A' for Active; 'I' for Inactive)
REMARK    1  A    between atoms: O_3  and  C_26
REMARK    2  A    between atoms: O_3  and  C_27
REMARK    3  A    between atoms: O_4  and  C_28
REMARK    4  A    between atoms: O_4  and  C_29
REMARK    5  A    between atoms: N_5  and  C_13
REMARK    6  A    between atoms: C_9  and  C_14
REMARK    7  A    between atoms: C_13  and  C_15
REMARK    8  A    between atoms: C_18  and  C_21
REMARK    9  A    between atoms: C_27  and  C_28
REMARK                            x       y       z     vdW  Elec       q    Type
REMARK                         _______ _______ _______ _____ _____    ______ ____
ROOT
ATOM      2  O   UNL     1      -1.935   0.535  -2.115  0.00  0.00    -0.336 OA
ATOM      6  N   UNL     1      -1.089   1.175  -0.142  0.00  0.00    -0.190 NA
ATOM      7  N   UNL     1      -0.575   0.202  -2.147  0.00  0.00    -0.056 NA
ATOM     14  C   UNL     1      -2.154   1.103  -0.900  0.00  0.00    +0.245 A 
ATOM     18  C   UNL     1      -0.145   0.610  -0.949  0.00  0.00    +0.204 A 
ENDROOT
BRANCH  18  21
ATOM      8  N   UNL     1       3.467  -0.271  -1.024  0.00  0.00    -0.221 NA
ATOM     21  C   UNL     1       1.219   0.469  -0.529  0.00  0.00    +0.041 A 
ATOM     23  C   UNL     1       1.631   0.906   0.725  0.00  0.00    +0.018 A 
ATOM     24  C   UNL     1       2.167  -0.108  -1.359  0.00  0.00    +0.126 A 
ATOM     25  C   UNL     1       2.960   0.755   1.105  0.00  0.00    +0.068 A 
ATOM     26  C   UNL     1       3.830   0.166   0.203  0.00  0.00    +0.215 A 
BRANCH  26   3
ATOM      3  O   UNL     1       5.145   0.006   0.554  0.00  0.00    -0.474 OA
BRANCH   3  27
ATOM     27  C   UNL     1       5.995  -0.605  -0.409  0.00  0.00    +0.258 C 
BRANCH  27  28
ATOM     28  C   UNL     1       7.404  -0.673   0.147  0.00  0.00    +0.200 C 
BRANCH  28   4
ATOM      4  O   UNL     1       7.865   0.647   0.407  0.00  0.00    -0.380 OA
ATOM     29  C   UNL     1       9.177   0.643   0.952  0.00  0.00    +0.194 C 
ENDBRANCH  28   4
ENDBRANCH  27  28
ENDBRANCH   3  27
ENDBRANCH  26   3
ENDBRANCH  18  21
BRANCH  14   9
ATOM      5  N   UNL     1      -4.133   0.928   0.599  0.00  0.00    -0.287 NA
ATOM      9  C   UNL     1      -3.570   1.557  -0.613  0.00  0.00    +0.146 C 
ATOM     10  C   UNL     1      -3.666   3.071  -0.348  0.00  0.00    +0.030 C 
ATOM     11  C   UNL     1      -4.351   3.196   1.006  0.00  0.00    +0.017 C 
ATOM     12  C   UNL     1      -5.094   1.883   1.152  0.00  0.00    +0.085 C 
BRANCH   5  13
ATOM     13  C   UNL     1      -4.738  -0.373   0.342  0.00  0.00    +0.123 C 
BRANCH  13  15
ATOM      1  F   UNL     1      -2.934  -0.987   2.439  0.00  0.00    -0.205 F 
ATOM     15  C   UNL     1      -3.703  -1.462   0.244  0.00  0.00    +0.002 A 
ATOM     16  C   UNL     1      -2.846  -1.712   1.315  0.00  0.00    +0.128 A 
ATOM     17  C   UNL     1      -3.604  -2.223  -0.921  0.00  0.00    +0.008 A 
ATOM     19  C   UNL     1      -1.889  -2.722   1.222  0.00  0.00    +0.038 A 
ATOM     20  C   UNL     1      -2.647  -3.233  -1.014  0.00  0.00    +0.000 A 
ATOM     22  C   UNL     1      -1.789  -3.483   0.057  0.00  0.00    +0.003 A 
ENDBRANCH  13  15
ENDBRANCH   5  13
ENDBRANCH  14   9
TORSDOF 8
