REMARK  Name = 38029318
REMARK  14 active torsions:
REMARK  status: ('A' for Active; 'I' for Inactive)
REMARK    1  A    between atoms: S_1  and  N_5
REMARK    2  A    between atoms: S_1  and  C_22
REMARK    3  A    between atoms: N_5  and  C_16
REMARK    4  A    between atoms: N_6  and  C_23
REMARK    5  A    between atoms: C_9  and  C_13
REMARK    6  A    between atoms: C_10  and  C_16
REMARK    7  A    between atoms: C_12  and  C_17
REMARK    8  A    between atoms: C_13  and  C_18
REMARK    9  A    between atoms: C_13  and  C_19
REMARK   10  A    between atoms: C_14  and  C_20
REMARK   11  A    between atoms: C_17  and  C_21
REMARK   12  A    between atoms: C_23  and  C_26
REMARK   13  A    between atoms: C_29  and  C_35
REMARK   14  A    between atoms: C_34  and  C_36
REMARK                            x       y       z     vdW  Elec       q    Type
REMARK                         _______ _______ _______ _____ _____    ______ ____
ROOT
ATOM      9  C   UNL     1      -2.225  -0.683  -1.335  0.00  0.00    +0.000 C 
ATOM     10  C   UNL     1      -3.752  -0.802  -1.099  0.00  0.00    +0.030 C 
ATOM     11  C   UNL     1      -1.602  -2.075  -1.521  0.00  0.00    +0.012 C 
ATOM     12  C   UNL     1      -1.839  -2.987  -0.303  0.00  0.00    +0.023 C 
ATOM     14  C   UNL     1      -3.282  -2.949   0.157  0.00  0.00    -0.073 C 
ATOM     15  C   UNL     1      -4.125  -1.972  -0.220  0.00  0.00    -0.023 C 
ATOM     20  C   UNL     1      -3.746  -4.085   1.025  0.00  0.00    +0.039 C 
ENDROOT
BRANCH   9  13
ATOM     13  C   UNL     1      -1.903   0.197  -2.547  0.00  0.00    -0.013 C 
ATOM     18  C   UNL     1      -0.395   0.379  -2.686  0.00  0.00    +0.007 C 
ATOM     19  C   UNL     1      -2.494  -0.409  -3.816  0.00  0.00    +0.007 C 
ENDBRANCH   9  13
BRANCH  10  16
ATOM     16  C   UNL     1      -4.322   0.490  -0.501  0.00  0.00    +0.113 C 
BRANCH  16   5
ATOM      5  N   UNL     1      -3.761   0.684   0.846  0.00  0.00    -0.189 NA
ATOM     37  H   UNL     1      -3.899  -0.080   1.519  0.00  0.00    +0.148 HD
BRANCH   5   1
ATOM      1  S   UNL     1      -3.542   2.256   1.464  0.00  0.00    +0.058 S 
ATOM      3  O   UNL     1      -3.536   2.203   2.914  0.00  0.00    -0.153 OA
ATOM      4  O   UNL     1      -4.433   3.167   0.771  0.00  0.00    -0.153 OA
BRANCH   1  22
ATOM     22  C   UNL     1      -1.901   2.629   0.925  0.00  0.00    +0.105 A 
ATOM     24  C   UNL     1      -1.694   3.240  -0.311  0.00  0.00    +0.030 A 
ATOM     25  C   UNL     1      -0.811   2.311   1.737  0.00  0.00    +0.030 A 
ATOM     27  C   UNL     1      -0.399   3.534  -0.736  0.00  0.00    +0.021 A 
ATOM     28  C   UNL     1       0.484   2.606   1.312  0.00  0.00    +0.021 A 
ATOM     29  C   UNL     1       0.691   3.217   0.075  0.00  0.00    +0.052 A 
BRANCH  29  35
ATOM      7  N   UNL     1       3.096   3.763  -0.715  0.00  0.00    -0.191 NA
ATOM     35  C   UNL     1       2.018   3.518  -0.361  0.00  0.00    +0.099 C 
ENDBRANCH  29  35
ENDBRANCH   1  22
ENDBRANCH   5   1
ENDBRANCH  16   5
ENDBRANCH  10  16
BRANCH  12  17
ATOM     17  C   UNL     1      -0.887  -2.634   0.845  0.00  0.00    +0.103 C 
BRANCH  17  21
ATOM      2  O   UNL     1       0.862  -3.704  -0.439  0.00  0.00    -0.276 OA
ATOM      6  N   UNL     1       1.371  -2.758   1.621  0.00  0.00    -0.311 N 
ATOM     21  C   UNL     1       0.526  -3.101   0.576  0.00  0.00    +0.214 C 
ATOM     38  H   UNL     1       0.996  -2.245   2.414  0.00  0.00    +0.149 HD
BRANCH   6  23
ATOM     23  C   UNL     1       2.780  -3.079   1.635  0.00  0.00    +0.139 C 
BRANCH  23  26
ATOM     26  C   UNL     1       3.610  -1.994   1.014  0.00  0.00    -0.030 A 
ATOM     30  C   UNL     1       4.408  -2.274  -0.095  0.00  0.00    +0.006 A 
ATOM     31  C   UNL     1       3.585  -0.705   1.548  0.00  0.00    +0.006 A 
ATOM     32  C   UNL     1       5.179  -1.265  -0.672  0.00  0.00    +0.019 A 
ATOM     33  C   UNL     1       4.356   0.304   0.971  0.00  0.00    +0.019 A 
ATOM     34  C   UNL     1       5.154   0.024  -0.139  0.00  0.00    +0.052 A 
BRANCH  34  36
ATOM      8  N   UNL     1       6.586   1.897  -1.210  0.00  0.00    -0.191 NA
ATOM     36  C   UNL     1       5.944   1.057  -0.730  0.00  0.00    +0.099 C 
ENDBRANCH  34  36
ENDBRANCH  23  26
ENDBRANCH   6  23
ENDBRANCH  17  21
ENDBRANCH  12  17
TORSDOF 11
