REMARK  Name = 44716866
REMARK  13 active torsions:
REMARK  status: ('A' for Active; 'I' for Inactive)
REMARK    1  A    between atoms: O_2  and  C_15
REMARK    2  A    between atoms: O_2  and  C_24
REMARK    3  A    between atoms: O_3  and  C_16
REMARK    4  A    between atoms: O_4  and  C_20
REMARK    5  A    between atoms: N_7  and  C_25
REMARK    6  A    between atoms: N_8  and  C_26
REMARK    7  A    between atoms: C_9  and  C_19
REMARK    8  A    between atoms: C_11  and  C_20
REMARK    9  A    between atoms: C_11  and  C_21
REMARK   10  A    between atoms: C_12  and  C_22
REMARK   11  A    between atoms: C_22  and  C_23
REMARK   12  A    between atoms: C_25  and  C_27
REMARK   13  A    between atoms: C_26  and  C_28
REMARK                            x       y       z     vdW  Elec       q    Type
REMARK                         _______ _______ _______ _____ _____    ______ ____
ROOT
ATOM      9  C   UNL     1      -0.619   1.560   0.550  0.00  0.00    -0.023 C 
ATOM     10  C   UNL     1      -1.129   1.363  -0.930  0.00  0.00    +0.007 C 
ATOM     11  C   UNL     1      -2.646   0.972  -1.109  0.00  0.00    +0.031 C 
ATOM     12  C   UNL     1       0.964   1.623   0.489  0.00  0.00    +0.032 C 
ATOM     13  C   UNL     1      -1.048   0.325   1.387  0.00  0.00    +0.011 C 
ATOM     14  C   UNL     1      -0.650   2.518  -1.837  0.00  0.00    +0.007 C 
ATOM     15  C   UNL     1      -2.974  -0.223  -0.163  0.00  0.00    +0.186 C 
ATOM     16  C   UNL     1       1.500   2.707  -0.476  0.00  0.00    +0.119 C 
ATOM     17  C   UNL     1      -2.533  -0.003   1.280  0.00  0.00    +0.046 C 
ATOM     18  C   UNL     1       0.877   2.605  -1.865  0.00  0.00    +0.032 C 
ATOM     19  C   UNL     1      -1.187   2.826   1.238  0.00  0.00    +0.012 C 
ATOM     21  C   UNL     1      -2.877   0.485  -2.570  0.00  0.00    +0.017 C 
ENDROOT
BRANCH  16   3
ATOM      3  O   UNL     1       1.284   4.011   0.054  0.00  0.00    -0.391 OA
ATOM     34  H   UNL     1       1.666   4.651  -0.571  0.00  0.00    +0.210 HD
ENDBRANCH  16   3
BRANCH  15   2
ATOM      2  O   UNL     1      -4.372  -0.510  -0.136  0.00  0.00    -0.446 OA
BRANCH   2  24
ATOM      6  O   UNL     1      -3.904  -2.723   0.259  0.00  0.00    -0.226 OA
ATOM      8  N   UNL     1      -6.084  -1.949   0.088  0.00  0.00    -0.281 N 
ATOM     24  C   UNL     1      -4.712  -1.816   0.087  0.00  0.00    +0.401 C 
ATOM     37  H   UNL     1      -6.645  -1.116  -0.061  0.00  0.00    +0.152 HD
BRANCH   8  26
ATOM     26  C   UNL     1      -6.769  -3.205   0.296  0.00  0.00    +0.104 C 
ATOM     28  C   UNL     1      -6.838  -3.561   1.766  0.00  0.00    +0.024 C 
ENDBRANCH   8  26
ENDBRANCH   2  24
ENDBRANCH  15   2
BRANCH  11  20
ATOM     20  C   UNL     1      -3.627   2.143  -0.898  0.00  0.00    +0.166 C 
BRANCH  20   4
ATOM      4  O   UNL     1      -4.844   1.808  -1.530  0.00  0.00    -0.394 OA
ATOM     35  H   UNL     1      -5.454   2.553  -1.396  0.00  0.00    +0.209 HD
ENDBRANCH  20   4
ENDBRANCH  11  20
BRANCH  12  22
ATOM     22  C   UNL     1       1.659   1.751   1.854  0.00  0.00    +0.102 C 
BRANCH  22  23
ATOM      5  O   UNL     1       4.046   1.977   1.531  0.00  0.00    -0.276 OA
ATOM      7  N   UNL     1       3.158  -0.089   2.116  0.00  0.00    -0.311 N 
ATOM     23  C   UNL     1       3.088   1.262   1.808  0.00  0.00    +0.214 C 
ATOM     36  H   UNL     1       2.303  -0.606   2.299  0.00  0.00    +0.149 HD
BRANCH   7  25
ATOM     25  C   UNL     1       4.399  -0.828   2.147  0.00  0.00    +0.139 C 
BRANCH  25  27
ATOM      1  F   UNL     1       5.633  -3.087  -2.861  0.00  0.00    -0.205 F 
ATOM     27  C   UNL     1       4.728  -1.430   0.811  0.00  0.00    -0.030 A 
ATOM     29  C   UNL     1       4.277  -2.712   0.494  0.00  0.00    +0.008 A 
ATOM     30  C   UNL     1       5.485  -0.709  -0.112  0.00  0.00    +0.008 A 
ATOM     31  C   UNL     1       4.583  -3.272  -0.746  0.00  0.00    +0.038 A 
ATOM     32  C   UNL     1       5.790  -1.269  -1.353  0.00  0.00    +0.038 A 
ATOM     33  C   UNL     1       5.340  -2.550  -1.669  0.00  0.00    +0.123 A 
ENDBRANCH  25  27
ENDBRANCH   7  25
ENDBRANCH  22  23
ENDBRANCH  12  22
TORSDOF 10
