REMARK  Name = 38345003
REMARK  9 active torsions:
REMARK  status: ('A' for Active; 'I' for Inactive)
REMARK    1  A    between atoms: O_3  and  C_21
REMARK    2  A    between atoms: O_3  and  C_24
REMARK    3  A    between atoms: N_5  and  C_17
REMARK    4  A    between atoms: N_8  and  C_20
REMARK    5  A    between atoms: C_12  and  C_16
REMARK    6  A    between atoms: C_16  and  C_19
REMARK    7  A    between atoms: C_19  and  C_21
REMARK    8  A    between atoms: C_20  and  C_22
REMARK    9  A    between atoms: C_20  and  C_23
REMARK                            x       y       z     vdW  Elec       q    Type
REMARK                         _______ _______ _______ _____ _____    ______ ____
ROOT
ATOM      1  O   UNL     1      -0.755  -1.861   0.527  0.00  0.00    -0.274 OA
ATOM      2  O   UNL     1      -3.391  -1.066  -1.263  0.00  0.00    -0.253 OA
ATOM      5  N   UNL     1       1.314   1.379  -0.026  0.00  0.00    -0.296 NA
ATOM      6  N   UNL     1      -2.273   0.381   0.148  0.00  0.00    -0.273 N 
ATOM      7  N   UNL     1       0.827  -1.244  -1.020  0.00  0.00    -0.312 N 
ATOM      8  N   UNL     1      -4.589   0.070   0.349  0.00  0.00    -0.297 N 
ATOM      9  C   UNL     1      -0.161   1.501  -0.039  0.00  0.00    +0.088 C 
ATOM     10  C   UNL     1      -0.995   0.304  -0.557  0.00  0.00    +0.180 C 
ATOM     11  C   UNL     1      -0.735   1.656   1.390  0.00  0.00    +0.040 C 
ATOM     12  C   UNL     1       1.936   0.979  -1.317  0.00  0.00    +0.074 C 
ATOM     13  C   UNL     1      -2.211   1.337   1.242  0.00  0.00    +0.112 C 
ATOM     14  C   UNL     1       1.335  -0.282  -1.980  0.00  0.00    +0.123 C 
ATOM     15  C   UNL     1      -0.324  -1.040  -0.280  0.00  0.00    +0.235 C 
ATOM     17  C   UNL     1       1.922   2.617   0.492  0.00  0.00    +0.105 C 
ATOM     18  C   UNL     1      -3.420  -0.264  -0.325  0.00  0.00    +0.303 C 
ATOM     25  H   UNL     1       1.325  -2.120  -0.900  0.00  0.00    +0.149 HD
ATOM     26  H   UNL     1      -4.540   0.681   1.156  0.00  0.00    +0.150 HD
ENDROOT
BRANCH   8  20
ATOM     20  C   UNL     1      -5.884  -0.486   0.021  0.00  0.00    +0.068 C 
ATOM     22  C   UNL     1      -6.983   0.529   0.304  0.00  0.00    +0.027 C 
ATOM     23  C   UNL     1      -6.119  -1.783   0.786  0.00  0.00    +0.027 C 
ENDBRANCH   8  20
BRANCH  12  16
ATOM     16  C   UNL     1       3.449   0.718  -1.149  0.00  0.00    +0.031 C 
BRANCH  16  19
ATOM     19  C   UNL     1       3.708  -0.182   0.045  0.00  0.00    +0.122 C 
BRANCH  19  21
ATOM      4  O   UNL     1       6.070  -0.011  -0.506  0.00  0.00    -0.251 OA
ATOM     21  C   UNL     1       5.186  -0.443   0.221  0.00  0.00    +0.307 C 
BRANCH  21   3
ATOM      3  O   UNL     1       5.367  -1.235   1.319  0.00  0.00    -0.468 OA
ATOM     24  C   UNL     1       6.726  -1.572   1.618  0.00  0.00    +0.280 C 
ENDBRANCH  21   3
ENDBRANCH  19  21
ENDBRANCH  16  19
ENDBRANCH  12  16
TORSDOF 5
