REMARK  Name = 51138126
REMARK  11 active torsions:
REMARK  status: ('A' for Active; 'I' for Inactive)
REMARK    1  A    between atoms: O_2  and  C_25
REMARK    2  A    between atoms: O_2  and  C_27
REMARK    3  A    between atoms: N_4  and  C_22
REMARK    4  A    between atoms: N_5  and  C_24
REMARK    5  A    between atoms: C_6  and  C_10
REMARK    6  A    between atoms: C_8  and  C_17
REMARK    7  A    between atoms: C_10  and  C_14
REMARK    8  A    between atoms: C_14  and  C_20
REMARK    9  A    between atoms: C_14  and  C_21
REMARK   10  A    between atoms: C_22  and  C_23
REMARK   11  A    between atoms: C_24  and  C_25
REMARK                            x       y       z     vdW  Elec       q    Type
REMARK                         _______ _______ _______ _____ _____    ______ ____
ROOT
ATOM      3  N   UNL     1      -1.119  -0.222  -0.279  0.00  0.00    -0.299 NA
ATOM      4  N   UNL     1       3.721   1.160   0.119  0.00  0.00    -0.343 N 
ATOM      6  C   UNL     1      -0.434  -1.352   0.363  0.00  0.00    +0.085 C 
ATOM      7  C   UNL     1       1.093  -1.256   0.433  0.00  0.00    -0.021 A 
ATOM      8  C   UNL     1      -0.975   1.050   0.415  0.00  0.00    +0.145 C 
ATOM      9  C   UNL     1       1.849  -0.063   0.250  0.00  0.00    +0.008 A 
ATOM     11  C   UNL     1       0.145   1.895  -0.191  0.00  0.00    +0.065 C 
ATOM     12  C   UNL     1       1.506   1.308  -0.018  0.00  0.00    -0.020 A 
ATOM     13  C   UNL     1       3.245  -0.108   0.353  0.00  0.00    +0.050 A 
ATOM     15  C   UNL     1       2.686   2.020  -0.099  0.00  0.00    +0.090 A 
ATOM     16  C   UNL     1       1.830  -2.417   0.781  0.00  0.00    +0.006 A 
ATOM     18  C   UNL     1       3.956  -1.271   0.652  0.00  0.00    +0.026 A 
ATOM     19  C   UNL     1       3.221  -2.428   0.878  0.00  0.00    +0.002 A 
ATOM     28  H   UNL     1      -0.849  -0.141  -1.258  0.00  0.00    +0.123 HD
ENDROOT
BRANCH   8  17
ATOM      1  O   UNL     1      -2.478   2.505  -0.735  0.00  0.00    -0.274 OA
ATOM      5  N   UNL     1      -3.186   1.474   1.229  0.00  0.00    -0.312 N 
ATOM     17  C   UNL     1      -2.282   1.756   0.219  0.00  0.00    +0.230 C 
ATOM     29  H   UNL     1      -2.925   0.824   1.965  0.00  0.00    +0.149 HD
BRANCH   5  24
ATOM     24  C   UNL     1      -4.511   2.046   1.286  0.00  0.00    +0.132 C 
BRANCH  24  25
ATOM     25  C   UNL     1      -5.524   1.181   0.557  0.00  0.00    +0.178 C 
BRANCH  25   2
ATOM      2  O   UNL     1      -5.164   1.087  -0.815  0.00  0.00    -0.381 OA
ATOM     27  C   UNL     1      -6.087   0.289  -1.543  0.00  0.00    +0.194 C 
ENDBRANCH  25   2
ENDBRANCH  24  25
ENDBRANCH   5  24
ENDBRANCH   8  17
BRANCH   6  10
ATOM     10  C   UNL     1      -0.913  -2.590  -0.416  0.00  0.00    +0.026 C 
BRANCH  10  14
ATOM     14  C   UNL     1      -2.334  -3.022  -0.040  0.00  0.00    -0.015 C 
ATOM     20  C   UNL     1      -3.371  -1.931  -0.308  0.00  0.00    +0.007 C 
ATOM     21  C   UNL     1      -2.700  -4.287  -0.819  0.00  0.00    +0.007 C 
ENDBRANCH  10  14
ENDBRANCH   6  10
BRANCH   4  22
ATOM     22  C   UNL     1       5.115   1.550   0.121  0.00  0.00    +0.148 C 
BRANCH  22  23
ATOM     23  C   UNL     1       5.810   1.200  -1.161  0.00  0.00    -0.013 C 
ATOM     26  C   UNL     1       6.899   0.426  -1.234  0.00  0.00    +0.005 C 
ENDBRANCH  22  23
ENDBRANCH   4  22
TORSDOF 8
