REMARK  Name = 11867058
REMARK  11 active torsions:
REMARK  status: ('A' for Active; 'I' for Inactive)
REMARK    1  A    between atoms: O_3  and  C_15
REMARK    2  A    between atoms: O_4  and  C_20
REMARK    3  A    between atoms: N_8  and  C_26
REMARK    4  A    between atoms: N_8  and  C_27
REMARK    5  A    between atoms: C_10  and  C_18
REMARK    6  A    between atoms: C_12  and  C_20
REMARK    7  A    between atoms: C_12  and  C_21
REMARK    8  A    between atoms: C_13  and  C_23
REMARK    9  A    between atoms: C_23  and  C_24
REMARK   10  A    between atoms: C_26  and  C_29
REMARK   11  A    between atoms: C_28  and  C_30
REMARK                            x       y       z     vdW  Elec       q    Type
REMARK                         _______ _______ _______ _____ _____    ______ ____
ROOT
ATOM      1  S   UNL     1       0.259   2.406   0.509  0.00  0.00    -0.057 S 
ATOM      6  O   UNL     1       3.373  -0.837  -0.699  0.00  0.00    -0.270 OA
ATOM      7  N   UNL     1       0.553  -0.018  -0.346  0.00  0.00    -0.229 NA
ATOM      9  N   UNL     1       2.566   1.246   0.052  0.00  0.00    -0.261 N 
ATOM     10  C   UNL     1      -3.260  -0.467   0.008  0.00  0.00    -0.019 C 
ATOM     11  C   UNL     1      -3.549   1.067  -0.304  0.00  0.00    +0.011 C 
ATOM     12  C   UNL     1      -5.045   1.553  -0.181  0.00  0.00    +0.021 C 
ATOM     13  C   UNL     1      -1.823  -0.830  -0.589  0.00  0.00    +0.054 C 
ATOM     14  C   UNL     1      -4.321  -1.347  -0.703  0.00  0.00    +0.010 C 
ATOM     15  C   UNL     1      -5.974   0.538  -0.906  0.00  0.00    +0.123 C 
ATOM     16  C   UNL     1      -2.527   1.996   0.415  0.00  0.00    +0.049 C 
ATOM     17  C   UNL     1      -5.756  -0.902  -0.458  0.00  0.00    +0.032 C 
ATOM     18  C   UNL     1      -3.284  -0.788   1.523  0.00  0.00    +0.012 C 
ATOM     19  C   UNL     1      -0.804   0.218  -0.222  0.00  0.00    +0.058 A 
ATOM     21  C   UNL     1      -5.195   2.919  -0.909  0.00  0.00    +0.016 C 
ATOM     22  C   UNL     1      -1.141   1.485   0.209  0.00  0.00    +0.015 A 
ATOM     25  C   UNL     1       1.209   1.062   0.018  0.00  0.00    +0.165 A 
ATOM     28  C   UNL     1       3.550   0.309  -0.300  0.00  0.00    +0.250 C 
ATOM     39  H   UNL     1       2.838   2.185   0.325  0.00  0.00    +0.157 HD
ENDROOT
BRANCH  28  30
ATOM      2  F   UNL     1       8.819   2.118   0.086  0.00  0.00    -0.205 F 
ATOM     30  C   UNL     1       4.954   0.790  -0.196  0.00  0.00    +0.037 A 
ATOM     31  C   UNL     1       5.913   0.219  -1.005  0.00  0.00    +0.016 A 
ATOM     32  C   UNL     1       5.248   1.792   0.704  0.00  0.00    +0.016 A 
ATOM     34  C   UNL     1       7.229   0.671  -0.909  0.00  0.00    +0.039 A 
ATOM     35  C   UNL     1       6.564   2.244   0.800  0.00  0.00    +0.039 A 
ATOM     36  C   UNL     1       7.555   1.684  -0.006  0.00  0.00    +0.123 A 
ENDBRANCH  28  30
BRANCH  15   3
ATOM      3  O   UNL     1      -7.345   0.879  -0.704  0.00  0.00    -0.391 OA
ATOM     37  H   UNL     1      -7.553   1.641  -1.270  0.00  0.00    +0.210 HD
ENDBRANCH  15   3
BRANCH  12  20
ATOM     20  C   UNL     1      -5.522   1.800   1.267  0.00  0.00    +0.165 C 
BRANCH  20   4
ATOM      4  O   UNL     1      -6.861   2.236   1.212  0.00  0.00    -0.394 OA
ATOM     38  H   UNL     1      -6.860   3.202   1.106  0.00  0.00    +0.209 HD
ENDBRANCH  20   4
ENDBRANCH  12  20
BRANCH  13  23
ATOM     23  C   UNL     1      -1.327  -2.241  -0.247  0.00  0.00    +0.106 C 
BRANCH  23  24
ATOM      5  O   UNL     1       0.222  -2.098  -2.070  0.00  0.00    -0.276 OA
ATOM      8  N   UNL     1       0.811  -3.475  -0.300  0.00  0.00    -0.293 N 
ATOM     24  C   UNL     1      -0.038  -2.586  -0.967  0.00  0.00    +0.217 C 
ATOM     27  C   UNL     1       2.087  -3.905  -0.857  0.00  0.00    +0.133 C 
BRANCH   8  26
ATOM     26  C   UNL     1       0.481  -4.040   1.007  0.00  0.00    +0.196 C 
BRANCH  26  29
ATOM     29  C   UNL     1       0.983  -3.194   2.089  0.00  0.00    -0.086 C 
ATOM     33  C   UNL     1       1.394  -2.502   2.980  0.00  0.00    +0.005 C 
ENDBRANCH  26  29
ENDBRANCH   8  26
ENDBRANCH  23  24
ENDBRANCH  13  23
TORSDOF 8
