REMARK  Name = 28990679
REMARK  4 active torsions:
REMARK  status: ('A' for Active; 'I' for Inactive)
REMARK    1  A    between atoms: N_2  and  C_13
REMARK    2  A    between atoms: C_13  and  C_18
REMARK    3  A    between atoms: C_16  and  C_19
REMARK    4  A    between atoms: C_27  and  C_33
REMARK                            x       y       z     vdW  Elec       q    Type
REMARK                         _______ _______ _______ _____ _____    ______ ____
ROOT
ATOM      1  O   UNL     1       2.131   1.923   1.554  0.00  0.00    -0.267 OA
ATOM      2  N   UNL     1      -2.795   1.727   0.633  0.00  0.00    -0.297 NA
ATOM      3  N   UNL     1       0.271   2.538   0.290  0.00  0.00    -0.311 N 
ATOM      6  C   UNL     1      -1.681   3.883   1.264  0.00  0.00    +0.024 C 
ATOM      7  C   UNL     1      -1.732   3.196  -1.085  0.00  0.00    +0.050 C 
ATOM      8  C   UNL     1      -1.839   4.404  -0.158  0.00  0.00    +0.017 C 
ATOM      9  C   UNL     1      -2.787   2.852   1.576  0.00  0.00    +0.090 C 
ATOM     10  C   UNL     1      -2.862   2.193  -0.759  0.00  0.00    +0.094 C 
ATOM     11  C   UNL     1      -0.270   3.300   1.424  0.00  0.00    +0.130 C 
ATOM     12  C   UNL     1      -0.376   2.530  -0.948  0.00  0.00    +0.026 A 
ATOM     14  C   UNL     1       0.192   1.921  -2.001  0.00  0.00    +0.022 A 
ATOM     15  C   UNL     1       1.516   1.908   0.487  0.00  0.00    +0.259 A 
ATOM     16  C   UNL     1       2.111   1.204  -0.703  0.00  0.00    +0.047 A 
ATOM     17  C   UNL     1       1.452   1.244  -1.870  0.00  0.00    +0.015 A 
ENDROOT
BRANCH  16  19
ATOM     19  C   UNL     1       3.387   0.474  -0.598  0.00  0.00    -0.011 A 
ATOM     23  C   UNL     1       3.514  -0.588   0.296  0.00  0.00    +0.027 A 
ATOM     24  C   UNL     1       4.469   0.848  -1.396  0.00  0.00    +0.009 A 
ATOM     27  C   UNL     1       4.722  -1.278   0.393  0.00  0.00    +0.052 A 
ATOM     28  C   UNL     1       5.678   0.158  -1.299  0.00  0.00    +0.002 A 
ATOM     30  C   UNL     1       5.804  -0.905  -0.404  0.00  0.00    +0.019 A 
BRANCH  27  33
ATOM      5  N   UNL     1       4.958  -3.251   2.054  0.00  0.00    -0.191 NA
ATOM     33  C   UNL     1       4.853  -2.367   1.310  0.00  0.00    +0.099 C 
ENDBRANCH  27  33
ENDBRANCH  16  19
BRANCH   2  13
ATOM     13  C   UNL     1      -3.887   0.803   0.929  0.00  0.00    +0.121 C 
BRANCH  13  18
ATOM      4  N   UNL     1      -4.236  -2.450  -0.972  0.00  0.00    -0.255 NA
ATOM     18  C   UNL     1      -3.599  -0.586   0.423  0.00  0.00    -0.015 A 
ATOM     20  C   UNL     1      -2.481  -1.288   0.849  0.00  0.00    +0.016 A 
ATOM     21  C   UNL     1      -4.438  -1.206  -0.480  0.00  0.00    +0.116 A 
ATOM     22  C   UNL     1      -2.234  -2.580   0.364  0.00  0.00    +0.001 A 
ATOM     25  C   UNL     1      -3.150  -3.130  -0.557  0.00  0.00    +0.071 A 
ATOM     26  C   UNL     1      -1.111  -3.318   0.775  0.00  0.00    +0.010 A 
ATOM     29  C   UNL     1      -2.904  -4.413  -1.038  0.00  0.00    +0.028 A 
ATOM     31  C   UNL     1      -0.890  -4.599   0.278  0.00  0.00    +0.001 A 
ATOM     32  C   UNL     1      -1.788  -5.147  -0.630  0.00  0.00    +0.002 A 
ENDBRANCH  13  18
ENDBRANCH   2  13
TORSDOF 4
