REMARK  Name = 40533374
REMARK  5 active torsions:
REMARK  status: ('A' for Active; 'I' for Inactive)
REMARK    1  A    between atoms: N_4  and  C_12
REMARK    2  A    between atoms: N_5  and  C_13
REMARK    3  A    between atoms: N_8  and  C_20
REMARK    4  A    between atoms: C_18  and  C_19
REMARK    5  A    between atoms: C_20  and  C_22
REMARK                            x       y       z     vdW  Elec       q    Type
REMARK                         _______ _______ _______ _____ _____    ______ ____
ROOT
ATOM      1  O   UNL     1      -0.074   2.769  -1.663  0.00  0.00    -0.370 OA
ATOM      2  O   UNL     1      -0.127   3.363   1.405  0.00  0.00    -0.370 OA
ATOM     10  C   UNL     1       0.284   2.225   0.626  0.00  0.00    +0.175 C 
ATOM     11  C   UNL     1      -0.679   2.110  -0.540  0.00  0.00    +0.171 C 
ATOM     12  C   UNL     1       1.633   2.495  -0.017  0.00  0.00    +0.166 C 
ATOM     13  C   UNL     1      -1.903   2.868  -0.087  0.00  0.00    +0.131 C 
ATOM     14  C   UNL     1       1.234   3.228  -1.295  0.00  0.00    +0.190 C 
ATOM     15  C   UNL     1      -1.322   3.918   0.839  0.00  0.00    +0.185 C 
ENDROOT
BRANCH  13   5
ATOM      3  O   UNL     1      -4.189   1.358  -1.071  0.00  0.00    -0.253 OA
ATOM      5  N   UNL     1      -2.792   1.964   0.683  0.00  0.00    -0.292 N 
ATOM      8  N   UNL     1      -4.532   0.507   1.060  0.00  0.00    -0.295 N 
ATOM     17  C   UNL     1      -3.867   1.284   0.115  0.00  0.00    +0.300 C 
ATOM     31  H   UNL     1      -2.567   1.784   1.657  0.00  0.00    +0.151 HD
ATOM     32  H   UNL     1      -4.181   0.490   2.013  0.00  0.00    +0.151 HD
BRANCH   8  20
ATOM     20  C   UNL     1      -5.684  -0.302   0.738  0.00  0.00    +0.141 C 
BRANCH  20  22
ATOM     22  C   UNL     1      -5.297  -1.690   0.318  0.00  0.00    -0.030 A 
ATOM     24  C   UNL     1      -5.052  -1.969  -1.027  0.00  0.00    +0.005 A 
ATOM     25  C   UNL     1      -5.181  -2.701   1.272  0.00  0.00    +0.005 A 
ATOM     28  C   UNL     1      -4.692  -3.259  -1.417  0.00  0.00    +0.000 A 
ATOM     29  C   UNL     1      -4.821  -3.991   0.882  0.00  0.00    +0.000 A 
ATOM     30  C   UNL     1      -4.577  -4.270  -0.463  0.00  0.00    +0.000 A 
ENDBRANCH  20  22
ENDBRANCH   8  20
ENDBRANCH  13   5
BRANCH  12   4
ATOM      4  N   UNL     1       2.417   1.210  -0.217  0.00  0.00    -0.243 N 
ATOM      6  N   UNL     1       1.912   0.207  -0.953  0.00  0.00    -0.065 NA
ATOM      7  N   UNL     1       2.809  -0.773  -0.951  0.00  0.00    -0.128 NA
ATOM     16  C   UNL     1       3.647   0.902   0.276  0.00  0.00    +0.140 A 
ATOM     18  C   UNL     1       3.877  -0.364  -0.203  0.00  0.00    +0.131 A 
BRANCH  18  19
ATOM      9  N   UNL     1       5.995  -0.558   0.805  0.00  0.00    -0.253 NA
ATOM     19  C   UNL     1       5.049  -1.143   0.037  0.00  0.00    +0.092 A 
ATOM     21  C   UNL     1       5.166  -2.414  -0.503  0.00  0.00    +0.030 A 
ATOM     23  C   UNL     1       6.328  -3.129  -0.239  0.00  0.00    +0.004 A 
ATOM     26  C   UNL     1       7.111  -1.283   1.041  0.00  0.00    +0.111 A 
ATOM     27  C   UNL     1       7.324  -2.560   0.547  0.00  0.00    +0.020 A 
ENDBRANCH  18  19
ENDBRANCH  12   4
TORSDOF 5
