REMARK  Name = 45360656
REMARK  9 active torsions:
REMARK  status: ('A' for Active; 'I' for Inactive)
REMARK    1  A    between atoms: N_5  and  C_10
REMARK    2  A    between atoms: N_5  and  C_18
REMARK    3  A    between atoms: N_7  and  C_27
REMARK    4  A    between atoms: N_8  and  C_26
REMARK    5  A    between atoms: C_12  and  C_16
REMARK    6  A    between atoms: C_16  and  C_17
REMARK    7  A    between atoms: C_17  and  C_20
REMARK    8  A    between atoms: C_18  and  C_19
REMARK    9  A    between atoms: C_26  and  C_30
REMARK                            x       y       z     vdW  Elec       q    Type
REMARK                         _______ _______ _______ _____ _____    ______ ____
ROOT
ATOM      2  O   UNL     1      -1.352  -2.750   2.358  0.00  0.00    -0.274 OA
ATOM      4  N   UNL     1      -1.204   0.602   0.920  0.00  0.00    -0.286 NA
ATOM      6  N   UNL     1      -1.966  -0.753   3.256  0.00  0.00    -0.313 N 
ATOM      9  C   UNL     1      -1.249  -0.866   0.875  0.00  0.00    +0.145 C 
ATOM     10  C   UNL     1       0.876   0.041   0.126  0.00  0.00    +0.070 C 
ATOM     11  C   UNL     1       0.122  -1.276   0.316  0.00  0.00    +0.048 C 
ATOM     12  C   UNL     1      -2.199   1.206   1.798  0.00  0.00    +0.075 C 
ATOM     13  C   UNL     1       0.193   0.984   1.108  0.00  0.00    +0.104 C 
ATOM     14  C   UNL     1      -2.050   0.689   3.220  0.00  0.00    +0.123 C 
ATOM     15  C   UNL     1      -1.502  -1.532   2.224  0.00  0.00    +0.230 C 
ATOM     37  H   UNL     1      -2.151  -1.212   4.143  0.00  0.00    +0.149 HD
ENDROOT
BRANCH  10   5
ATOM      5  N   UNL     1       2.308  -0.085   0.344  0.00  0.00    -0.308 NA
ATOM     36  H   UNL     1       2.699   0.839   0.527  0.00  0.00    +0.123 HD
BRANCH   5  18
ATOM     18  C   UNL     1       2.966  -0.654  -0.825  0.00  0.00    +0.118 C 
BRANCH  18  19
ATOM      7  N   UNL     1       6.439  -1.707  -0.243  0.00  0.00    -0.349 N 
ATOM     19  C   UNL     1       4.446  -0.806  -0.619  0.00  0.00    -0.008 A 
ATOM     21  C   UNL     1       5.416   0.235  -0.642  0.00  0.00    +0.004 A 
ATOM     22  C   UNL     1       5.105  -1.988  -0.371  0.00  0.00    +0.091 A 
ATOM     23  C   UNL     1       6.658  -0.357  -0.403  0.00  0.00    +0.049 A 
ATOM     24  C   UNL     1       5.356   1.628  -0.843  0.00  0.00    +0.010 A 
ATOM     25  C   UNL     1       7.848   0.377  -0.356  0.00  0.00    +0.026 A 
ATOM     27  C   UNL     1       7.459  -2.698   0.026  0.00  0.00    +0.149 C 
ATOM     28  C   UNL     1       6.538   2.375  -0.799  0.00  0.00    +0.001 A 
ATOM     29  C   UNL     1       7.764   1.758  -0.559  0.00  0.00    +0.002 A 
ENDBRANCH  18  19
ENDBRANCH   5  18
ENDBRANCH  10   5
BRANCH  12  16
ATOM     16  C   UNL     1      -2.169   2.735   1.765  0.00  0.00    +0.029 C 
BRANCH  16  17
ATOM     17  C   UNL     1      -2.275   3.256   0.338  0.00  0.00    +0.097 C 
BRANCH  17  20
ATOM      3  O   UNL     1      -4.681   3.137   0.099  0.00  0.00    -0.276 OA
ATOM      8  N   UNL     1      -3.336   2.076  -1.468  0.00  0.00    -0.311 N 
ATOM     20  C   UNL     1      -3.571   2.835  -0.331  0.00  0.00    +0.213 C 
ATOM     38  H   UNL     1      -2.384   1.847  -1.739  0.00  0.00    +0.149 HD
BRANCH   8  26
ATOM     26  C   UNL     1      -4.408   1.554  -2.281  0.00  0.00    +0.139 C 
BRANCH  26  30
ATOM      1  F   UNL     1      -6.042  -3.559  -0.583  0.00  0.00    -0.205 F 
ATOM     30  C   UNL     1      -4.844   0.191  -1.828  0.00  0.00    -0.030 A 
ATOM     31  C   UNL     1      -4.238  -0.947  -2.360  0.00  0.00    +0.008 A 
ATOM     32  C   UNL     1      -5.855   0.062  -0.876  0.00  0.00    +0.008 A 
ATOM     33  C   UNL     1      -4.642  -2.214  -1.940  0.00  0.00    +0.038 A 
ATOM     34  C   UNL     1      -6.260  -1.205  -0.455  0.00  0.00    +0.038 A 
ATOM     35  C   UNL     1      -5.653  -2.343  -0.987  0.00  0.00    +0.123 A 
ENDBRANCH  26  30
ENDBRANCH   8  26
ENDBRANCH  17  20
ENDBRANCH  16  17
ENDBRANCH  12  16
TORSDOF 8
