REMARK  Name = 45783778
REMARK  9 active torsions:
REMARK  status: ('A' for Active; 'I' for Inactive)
REMARK    1  A    between atoms: N_2  and  C_10
REMARK    2  A    between atoms: N_6  and  C_22
REMARK    3  A    between atoms: N_6  and  C_23
REMARK    4  A    between atoms: C_7  and  C_13
REMARK    5  A    between atoms: C_10  and  C_12
REMARK    6  A    between atoms: C_12  and  C_14
REMARK    7  A    between atoms: C_12  and  C_15
REMARK    8  A    between atoms: C_12  and  C_16
REMARK    9  A    between atoms: C_17  and  C_18
REMARK                            x       y       z     vdW  Elec       q    Type
REMARK                         _______ _______ _______ _____ _____    ______ ____
ROOT
ATOM      1  O   UNL     1       0.519  -1.536  -1.856  0.00  0.00    -0.336 OA
ATOM      3  N   UNL     1      -0.001  -0.769   0.183  0.00  0.00    -0.190 NA
ATOM      4  N   UNL     1      -0.837  -1.188  -1.904  0.00  0.00    -0.056 NA
ATOM     13  C   UNL     1       0.934  -1.258  -0.592  0.00  0.00    +0.245 A 
ATOM     17  C   UNL     1      -1.069  -0.744  -0.665  0.00  0.00    +0.204 A 
ENDROOT
BRANCH  17  18
ATOM      5  N   UNL     1      -4.668   0.183  -0.783  0.00  0.00    -0.240 NA
ATOM     18  C   UNL     1      -2.355  -0.270  -0.243  0.00  0.00    +0.041 A 
ATOM     19  C   UNL     1      -2.562   0.183   1.055  0.00  0.00    +0.016 A 
ATOM     20  C   UNL     1      -3.431  -0.250  -1.116  0.00  0.00    +0.124 A 
ATOM     21  C   UNL     1      -3.820   0.637   1.435  0.00  0.00    +0.044 A 
ATOM     22  C   UNL     1      -4.830   0.617   0.488  0.00  0.00    +0.118 A 
BRANCH  22   6
ATOM      6  N   UNL     1      -6.107   1.081   0.891  0.00  0.00    -0.332 N 
ATOM     23  C   UNL     1      -7.229   1.111   0.010  0.00  0.00    +0.127 C 
ATOM     24  H   UNL     1      -6.155   1.607   1.756  0.00  0.00    +0.147 HD
ENDBRANCH  22   6
ENDBRANCH  17  18
BRANCH  13   7
ATOM      2  N   UNL     1       3.199  -0.429   0.232  0.00  0.00    -0.291 NA
ATOM      7  C   UNL     1       2.394  -1.552  -0.278  0.00  0.00    +0.146 C 
ATOM      8  C   UNL     1       2.609  -2.603   0.821  0.00  0.00    +0.030 C 
ATOM      9  C   UNL     1       2.999  -0.359   1.674  0.00  0.00    +0.085 C 
ATOM     11  C   UNL     1       2.922  -1.819   2.095  0.00  0.00    +0.017 C 
BRANCH   2  10
ATOM     10  C   UNL     1       3.039   0.846  -0.443  0.00  0.00    +0.091 C 
BRANCH  10  12
ATOM     12  C   UNL     1       4.252   1.798  -0.289  0.00  0.00    -0.025 C 
ATOM     14  C   UNL     1       4.360   2.748  -1.496  0.00  0.00    +0.012 C 
ATOM     15  C   UNL     1       4.149   2.629   1.002  0.00  0.00    +0.012 C 
ATOM     16  C   UNL     1       5.532   0.944  -0.220  0.00  0.00    +0.012 C 
ENDBRANCH  10  12
ENDBRANCH   2  10
ENDBRANCH  13   7
TORSDOF 5
