REMARK  Name = 75368465
REMARK  7 active torsions:
REMARK  status: ('A' for Active; 'I' for Inactive)
REMARK    1  A    between atoms: S_1  and  N_7
REMARK    2  A    between atoms: S_1  and  C_16
REMARK    3  A    between atoms: O_5  and  C_27
REMARK    4  A    between atoms: O_5  and  C_29
REMARK    5  A    between atoms: N_8  and  C_15
REMARK    6  A    between atoms: C_15  and  C_17
REMARK    7  A    between atoms: C_24  and  C_28
REMARK                            x       y       z     vdW  Elec       q    Type
REMARK                         _______ _______ _______ _____ _____    ______ ____
ROOT
ATOM      2  O   UNL     1       1.510  -2.753  -2.133  0.00  0.00    -0.252 OA
ATOM      6  N   UNL     1      -0.272  -2.505  -0.621  0.00  0.00    -0.278 N 
ATOM      7  N   UNL     1      -2.720  -1.592   0.374  0.00  0.00    -0.173 NA
ATOM      8  N   UNL     1       1.826  -2.375   0.173  0.00  0.00    -0.279 N 
ATOM      9  C   UNL     1      -0.433  -2.388   0.816  0.00  0.00    +0.111 C 
ATOM     10  C   UNL     1      -1.465  -1.316   1.150  0.00  0.00    +0.133 C 
ATOM     11  C   UNL     1       0.978  -2.091   1.318  0.00  0.00    +0.133 C 
ATOM     12  C   UNL     1      -1.442  -2.645  -1.466  0.00  0.00    +0.127 C 
ATOM     13  C   UNL     1      -2.475  -1.582  -1.107  0.00  0.00    +0.128 C 
ATOM     14  C   UNL     1       1.075  -2.571  -1.003  0.00  0.00    +0.305 C 
ENDROOT
BRANCH   7   1
ATOM      1  S   UNL     1      -4.103  -0.722   0.891  0.00  0.00    +0.061 S 
ATOM      3  O   UNL     1      -4.119  -0.679   2.337  0.00  0.00    -0.153 OA
ATOM      4  O   UNL     1      -5.253  -1.183   0.144  0.00  0.00    -0.153 OA
BRANCH   1  16
ATOM     16  C   UNL     1      -3.687   0.891   0.307  0.00  0.00    +0.105 A 
ATOM     18  C   UNL     1      -2.975   1.768   1.126  0.00  0.00    +0.029 A 
ATOM     19  C   UNL     1      -4.066   1.287  -0.976  0.00  0.00    +0.029 A 
ATOM     22  C   UNL     1      -2.644   3.041   0.663  0.00  0.00    +0.005 A 
ATOM     23  C   UNL     1      -3.735   2.561  -1.438  0.00  0.00    +0.005 A 
ATOM     24  C   UNL     1      -3.024   3.438  -0.619  0.00  0.00    -0.050 A 
ATOM     28  C   UNL     1      -2.670   4.799  -1.115  0.00  0.00    +0.044 C 
ENDBRANCH   1  16
ENDBRANCH   7   1
BRANCH   8  15
ATOM     15  C   UNL     1       3.268  -2.318   0.256  0.00  0.00    +0.144 C 
BRANCH  15  17
ATOM     17  C   UNL     1       3.783  -0.913   0.134  0.00  0.00    -0.030 A 
ATOM     20  C   UNL     1       4.235  -0.235   1.267  0.00  0.00    +0.009 A 
ATOM     21  C   UNL     1       3.810  -0.285  -1.111  0.00  0.00    +0.009 A 
ATOM     25  C   UNL     1       4.713   1.071   1.154  0.00  0.00    +0.046 A 
ATOM     26  C   UNL     1       4.288   1.021  -1.224  0.00  0.00    +0.046 A 
ATOM     27  C   UNL     1       4.740   1.698  -0.091  0.00  0.00    +0.120 A 
BRANCH  27   5
ATOM      5  O   UNL     1       5.205   2.972  -0.202  0.00  0.00    -0.495 OA
ATOM     29  C   UNL     1       5.652   3.606   0.997  0.00  0.00    +0.277 C 
ENDBRANCH  27   5
ENDBRANCH  15  17
ENDBRANCH   8  15
TORSDOF 5
