REMARK  Name = 7673881
REMARK  5 active torsions:
REMARK  status: ('A' for Active; 'I' for Inactive)
REMARK    1  A    between atoms: S_1  and  N_7
REMARK    2  A    between atoms: S_1  and  C_22
REMARK    3  A    between atoms: N_9  and  C_20
REMARK    4  A    between atoms: C_26  and  C_27
REMARK    5  A    between atoms: C_32  and  C_33
REMARK                            x       y       z     vdW  Elec       q    Type
REMARK                         _______ _______ _______ _____ _____    ______ ____
ROOT
ATOM      5  O   UNL     1      -0.385   2.188  -1.398  0.00  0.00    -0.266 OA
ATOM      7  N   UNL     1       4.120   0.261  -0.494  0.00  0.00    -0.175 NA
ATOM      8  N   UNL     1       1.463   1.900   0.003  0.00  0.00    -0.310 N 
ATOM     11  C   UNL     1       3.807   2.736  -0.603  0.00  0.00    +0.025 C 
ATOM     12  C   UNL     1       3.445   1.554   1.520  0.00  0.00    +0.052 C 
ATOM     13  C   UNL     1       4.008   2.832   0.904  0.00  0.00    +0.017 C 
ATOM     14  C   UNL     1       4.553   1.517  -1.171  0.00  0.00    +0.114 C 
ATOM     15  C   UNL     1       4.230   0.339   0.993  0.00  0.00    +0.119 C 
ATOM     16  C   UNL     1       2.303   2.694  -0.903  0.00  0.00    +0.130 C 
ATOM     17  C   UNL     1       1.967   1.403   1.209  0.00  0.00    +0.026 A 
ATOM     18  C   UNL     1       1.152   0.778   2.075  0.00  0.00    +0.024 A 
ATOM     19  C   UNL     1       0.107   1.754  -0.356  0.00  0.00    +0.273 A 
ATOM     20  C   UNL     1      -0.762   1.032   0.626  0.00  0.00    +0.099 A 
ATOM     21  C   UNL     1      -0.239   0.589   1.774  0.00  0.00    +0.030 A 
ENDROOT
BRANCH  20   9
ATOM      6  O   UNL     1      -2.441  -1.101   1.510  0.00  0.00    -0.270 OA
ATOM      9  N   UNL     1      -2.078   0.859   0.310  0.00  0.00    -0.277 N 
ATOM     26  C   UNL     1      -2.842  -0.203   0.774  0.00  0.00    +0.248 C 
ATOM     34  H   UNL     1      -2.432   1.478  -0.410  0.00  0.00    +0.155 HD
BRANCH  26  27
ATOM     27  C   UNL     1      -4.264  -0.210   0.341  0.00  0.00    +0.037 A 
ATOM     28  C   UNL     1      -5.200  -0.834   1.140  0.00  0.00    +0.014 A 
ATOM     29  C   UNL     1      -4.601   0.406  -0.846  0.00  0.00    +0.014 A 
ATOM     30  C   UNL     1      -6.534  -0.841   0.733  0.00  0.00    +0.019 A 
ATOM     31  C   UNL     1      -5.936   0.398  -1.253  0.00  0.00    +0.019 A 
ATOM     32  C   UNL     1      -6.902  -0.225  -0.463  0.00  0.00    +0.052 A 
BRANCH  32  33
ATOM     10  N   UNL     1      -9.380  -0.240  -1.220  0.00  0.00    -0.191 NA
ATOM     33  C   UNL     1      -8.269  -0.234  -0.881  0.00  0.00    +0.099 C 
ENDBRANCH  32  33
ENDBRANCH  26  27
ENDBRANCH  20   9
BRANCH   7   1
ATOM      1  S   UNL     1       4.682  -1.192  -1.202  0.00  0.00    +0.067 S 
ATOM      3  O   UNL     1       6.032  -1.450  -0.748  0.00  0.00    -0.152 OA
ATOM      4  O   UNL     1       4.360  -1.184  -2.614  0.00  0.00    -0.152 OA
BRANCH   1  22
ATOM      2  S   UNL     1       1.982  -2.275  -0.906  0.00  0.00    -0.077 S 
ATOM     22  C   UNL     1       3.616  -2.355  -0.410  0.00  0.00    +0.143 A 
ATOM     23  C   UNL     1       3.829  -3.326   0.537  0.00  0.00    +0.036 A 
ATOM     24  C   UNL     1       2.629  -4.020   0.865  0.00  0.00    +0.010 A 
ATOM     25  C   UNL     1       1.548  -3.549   0.152  0.00  0.00    +0.047 A 
ENDBRANCH   1  22
ENDBRANCH   7   1
TORSDOF 5
