REMARK  Name = 75368660
REMARK  3 active torsions:
REMARK  status: ('A' for Active; 'I' for Inactive)
REMARK    1  A    between atoms: N_5  and  C_9
REMARK    2  A    between atoms: N_6  and  C_16
REMARK    3  A    between atoms: C_16  and  C_19
REMARK                            x       y       z     vdW  Elec       q    Type
REMARK                         _______ _______ _______ _____ _____    ______ ____
ROOT
ATOM      3  O   UNL     1      -2.559  -2.622  -0.028  0.00  0.00    -0.252 OA
ATOM      4  N   UNL     1      -0.865  -1.007  -0.228  0.00  0.00    -0.278 N 
ATOM      5  N   UNL     1      -3.000  -0.310  -0.186  0.00  0.00    -0.280 N 
ATOM      6  N   UNL     1       1.561   0.328   0.266  0.00  0.00    -0.295 NA
ATOM      7  C   UNL     1      -0.787   0.419  -0.468  0.00  0.00    +0.109 C 
ATOM      8  C   UNL     1      -2.210   0.909  -0.208  0.00  0.00    +0.133 C 
ATOM     10  C   UNL     1       0.282   1.050   0.424  0.00  0.00    +0.109 C 
ATOM     11  C   UNL     1       0.352  -1.791  -0.213  0.00  0.00    +0.125 C 
ATOM     12  C   UNL     1      -2.188  -1.461  -0.138  0.00  0.00    +0.305 C 
ATOM     13  C   UNL     1       1.413  -1.093   0.642  0.00  0.00    +0.104 C 
ENDROOT
BRANCH   5   9
ATOM      2  O   UNL     1      -6.887   1.222  -0.032  0.00  0.00    -0.380 OA
ATOM      9  C   UNL     1      -4.437  -0.288  -0.072  0.00  0.00    +0.082 C 
ATOM     14  C   UNL     1      -5.076   0.273  -1.343  0.00  0.00    +0.050 C 
ATOM     15  C   UNL     1      -4.882   0.521   1.147  0.00  0.00    +0.050 C 
ATOM     17  C   UNL     1      -6.583   0.416  -1.169  0.00  0.00    +0.161 C 
ATOM     18  C   UNL     1      -6.400   0.649   1.181  0.00  0.00    +0.161 C 
ENDBRANCH   5   9
BRANCH   6  16
ATOM     16  C   UNL     1       2.607   0.961   1.069  0.00  0.00    +0.119 C 
BRANCH  16  19
ATOM      1 CL   UNL     1       8.106  -0.300  -1.020  0.00  0.00    -0.084 Cl
ATOM     19  C   UNL     1       3.983   0.646   0.546  0.00  0.00    -0.033 A 
ATOM     20  C   UNL     1       4.666  -0.476   1.015  0.00  0.00    +0.006 A 
ATOM     21  C   UNL     1       4.575   1.476  -0.406  0.00  0.00    +0.006 A 
ATOM     22  C   UNL     1       5.942  -0.768   0.531  0.00  0.00    +0.020 A 
ATOM     23  C   UNL     1       5.850   1.185  -0.889  0.00  0.00    +0.020 A 
ATOM     24  C   UNL     1       6.534   0.062  -0.421  0.00  0.00    +0.041 A 
ENDBRANCH  16  19
ENDBRANCH   6  16
TORSDOF 3
