REMARK  Name = 75536654
REMARK  7 active torsions:
REMARK  status: ('A' for Active; 'I' for Inactive)
REMARK    1  A    between atoms: S_1  and  N_7
REMARK    2  A    between atoms: S_1  and  C_19
REMARK    3  A    between atoms: O_3  and  C_10
REMARK    4  A    between atoms: N_6  and  C_8
REMARK    5  A    between atoms: N_6  and  C_9
REMARK    6  A    between atoms: N_7  and  C_18
REMARK    7  A    between atoms: C_11  and  C_18
REMARK                            x       y       z     vdW  Elec       q    Type
REMARK                         _______ _______ _______ _____ _____    ______ ____
ROOT
ATOM      2  O   UNL     1       1.104   0.831   0.689  0.00  0.00    -0.371 OA
ATOM      8  C   UNL     1      -0.917  -0.243   0.051  0.00  0.00    +0.111 C 
ATOM     10  C   UNL     1       0.257  -1.024  -0.511  0.00  0.00    +0.164 C 
ATOM     11  C   UNL     1       1.386  -0.548   0.394  0.00  0.00    +0.164 C 
ATOM     14  C   UNL     1      -0.269   1.099   0.353  0.00  0.00    +0.181 C 
ENDROOT
BRANCH  10   3
ATOM      3  O   UNL     1       0.070  -2.423  -0.430  0.00  0.00    -0.388 OA
ATOM     21  H   UNL     1      -0.100  -2.656   0.499  0.00  0.00    +0.210 HD
ENDBRANCH  10   3
BRANCH   8   6
ATOM      6  N   UNL     1      -2.039  -0.135  -0.867  0.00  0.00    -0.306 NA
ATOM     20  H   UNL     1      -2.213  -1.034  -1.316  0.00  0.00    +0.123 HD
BRANCH   6   9
ATOM      9  C   UNL     1      -3.241   0.309  -0.164  0.00  0.00    +0.054 C 
ATOM     12  C   UNL     1      -4.242   0.898  -1.165  0.00  0.00    +0.019 C 
ATOM     13  C   UNL     1      -3.857  -0.863   0.608  0.00  0.00    +0.019 C 
ATOM     15  C   UNL     1      -5.544   1.303  -0.476  0.00  0.00    +0.002 C 
ATOM     16  C   UNL     1      -5.159  -0.455   1.295  0.00  0.00    +0.002 C 
ATOM     17  C   UNL     1      -6.154   0.142   0.304  0.00  0.00    +0.000 C 
ENDBRANCH   6   9
ENDBRANCH   8   6
BRANCH  11  18
ATOM     18  C   UNL     1       2.758  -0.666  -0.246  0.00  0.00    +0.139 C 
BRANCH  18   7
ATOM      7  N   UNL     1       3.787  -0.185   0.697  0.00  0.00    -0.192 NA
ATOM     22  H   UNL     1       3.887  -0.780   1.530  0.00  0.00    +0.148 HD
BRANCH   7   1
ATOM      1  S   UNL     1       5.224   0.498   0.081  0.00  0.00    +0.027 S 
ATOM      4  O   UNL     1       6.205   0.619   1.141  0.00  0.00    -0.158 OA
ATOM      5  O   UNL     1       4.874   1.641  -0.740  0.00  0.00    -0.158 OA
ATOM     19  C   UNL     1       5.758  -0.798  -1.014  0.00  0.00    +0.214 C 
ENDBRANCH   7   1
ENDBRANCH  18   7
ENDBRANCH  11  18
TORSDOF 6
