REMARK  Name = 26743596
REMARK  6 active torsions:
REMARK  status: ('A' for Active; 'I' for Inactive)
REMARK    1  A    between atoms: O_1  and  C_9
REMARK    2  A    between atoms: N_3  and  C_11
REMARK    3  A    between atoms: C_7  and  C_12
REMARK    4  A    between atoms: C_11  and  C_13
REMARK    5  A    between atoms: C_16  and  C_20
REMARK    6  A    between atoms: C_19  and  C_21
REMARK                            x       y       z     vdW  Elec       q    Type
REMARK                         _______ _______ _______ _____ _____    ______ ____
ROOT
ATOM      3  N   UNL     1       3.340   1.131   0.465  0.00  0.00    -0.285 NA
ATOM      7  C   UNL     1       3.459   0.192  -0.669  0.00  0.00    +0.149 C 
ATOM      8  C   UNL     1       4.741  -0.612  -0.382  0.00  0.00    +0.061 C 
ATOM      9  C   UNL     1       5.295  -0.022   0.909  0.00  0.00    +0.130 C 
ATOM     10  C   UNL     1       4.699   1.372   0.947  0.00  0.00    +0.116 C 
ENDROOT
BRANCH   7  12
ATOM      2  O   UNL     1       1.976  -1.143  -2.081  0.00  0.00    -0.336 OA
ATOM      4  N   UNL     1       1.379  -1.088   0.078  0.00  0.00    -0.190 NA
ATOM      5  N   UNL     1       0.817  -1.923  -1.977  0.00  0.00    -0.056 NA
ATOM     12  C   UNL     1       2.238  -0.690  -0.827  0.00  0.00    +0.245 A 
ATOM     16  C   UNL     1       0.527  -1.842  -0.675  0.00  0.00    +0.202 A 
BRANCH  16  20
ATOM     20  C   UNL     1      -0.607  -2.503  -0.095  0.00  0.00    +0.022 A 
ATOM     22  C   UNL     1      -0.859  -2.383   1.272  0.00  0.00    +0.012 A 
ATOM     23  C   UNL     1      -1.456  -3.265  -0.896  0.00  0.00    +0.012 A 
ATOM     25  C   UNL     1      -1.960  -3.026   1.837  0.00  0.00    +0.001 A 
ATOM     26  C   UNL     1      -2.558  -3.908  -0.332  0.00  0.00    +0.001 A 
ATOM     27  C   UNL     1      -2.810  -3.788   1.035  0.00  0.00    +0.000 A 
ENDBRANCH  16  20
ENDBRANCH   7  12
BRANCH   9   1
ATOM      1  O   UNL     1       6.709   0.012   0.878  0.00  0.00    -0.390 OA
ATOM     31  H   UNL     1       7.021  -0.903   0.777  0.00  0.00    +0.210 HD
ENDBRANCH   9   1
BRANCH   3  11
ATOM     11  C   UNL     1       2.654   2.368   0.116  0.00  0.00    +0.120 C 
BRANCH  11  13
ATOM     13  C   UNL     1       1.159   2.192   0.089  0.00  0.00    -0.033 A 
ATOM     14  C   UNL     1       0.446   2.461  -1.079  0.00  0.00    +0.005 A 
ATOM     15  C   UNL     1       0.487   1.761   1.233  0.00  0.00    +0.005 A 
ATOM     17  C   UNL     1      -0.939   2.298  -1.104  0.00  0.00    +0.010 A 
ATOM     18  C   UNL     1      -0.898   1.598   1.208  0.00  0.00    +0.010 A 
ATOM     19  C   UNL     1      -1.611   1.866   0.040  0.00  0.00    +0.000 A 
BRANCH  19  21
ATOM      6  N   UNL     1      -3.480   0.445   0.282  0.00  0.00    -0.255 NA
ATOM     21  C   UNL     1      -3.048   1.697   0.014  0.00  0.00    +0.071 A 
ATOM     24  C   UNL     1      -3.886   2.763  -0.269  0.00  0.00    +0.028 A 
ATOM     28  C   UNL     1      -5.257   2.529  -0.277  0.00  0.00    +0.004 A 
ATOM     29  C   UNL     1      -4.819   0.255   0.266  0.00  0.00    +0.111 A 
ATOM     30  C   UNL     1      -5.740   1.254  -0.005  0.00  0.00    +0.020 A 
ENDBRANCH  19  21
ENDBRANCH  11  13
ENDBRANCH   3  11
TORSDOF 6
