REMARK  Name = 7144189
REMARK  6 active torsions:
REMARK  status: ('A' for Active; 'I' for Inactive)
REMARK    1  A    between atoms: S_1  and  C_23
REMARK    2  A    between atoms: S_1  and  C_29
REMARK    3  A    between atoms: O_7  and  C_28
REMARK    4  A    between atoms: O_7  and  C_30
REMARK    5  A    between atoms: C_17  and  C_22
REMARK    6  A    between atoms: C_19  and  C_23
REMARK                            x       y       z     vdW  Elec       q    Type
REMARK                         _______ _______ _______ _____ _____    ______ ____
ROOT
ATOM      5  O   UNL     1      -4.423   2.157   1.217  0.00  0.00    -0.268 OA
ATOM      6  O   UNL     1      -3.799  -3.007   0.389  0.00  0.00    -0.275 OA
ATOM      8  N   UNL     1      -2.333  -1.814  -0.961  0.00  0.00    -0.300 N 
ATOM      9  N   UNL     1      -2.764   1.234  -0.154  0.00  0.00    -0.311 N 
ATOM     10  C   UNL     1      -3.351   0.004  -2.326  0.00  0.00    +0.027 C 
ATOM     11  C   UNL     1      -1.005   0.188  -1.615  0.00  0.00    +0.054 C 
ATOM     12  C   UNL     1      -1.966   0.439  -2.777  0.00  0.00    +0.018 C 
ATOM     13  C   UNL     1      -3.360  -1.487  -1.950  0.00  0.00    +0.113 C 
ATOM     14  C   UNL     1      -3.782   0.890  -1.157  0.00  0.00    +0.130 C 
ATOM     15  C   UNL     1      -0.987  -1.318  -1.280  0.00  0.00    +0.117 C 
ATOM     16  C   UNL     1      -1.392   1.001  -0.377  0.00  0.00    +0.034 A 
ATOM     17  C   UNL     1      -0.475   1.471   0.508  0.00  0.00    +0.002 A 
ATOM     18  C   UNL     1      -3.240   1.915   0.981  0.00  0.00    +0.252 A 
ATOM     19  C   UNL     1      -2.660  -2.602   0.142  0.00  0.00    +0.225 C 
ATOM     20  C   UNL     1      -0.928   2.175   1.692  0.00  0.00    +0.015 A 
ATOM     21  C   UNL     1      -2.220   2.384   1.946  0.00  0.00    +0.071 A 
ENDROOT
BRANCH  17  22
ATOM     22  C   UNL     1       0.977   1.268   0.307  0.00  0.00    -0.016 A 
ATOM     24  C   UNL     1       1.592   0.126   0.811  0.00  0.00    +0.012 A 
ATOM     25  C   UNL     1       1.718   2.221  -0.386  0.00  0.00    +0.012 A 
ATOM     26  C   UNL     1       2.960  -0.065   0.621  0.00  0.00    +0.046 A 
ATOM     27  C   UNL     1       3.086   2.030  -0.576  0.00  0.00    +0.046 A 
ATOM     28  C   UNL     1       3.708   0.887  -0.073  0.00  0.00    +0.130 A 
BRANCH  28   7
ATOM      7  O   UNL     1       5.043   0.700  -0.258  0.00  0.00    -0.406 OA
BRANCH   7  30
ATOM      2  F   UNL     1       4.598  -1.456  -0.874  0.00  0.00    -0.133 F 
ATOM      3  F   UNL     1       5.825  -1.077   0.893  0.00  0.00    -0.133 F 
ATOM      4  F   UNL     1       6.659  -0.689  -1.089  0.00  0.00    -0.133 F 
ATOM     30  C   UNL     1       5.530  -0.634  -0.350  0.00  0.00    +0.575 C 
ENDBRANCH   7  30
ENDBRANCH  28   7
ENDBRANCH  17  22
BRANCH  19  23
ATOM     23  C   UNL     1      -1.532  -2.957   1.077  0.00  0.00    +0.164 C 
BRANCH  23   1
ATOM      1  S   UNL     1      -1.433  -1.668   2.328  0.00  0.00    -0.155 S 
ATOM     29  C   UNL     1      -0.045  -2.318   3.290  0.00  0.00    +0.085 C 
ENDBRANCH  23   1
ENDBRANCH  19  23
TORSDOF 5
