REMARK  Name = 9422184
REMARK  4 active torsions:
REMARK  status: ('A' for Active; 'I' for Inactive)
REMARK    1  A    between atoms: O_3  and  C_26
REMARK    2  A    between atoms: O_3  and  C_31
REMARK    3  A    between atoms: N_6  and  C_25
REMARK    4  A    between atoms: C_14  and  C_15
REMARK                            x       y       z     vdW  Elec       q    Type
REMARK                         _______ _______ _______ _____ _____    ______ ____
ROOT
ATOM      1  O   UNL     1      -2.203  -1.574   1.902  0.00  0.00    -0.267 OA
ATOM      2  O   UNL     1       2.920  -0.500   2.063  0.00  0.00    -0.252 OA
ATOM      4  N   UNL     1      -0.658  -2.228   0.278  0.00  0.00    -0.312 N 
ATOM      5  N   UNL     1       2.510  -1.837   0.220  0.00  0.00    -0.284 N 
ATOM      6  N   UNL     1       2.794   0.492  -0.029  0.00  0.00    -0.266 N 
ATOM      7  C   UNL     1       1.213  -3.909   0.749  0.00  0.00    +0.027 C 
ATOM      8  C   UNL     1       1.022  -2.889  -1.479  0.00  0.00    +0.054 C 
ATOM      9  C   UNL     1       1.120  -4.221  -0.739  0.00  0.00    +0.018 C 
ATOM     10  C   UNL     1      -0.081  -3.219   1.196  0.00  0.00    +0.130 C 
ATOM     11  C   UNL     1       2.457  -3.052   1.039  0.00  0.00    +0.114 C 
ATOM     12  C   UNL     1       2.294  -2.053  -1.222  0.00  0.00    +0.119 C 
ATOM     13  C   UNL     1      -0.200  -2.107  -1.036  0.00  0.00    +0.027 A 
ATOM     15  C   UNL     1      -2.409  -0.547  -0.216  0.00  0.00    +0.020 A 
ATOM     16  C   UNL     1      -1.756  -1.486   0.757  0.00  0.00    +0.255 A 
ATOM     17  C   UNL     1      -0.820  -1.276  -1.891  0.00  0.00    +0.022 A 
ATOM     20  C   UNL     1      -1.940  -0.486  -1.468  0.00  0.00    +0.011 A 
ATOM     24  C   UNL     1       2.749  -0.593   0.845  0.00  0.00    +0.307 C 
ATOM     32  H   UNL     1       3.088   0.328  -0.985  0.00  0.00    +0.156 HD
ENDROOT
BRANCH  15  14
ATOM     14  C   UNL     1      -3.568   0.271   0.270  0.00  0.00    +0.024 C 
ATOM     18  C   UNL     1      -3.258   1.771   0.172  0.00  0.00    +0.008 C 
ATOM     19  C   UNL     1      -4.844  -0.073  -0.511  0.00  0.00    +0.008 C 
ATOM     21  C   UNL     1      -4.445   2.624   0.617  0.00  0.00    +0.001 C 
ATOM     22  C   UNL     1      -6.028   0.783  -0.065  0.00  0.00    +0.001 C 
ATOM     23  C   UNL     1      -5.711   2.272  -0.157  0.00  0.00    +0.000 C 
ENDBRANCH  15  14
BRANCH   6  25
ATOM     25  C   UNL     1       2.526   1.849   0.278  0.00  0.00    +0.077 A 
ATOM     26  C   UNL     1       2.706   2.841  -0.684  0.00  0.00    +0.141 A 
ATOM     27  C   UNL     1       2.079   2.183   1.554  0.00  0.00    +0.027 A 
ATOM     28  C   UNL     1       2.438   4.173  -0.368  0.00  0.00    +0.047 A 
ATOM     29  C   UNL     1       1.811   3.514   1.871  0.00  0.00    +0.002 A 
ATOM     30  C   UNL     1       1.990   4.509   0.910  0.00  0.00    +0.004 A 
BRANCH  26   3
ATOM      3  O   UNL     1       3.143   2.533  -1.938  0.00  0.00    -0.493 OA
ATOM     31  C   UNL     1       2.148   2.236  -2.915  0.00  0.00    +0.277 C 
ENDBRANCH  26   3
ENDBRANCH   6  25
TORSDOF 3
