REMARK  Name = 40777193
REMARK  8 active torsions:
REMARK  status: ('A' for Active; 'I' for Inactive)
REMARK    1  A    between atoms: S_1  and  C_31
REMARK    2  A    between atoms: S_1  and  C_34
REMARK    3  A    between atoms: N_4  and  C_15
REMARK    4  A    between atoms: N_5  and  C_16
REMARK    5  A    between atoms: N_6  and  C_22
REMARK    6  A    between atoms: N_7  and  C_25
REMARK    7  A    between atoms: C_9  and  C_15
REMARK    8  A    between atoms: C_10  and  C_16
REMARK                            x       y       z     vdW  Elec       q    Type
REMARK                         _______ _______ _______ _____ _____    ______ ____
ROOT
ATOM      3  N   UNL     1      -0.635   3.747   0.076  0.00  0.00    -0.298 NA
ATOM      8  C   UNL     1       0.937   1.940   1.092  0.00  0.00    -0.003 C 
ATOM      9  C   UNL     1       1.630   2.682  -0.073  0.00  0.00    +0.020 C 
ATOM     10  C   UNL     1      -1.334   2.434   0.129  0.00  0.00    +0.074 C 
ATOM     11  C   UNL     1      -0.376   1.313   0.588  0.00  0.00    +0.024 C 
ATOM     12  C   UNL     1       0.606   3.637  -0.728  0.00  0.00    +0.089 C 
ATOM     13  C   UNL     1       0.561   3.005   2.140  0.00  0.00    +0.019 C 
ATOM     14  C   UNL     1      -0.257   4.118   1.461  0.00  0.00    +0.085 C 
ENDROOT
BRANCH   9  15
ATOM     15  C   UNL     1       2.258   1.741  -1.098  0.00  0.00    +0.089 C 
BRANCH  15   4
ATOM      4  N   UNL     1       3.206   0.830  -0.458  0.00  0.00    -0.299 NA
ATOM      6  N   UNL     1       5.603  -0.708  -0.240  0.00  0.00    -0.327 N 
ATOM     17  C   UNL     1       4.498   1.494  -0.250  0.00  0.00    +0.103 C 
ATOM     18  C   UNL     1       3.390  -0.378  -1.273  0.00  0.00    +0.103 C 
ATOM     19  C   UNL     1       5.483   0.569   0.471  0.00  0.00    +0.120 C 
ATOM     20  C   UNL     1       4.336  -1.365  -0.586  0.00  0.00    +0.120 C 
BRANCH   6  22
ATOM     22  C   UNL     1       6.727  -1.515  -0.030  0.00  0.00    +0.030 A 
ATOM     23  C   UNL     1       7.382  -1.492   1.201  0.00  0.00    +0.023 A 
ATOM     24  C   UNL     1       7.189  -2.345  -1.051  0.00  0.00    +0.023 A 
ATOM     26  C   UNL     1       8.500  -2.300   1.411  0.00  0.00    +0.002 A 
ATOM     27  C   UNL     1       8.307  -3.153  -0.841  0.00  0.00    +0.002 A 
ATOM     28  C   UNL     1       8.962  -3.130   0.391  0.00  0.00    +0.000 A 
ENDBRANCH   6  22
ENDBRANCH  15   4
ENDBRANCH   9  15
BRANCH  10  16
ATOM     16  C   UNL     1      -2.024   2.087  -1.192  0.00  0.00    +0.124 C 
BRANCH  16   5
ATOM      2  O   UNL     1      -4.778   1.938  -0.419  0.00  0.00    -0.253 OA
ATOM      5  N   UNL     1      -2.824   0.881  -1.055  0.00  0.00    -0.298 N 
ATOM      7  N   UNL     1      -4.670  -0.398  -0.625  0.00  0.00    -0.269 N 
ATOM     21  C   UNL     1      -4.164   0.904  -0.672  0.00  0.00    +0.304 C 
ATOM     35  H   UNL     1      -2.381  -0.013  -1.243  0.00  0.00    +0.150 HD
ATOM     36  H   UNL     1      -4.025  -1.147  -0.865  0.00  0.00    +0.156 HD
BRANCH   7  25
ATOM     25  C   UNL     1      -5.979  -0.808  -0.283  0.00  0.00    +0.036 A 
ATOM     29  C   UNL     1      -6.310  -2.163  -0.290  0.00  0.00    +0.038 A 
ATOM     30  C   UNL     1      -6.940   0.143   0.060  0.00  0.00    +0.023 A 
ATOM     31  C   UNL     1      -7.602  -2.567   0.048  0.00  0.00    +0.009 A 
ATOM     32  C   UNL     1      -8.232  -0.261   0.398  0.00  0.00    +0.003 A 
ATOM     33  C   UNL     1      -8.563  -1.616   0.391  0.00  0.00    +0.015 A 
BRANCH  31   1
ATOM      1  S   UNL     1      -8.025  -4.299   0.041  0.00  0.00    -0.129 S 
ATOM     34  C   UNL     1      -6.863  -4.966   1.265  0.00  0.00    +0.090 C 
ENDBRANCH  31   1
ENDBRANCH   7  25
ENDBRANCH  16   5
ENDBRANCH  10  16
TORSDOF 7
