REMARK  Name = 7144228
REMARK  8 active torsions:
REMARK  status: ('A' for Active; 'I' for Inactive)
REMARK    1  A    between atoms: S_1  and  C_27
REMARK    2  A    between atoms: S_1  and  C_30
REMARK    3  A    between atoms: O_4  and  C_22
REMARK    4  A    between atoms: O_4  and  C_28
REMARK    5  A    between atoms: O_5  and  C_29
REMARK    6  A    between atoms: C_16  and  C_21
REMARK    7  A    between atoms: C_18  and  C_22
REMARK    8  A    between atoms: C_28  and  C_29
REMARK                            x       y       z     vdW  Elec       q    Type
REMARK                         _______ _______ _______ _____ _____    ______ ____
ROOT
ATOM      2  O   UNL     1      -1.170   3.756   2.356  0.00  0.00    -0.268 OA
ATOM      3  O   UNL     1      -3.591   0.771  -1.246  0.00  0.00    -0.273 OA
ATOM      7  N   UNL     1      -1.339   0.973  -1.781  0.00  0.00    -0.299 N 
ATOM      8  N   UNL     1      -0.071   2.645   0.611  0.00  0.00    -0.311 N 
ATOM      9  C   UNL     1      -0.444   3.297  -1.840  0.00  0.00    +0.027 C 
ATOM     10  C   UNL     1       1.056   1.432  -1.281  0.00  0.00    +0.054 C 
ATOM     11  C   UNL     1       0.959   2.749  -2.049  0.00  0.00    +0.018 C 
ATOM     12  C   UNL     1      -1.500   2.307  -2.360  0.00  0.00    +0.113 C 
ATOM     13  C   UNL     1      -0.630   3.602  -0.353  0.00  0.00    +0.130 C 
ATOM     14  C   UNL     1       0.025   0.432  -1.844  0.00  0.00    +0.117 C 
ATOM     15  C   UNL     1       0.831   1.635   0.220  0.00  0.00    +0.034 A 
ATOM     16  C   UNL     1       1.440   0.870   1.163  0.00  0.00    +0.002 A 
ATOM     17  C   UNL     1      -0.401   2.881   1.958  0.00  0.00    +0.252 A 
ATOM     18  C   UNL     1      -2.453   0.294  -1.289  0.00  0.00    +0.241 C 
ATOM     19  C   UNL     1       1.121   1.082   2.562  0.00  0.00    +0.015 A 
ATOM     20  C   UNL     1       0.250   2.009   2.961  0.00  0.00    +0.071 A 
ENDROOT
BRANCH  16  21
ATOM     21  C   UNL     1       2.407  -0.190   0.802  0.00  0.00    -0.016 A 
ATOM     23  C   UNL     1       1.955  -1.481   0.548  0.00  0.00    +0.009 A 
ATOM     24  C   UNL     1       3.763   0.112   0.719  0.00  0.00    +0.009 A 
ATOM     25  C   UNL     1       2.867  -2.480   0.207  0.00  0.00    +0.015 A 
ATOM     26  C   UNL     1       4.675  -0.887   0.379  0.00  0.00    +0.015 A 
ATOM     27  C   UNL     1       4.227  -2.183   0.123  0.00  0.00    +0.008 A 
BRANCH  27   1
ATOM      1  S   UNL     1       5.393  -3.459  -0.310  0.00  0.00    -0.129 S 
ATOM     30  C   UNL     1       4.800  -3.959  -1.952  0.00  0.00    +0.090 C 
ENDBRANCH  27   1
ENDBRANCH  16  21
BRANCH  18  22
ATOM     22  C   UNL     1      -2.220  -1.104  -0.776  0.00  0.00    +0.256 C 
BRANCH  22   4
ATOM      4  O   UNL     1      -3.460  -1.571  -0.303  0.00  0.00    -0.359 OA
BRANCH   4  28
ATOM     28  C   UNL     1      -3.372  -2.898   0.214  0.00  0.00    +0.280 C 
BRANCH  28  29
ATOM      6  O   UNL     1      -5.744  -2.675   0.690  0.00  0.00    -0.248 OA
ATOM     29  C   UNL     1      -4.722  -3.345   0.703  0.00  0.00    +0.331 C 
BRANCH  29   5
ATOM      5  O   UNL     1      -4.654  -4.617   1.169  0.00  0.00    -0.479 OA
ATOM     31  H   UNL     1      -5.523  -4.935   1.494  0.00  0.00    +0.295 HD
ENDBRANCH  29   5
ENDBRANCH  28  29
ENDBRANCH   4  28
ENDBRANCH  22   4
ENDBRANCH  18  22
TORSDOF 7
