REMARK  Name = 51137004
REMARK  3 active torsions:
REMARK  status: ('A' for Active; 'I' for Inactive)
REMARK    1  A    between atoms: C_6  and  C_10
REMARK    2  A    between atoms: C_11  and  C_14
REMARK    3  A    between atoms: C_17  and  C_21
REMARK                            x       y       z     vdW  Elec       q    Type
REMARK                         _______ _______ _______ _____ _____    ______ ____
ROOT
ATOM      1  O   UNL     1       3.183   0.982   2.218  0.00  0.00    -0.270 OA
ATOM      2  N   UNL     1       1.802   1.390   0.396  0.00  0.00    -0.297 N 
ATOM      6  C   UNL     1      -0.081   1.781  -1.006  0.00  0.00    +0.074 C 
ATOM      7  C   UNL     1       0.119   2.979  -0.066  0.00  0.00    +0.032 C 
ATOM      8  C   UNL     1       1.291   1.095  -0.944  0.00  0.00    +0.119 C 
ATOM      9  C   UNL     1       1.015   2.432   1.038  0.00  0.00    +0.109 C 
ATOM     11  C   UNL     1       2.834   0.749   1.062  0.00  0.00    +0.247 C 
ENDROOT
BRANCH   6  10
ATOM      3  N   UNL     1      -2.530   1.204  -1.082  0.00  0.00    -0.342 N 
ATOM      4  N   UNL     1      -1.276  -0.085   0.224  0.00  0.00    -0.232 NA
ATOM     10  C   UNL     1      -1.279   0.941  -0.597  0.00  0.00    +0.113 A 
ATOM     12  C   UNL     1      -3.392   0.287  -0.538  0.00  0.00    +0.066 A 
ATOM     13  C   UNL     1      -2.585  -0.506   0.273  0.00  0.00    +0.089 A 
ATOM     15  C   UNL     1      -4.765   0.089  -0.681  0.00  0.00    +0.031 A 
ATOM     16  C   UNL     1      -3.167  -1.564   0.992  0.00  0.00    +0.030 A 
ATOM     17  C   UNL     1      -5.328  -0.968   0.041  0.00  0.00    -0.048 A 
ATOM     18  C   UNL     1      -4.545  -1.782   0.864  0.00  0.00    +0.005 A 
ATOM     21  C   UNL     1      -6.794  -1.232  -0.071  0.00  0.00    +0.044 C 
ATOM     24  H   UNL     1      -2.778   1.944  -1.727  0.00  0.00    +0.167 HD
ENDBRANCH   6  10
BRANCH  11  14
ATOM      5  N   UNL     1       4.941  -2.302  -1.048  0.00  0.00    -0.263 NA
ATOM     14  C   UNL     1       3.562  -0.303   0.336  0.00  0.00    +0.040 A 
ATOM     19  C   UNL     1       4.229  -0.001  -0.847  0.00  0.00    +0.033 A 
ATOM     20  C   UNL     1       3.584  -1.603   0.827  0.00  0.00    +0.033 A 
ATOM     22  C   UNL     1       4.898  -1.027  -1.494  0.00  0.00    +0.111 A 
ATOM     23  C   UNL     1       4.282  -2.558   0.104  0.00  0.00    +0.111 A 
ENDBRANCH  11  14
TORSDOF 2
