REMARK  Name = 28963147
REMARK  11 active torsions:
REMARK  status: ('A' for Active; 'I' for Inactive)
REMARK    1  A    between atoms: O_1  and  C_11
REMARK    2  A    between atoms: N_5  and  C_15
REMARK    3  A    between atoms: N_6  and  C_24
REMARK    4  A    between atoms: N_7  and  C_25
REMARK    5  A    between atoms: C_8  and  C_18
REMARK    6  A    between atoms: C_10  and  C_20
REMARK    7  A    between atoms: C_14  and  C_19
REMARK    8  A    between atoms: C_19  and  C_21
REMARK    9  A    between atoms: C_19  and  C_22
REMARK   10  A    between atoms: C_24  and  C_26
REMARK   11  A    between atoms: C_25  and  C_27
REMARK                            x       y       z     vdW  Elec       q    Type
REMARK                         _______ _______ _______ _____ _____    ______ ____
ROOT
ATOM      8  C   UNL     1      -0.761   0.050  -1.565  0.00  0.00    -0.027 C 
ATOM      9  C   UNL     1      -0.974   0.439  -0.064  0.00  0.00    +0.028 C 
ATOM     10  C   UNL     1      -2.464   0.864   0.197  0.00  0.00    +0.012 C 
ATOM     11  C   UNL     1       0.104   1.453   0.414  0.00  0.00    +0.122 C 
ATOM     12  C   UNL     1       0.682  -0.470  -1.764  0.00  0.00    +0.007 C 
ATOM     13  C   UNL     1      -1.730  -1.098  -1.931  0.00  0.00    +0.009 C 
ATOM     14  C   UNL     1       1.544   0.974   0.118  0.00  0.00    +0.029 C 
ATOM     15  C   UNL     1      -3.432  -0.270  -0.245  0.00  0.00    +0.078 C 
ATOM     16  C   UNL     1       1.741   0.537  -1.333  0.00  0.00    +0.007 C 
ATOM     17  C   UNL     1      -3.189  -0.754  -1.674  0.00  0.00    +0.023 C 
ATOM     18  C   UNL     1      -0.997   1.242  -2.527  0.00  0.00    +0.011 C 
ATOM     20  C   UNL     1      -2.751   1.232   1.662  0.00  0.00    +0.010 C 
ENDROOT
BRANCH  15   5
ATOM      3  O   UNL     1      -5.686  -1.959   0.381  0.00  0.00    -0.253 OA
ATOM      5  N   UNL     1      -4.818   0.133  -0.126  0.00  0.00    -0.296 N 
ATOM      7  N   UNL     1      -7.073  -0.105   0.231  0.00  0.00    -0.300 N 
ATOM     23  C   UNL     1      -5.843  -0.755   0.180  0.00  0.00    +0.300 C 
ATOM     31  H   UNL     1      -5.063   1.092  -0.353  0.00  0.00    +0.151 HD
ATOM     34  H   UNL     1      -7.104   0.896   0.064  0.00  0.00    +0.150 HD
BRANCH   7  25
ATOM     25  C   UNL     1      -8.309  -0.790   0.530  0.00  0.00    +0.102 C 
ATOM     27  C   UNL     1      -8.473  -1.014   2.018  0.00  0.00    +0.024 C 
ENDBRANCH   7  25
ENDBRANCH  15   5
BRANCH  11   1
ATOM      1  O   UNL     1       0.011   1.617   1.830  0.00  0.00    -0.391 OA
ATOM     32  H   UNL     1       0.158   0.749   2.244  0.00  0.00    +0.210 HD
ENDBRANCH  11   1
BRANCH  14  19
ATOM     19  C   UNL     1       2.584   2.042   0.477  0.00  0.00    +0.077 C 
ATOM     21  C   UNL     1       2.326   3.315  -0.321  0.00  0.00    +0.017 C 
BRANCH  19  22
ATOM      2  O   UNL     1       4.577   1.653  -0.843  0.00  0.00    -0.276 OA
ATOM      6  N   UNL     1       4.510   0.842   1.329  0.00  0.00    -0.308 N 
ATOM     22  C   UNL     1       3.990   1.504   0.227  0.00  0.00    +0.217 C 
ATOM     33  H   UNL     1       3.942   0.741   2.165  0.00  0.00    +0.149 HD
BRANCH   6  24
ATOM     24  C   UNL     1       5.825   0.244   1.333  0.00  0.00    +0.178 C 
BRANCH  24  26
ATOM      4  O   UNL     1       5.343  -1.346  -0.442  0.00  0.00    -0.466 OA
ATOM     26  C   UNL     1       5.801  -1.169   0.825  0.00  0.00    +0.122 A 
ATOM     28  C   UNL     1       6.156  -2.375   1.383  0.00  0.00    +0.046 A 
ATOM     29  C   UNL     1       5.900  -3.356   0.396  0.00  0.00    +0.041 A 
ATOM     30  C   UNL     1       5.407  -2.679  -0.696  0.00  0.00    +0.195 A 
ENDBRANCH  24  26
ENDBRANCH   6  24
ENDBRANCH  19  22
ENDBRANCH  14  19
TORSDOF 7
