REMARK  Name = 75536639
REMARK  7 active torsions:
REMARK  status: ('A' for Active; 'I' for Inactive)
REMARK    1  A    between atoms: O_3  and  C_8
REMARK    2  A    between atoms: N_5  and  C_7
REMARK    3  A    between atoms: N_5  and  C_12
REMARK    4  A    between atoms: N_6  and  C_11
REMARK    5  A    between atoms: C_9  and  C_11
REMARK    6  A    between atoms: C_12  and  C_13
REMARK    7  A    between atoms: C_14  and  C_17
REMARK                            x       y       z     vdW  Elec       q    Type
REMARK                         _______ _______ _______ _____ _____    ______ ____
ROOT
ATOM      2  O   UNL     1       0.091  -0.834   0.138  0.00  0.00    -0.371 OA
ATOM      7  C   UNL     1      -1.993   0.216  -0.306  0.00  0.00    +0.111 C 
ATOM      8  C   UNL     1      -1.124   1.163   0.501  0.00  0.00    +0.164 C 
ATOM      9  C   UNL     1       0.261   0.590   0.232  0.00  0.00    +0.165 C 
ATOM     10  C   UNL     1      -1.307  -1.116  -0.047  0.00  0.00    +0.181 C 
ENDROOT
BRANCH   8   3
ATOM      3  O   UNL     1      -1.232   2.505   0.069  0.00  0.00    -0.388 OA
ATOM     27  H   UNL     1      -1.012   2.541  -0.878  0.00  0.00    +0.210 HD
ENDBRANCH   8   3
BRANCH   7   5
ATOM      5  N   UNL     1      -3.390   0.221   0.096  0.00  0.00    -0.305 NA
ATOM     26  H   UNL     1      -3.700   1.186   0.209  0.00  0.00    +0.123 HD
BRANCH   5  12
ATOM     12  C   UNL     1      -4.227  -0.431  -0.905  0.00  0.00    +0.116 C 
BRANCH  12  13
ATOM     13  C   UNL     1      -5.676  -0.450  -0.497  0.00  0.00    -0.034 A 
ATOM     15  C   UNL     1      -6.179  -1.521   0.242  0.00  0.00    +0.005 A 
ATOM     16  C   UNL     1      -6.516   0.603  -0.859  0.00  0.00    +0.005 A 
ATOM     18  C   UNL     1      -7.522  -1.538   0.620  0.00  0.00    +0.000 A 
ATOM     19  C   UNL     1      -7.858   0.586  -0.481  0.00  0.00    +0.000 A 
ATOM     20  C   UNL     1      -8.361  -0.485   0.258  0.00  0.00    +0.000 A 
ENDBRANCH  12  13
ENDBRANCH   5  12
ENDBRANCH   7   5
BRANCH   9  11
ATOM     11  C   UNL     1       1.267   0.916   1.322  0.00  0.00    +0.138 C 
BRANCH  11   6
ATOM      4  O   UNL     1       3.392   2.171  -0.146  0.00  0.00    -0.270 OA
ATOM      6  N   UNL     1       2.554   0.354   1.029  0.00  0.00    -0.309 N 
ATOM     14  C   UNL     1       3.528   1.038   0.307  0.00  0.00    +0.244 C 
ATOM     28  H   UNL     1       2.706  -0.607   1.314  0.00  0.00    +0.149 HD
BRANCH  14  17
ATOM      1  F   UNL     1       8.333  -1.721  -0.605  0.00  0.00    -0.205 F 
ATOM     17  C   UNL     1       4.799   0.307   0.066  0.00  0.00    +0.037 A 
ATOM     21  C   UNL     1       5.578   0.613  -1.051  0.00  0.00    +0.016 A 
ATOM     22  C   UNL     1       5.214  -0.684   0.955  0.00  0.00    +0.016 A 
ATOM     23  C   UNL     1       6.771  -0.072  -1.278  0.00  0.00    +0.039 A 
ATOM     24  C   UNL     1       6.408  -1.369   0.728  0.00  0.00    +0.039 A 
ATOM     25  C   UNL     1       7.186  -1.063  -0.388  0.00  0.00    +0.123 A 
ENDBRANCH  14  17
ENDBRANCH  11   6
ENDBRANCH   9  11
TORSDOF 7
