REMARK  Name = 75536788
REMARK  7 active torsions:
REMARK  status: ('A' for Active; 'I' for Inactive)
REMARK    1  A    between atoms: O_2  and  C_10
REMARK    2  A    between atoms: N_4  and  C_8
REMARK    3  A    between atoms: N_4  and  C_9
REMARK    4  A    between atoms: N_5  and  C_18
REMARK    5  A    between atoms: N_6  and  C_17
REMARK    6  A    between atoms: C_11  and  C_17
REMARK    7  A    between atoms: C_19  and  C_20
REMARK                            x       y       z     vdW  Elec       q    Type
REMARK                         _______ _______ _______ _____ _____    ______ ____
ROOT
ATOM      1  O   UNL     1       0.257   0.280  -1.016  0.00  0.00    -0.371 OA
ATOM      8  C   UNL     1      -1.826  -0.500  -0.182  0.00  0.00    +0.111 C 
ATOM     10  C   UNL     1      -0.800  -1.613  -0.072  0.00  0.00    +0.164 C 
ATOM     11  C   UNL     1       0.499  -0.821  -0.125  0.00  0.00    +0.165 C 
ATOM     14  C   UNL     1      -1.164   0.420  -1.195  0.00  0.00    +0.181 C 
ENDROOT
BRANCH  10   2
ATOM      2  O   UNL     1      -0.920  -2.350   1.129  0.00  0.00    -0.388 OA
ATOM     26  H   UNL     1      -0.855  -1.730   1.876  0.00  0.00    +0.210 HD
ENDBRANCH  10   2
BRANCH   8   4
ATOM      4  N   UNL     1      -3.139  -0.957  -0.606  0.00  0.00    -0.306 NA
ATOM     25  H   UNL     1      -3.390  -1.813  -0.114  0.00  0.00    +0.123 HD
BRANCH   4   9
ATOM      5  N   UNL     1      -6.857   0.796   0.478  0.00  0.00    -0.305 NA
ATOM      9  C   UNL     1      -4.149   0.071  -0.364  0.00  0.00    +0.056 C 
ATOM     12  C   UNL     1      -4.579   0.056   1.105  0.00  0.00    +0.034 C 
ATOM     13  C   UNL     1      -5.369  -0.135  -1.267  0.00  0.00    +0.034 C 
ATOM     15  C   UNL     1      -5.708   1.059   1.357  0.00  0.00    +0.085 C 
ATOM     16  C   UNL     1      -6.472   0.874  -0.938  0.00  0.00    +0.085 C 
ATOM     18  C   UNL     1      -7.945   1.730   0.765  0.00  0.00    +0.104 C 
ENDBRANCH   4   9
ENDBRANCH   8   4
BRANCH  11  17
ATOM     17  C   UNL     1       1.679  -1.636  -0.625  0.00  0.00    +0.138 C 
BRANCH  17   6
ATOM      3  O   UNL     1       3.592  -1.327   1.493  0.00  0.00    -0.270 OA
ATOM      6  N   UNL     1       2.878  -0.850  -0.662  0.00  0.00    -0.309 N 
ATOM     19  C   UNL     1       3.752  -0.757   0.417  0.00  0.00    +0.244 C 
ATOM     27  H   UNL     1       3.035  -0.298  -1.499  0.00  0.00    +0.149 HD
BRANCH  19  20
ATOM      7  N   UNL     1       7.162   1.773  -0.126  0.00  0.00    -0.263 NA
ATOM     20  C   UNL     1       4.936   0.119   0.228  0.00  0.00    +0.040 A 
ATOM     21  C   UNL     1       5.537   0.726   1.326  0.00  0.00    +0.033 A 
ATOM     22  C   UNL     1       5.447   0.339  -1.046  0.00  0.00    +0.033 A 
ATOM     23  C   UNL     1       6.638   1.536   1.097  0.00  0.00    +0.111 A 
ATOM     24  C   UNL     1       6.551   1.167  -1.169  0.00  0.00    +0.111 A 
ENDBRANCH  19  20
ENDBRANCH  17   6
ENDBRANCH  11  17
TORSDOF 6
