REMARK  Name = 11912001
REMARK  8 active torsions:
REMARK  status: ('A' for Active; 'I' for Inactive)
REMARK    1  A    between atoms: O_4  and  C_27
REMARK    2  A    between atoms: O_4  and  C_33
REMARK    3  A    between atoms: O_5  and  C_32
REMARK    4  A    between atoms: O_5  and  C_34
REMARK    5  A    between atoms: N_6  and  C_12
REMARK    6  A    between atoms: N_7  and  C_13
REMARK    7  A    between atoms: C_16  and  C_18
REMARK    8  A    between atoms: C_19  and  C_24
REMARK                            x       y       z     vdW  Elec       q    Type
REMARK                         _______ _______ _______ _____ _____    ______ ____
ROOT
ATOM      1  O   UNL     1      -0.700   4.077   0.853  0.00  0.00    -0.370 OA
ATOM      2  O   UNL     1      -0.099   1.197   1.893  0.00  0.00    -0.370 OA
ATOM     10  C   UNL     1      -1.091   2.767   0.407  0.00  0.00    +0.171 C 
ATOM     11  C   UNL     1       0.093   1.845   0.624  0.00  0.00    +0.171 C 
ATOM     12  C   UNL     1      -2.166   2.204   1.307  0.00  0.00    +0.130 C 
ATOM     13  C   UNL     1       1.281   2.776   0.686  0.00  0.00    +0.130 C 
ATOM     14  C   UNL     1       0.678   4.048   1.254  0.00  0.00    +0.185 C 
ATOM     15  C   UNL     1      -1.357   1.609   2.446  0.00  0.00    +0.185 C 
ENDROOT
BRANCH  13   7
ATOM      7  N   UNL     1       1.791   3.016  -0.646  0.00  0.00    -0.306 N 
ATOM      8  N   UNL     1       3.120   1.082  -0.604  0.00  0.00    -0.214 NA
ATOM      9  N   UNL     1       3.093   2.523  -2.535  0.00  0.00    -0.223 NA
ATOM     17  C   UNL     1       2.695   2.182  -1.281  0.00  0.00    +0.216 A 
ATOM     19  C   UNL     1       4.001   0.292  -1.252  0.00  0.00    +0.076 A 
ATOM     22  C   UNL     1       3.975   1.689  -3.124  0.00  0.00    +0.116 A 
ATOM     23  C   UNL     1       4.468   0.548  -2.526  0.00  0.00    +0.048 A 
ATOM     36  H   UNL     1       1.442   3.804  -1.179  0.00  0.00    +0.149 HD
BRANCH  19  24
ATOM     24  C   UNL     1       4.438  -0.870  -0.517  0.00  0.00    +0.001 A 
ATOM     28  C   UNL     1       5.713  -1.398  -0.733  0.00  0.00    +0.013 A 
ATOM     29  C   UNL     1       3.587  -1.472   0.413  0.00  0.00    +0.013 A 
ATOM     30  C   UNL     1       6.135  -2.522  -0.023  0.00  0.00    +0.046 A 
ATOM     31  C   UNL     1       4.009  -2.596   1.124  0.00  0.00    +0.046 A 
ATOM     32  C   UNL     1       5.283  -3.121   0.906  0.00  0.00    +0.120 A 
BRANCH  32   5
ATOM      5  O   UNL     1       5.694  -4.218   1.598  0.00  0.00    -0.495 OA
ATOM     34  C   UNL     1       4.773  -4.780   2.531  0.00  0.00    +0.277 C 
ENDBRANCH  32   5
ENDBRANCH  19  24
ENDBRANCH  13   7
BRANCH  12   6
ATOM      3  O   UNL     1      -4.866   1.423   1.897  0.00  0.00    -0.270 OA
ATOM      6  N   UNL     1      -2.938   1.191   0.629  0.00  0.00    -0.304 N 
ATOM     16  C   UNL     1      -4.242   0.883   0.987  0.00  0.00    +0.244 C 
ATOM     35  H   UNL     1      -2.449   0.625  -0.056  0.00  0.00    +0.149 HD
BRANCH  16  18
ATOM     18  C   UNL     1      -4.891  -0.203   0.208  0.00  0.00    +0.037 A 
ATOM     20  C   UNL     1      -4.473  -0.437  -1.086  0.00  0.00    +0.016 A 
ATOM     21  C   UNL     1      -5.893  -0.942   0.803  0.00  0.00    +0.016 A 
ATOM     25  C   UNL     1      -5.083  -1.456  -1.817  0.00  0.00    +0.046 A 
ATOM     26  C   UNL     1      -6.503  -1.961   0.071  0.00  0.00    +0.046 A 
ATOM     27  C   UNL     1      -6.099  -2.217  -1.239  0.00  0.00    +0.120 A 
BRANCH  27   4
ATOM      4  O   UNL     1      -6.695  -3.210  -1.953  0.00  0.00    -0.495 OA
ATOM     33  C   UNL     1      -7.728  -3.949  -1.302  0.00  0.00    +0.277 C 
ENDBRANCH  27   4
ENDBRANCH  16  18
ENDBRANCH  12   6
TORSDOF 6
