REMARK  Name = 11885929
REMARK  3 active torsions:
REMARK  status: ('A' for Active; 'I' for Inactive)
REMARK    1  A    between atoms: N_7  and  C_22
REMARK    2  A    between atoms: N_8  and  C_20
REMARK    3  A    between atoms: N_9  and  C_29
REMARK                            x       y       z     vdW  Elec       q    Type
REMARK                         _______ _______ _______ _____ _____    ______ ____
ROOT
ATOM      2  O   UNL     1      -0.389   2.446   2.069  0.00  0.00    -0.266 OA
ATOM      3  O   UNL     1      -3.780  -1.509   1.668  0.00  0.00    -0.252 OA
ATOM      5  N   UNL     1      -4.230   0.002  -0.026  0.00  0.00    -0.284 N 
ATOM      6  N   UNL     1      -1.967   2.218   0.360  0.00  0.00    -0.310 N 
ATOM      7  N   UNL     1      -3.005  -1.965  -0.469  0.00  0.00    -0.269 N 
ATOM     10  C   UNL     1      -4.489   2.356   0.776  0.00  0.00    +0.027 C 
ATOM     11  C   UNL     1      -3.649   1.929  -1.494  0.00  0.00    +0.054 C 
ATOM     12  C   UNL     1      -4.562   2.832  -0.669  0.00  0.00    +0.018 C 
ATOM     13  C   UNL     1      -4.956   0.894   0.882  0.00  0.00    +0.114 C 
ATOM     14  C   UNL     1      -3.057   2.542   1.291  0.00  0.00    +0.130 C 
ATOM     15  C   UNL     1      -4.151   0.471  -1.421  0.00  0.00    +0.119 C 
ATOM     16  C   UNL     1      -2.216   2.000  -0.998  0.00  0.00    +0.027 A 
ATOM     17  C   UNL     1      -1.195   1.820  -1.852  0.00  0.00    +0.024 A 
ATOM     18  C   UNL     1      -0.659   2.241   0.884  0.00  0.00    +0.273 A 
ATOM     19  C   UNL     1      -3.667  -1.190   0.481  0.00  0.00    +0.306 C 
ATOM     20  C   UNL     1       0.450   2.011  -0.095  0.00  0.00    +0.100 A 
ATOM     21  C   UNL     1       0.164   1.825  -1.388  0.00  0.00    +0.030 A 
ATOM     35  H   UNL     1      -3.305  -1.902  -1.435  0.00  0.00    +0.156 HD
ENDROOT
BRANCH   7  22
ATOM      1  F   UNL     1       1.061  -5.618   0.436  0.00  0.00    -0.205 F 
ATOM     22  C   UNL     1      -1.964  -2.898  -0.238  0.00  0.00    +0.035 A 
ATOM     24  C   UNL     1      -1.475  -3.664  -1.292  0.00  0.00    +0.026 A 
ATOM     25  C   UNL     1      -1.438  -3.045   1.043  0.00  0.00    +0.026 A 
ATOM     26  C   UNL     1      -0.451  -4.584  -1.065  0.00  0.00    +0.040 A 
ATOM     27  C   UNL     1      -0.414  -3.965   1.270  0.00  0.00    +0.040 A 
ATOM     28  C   UNL     1       0.079  -4.734   0.217  0.00  0.00    +0.124 A 
ENDBRANCH   7  22
BRANCH  20   8
ATOM      4  O   UNL     1       2.633   0.548  -1.182  0.00  0.00    -0.252 OA
ATOM      8  N   UNL     1       1.730   2.010   0.375  0.00  0.00    -0.265 N 
ATOM      9  N   UNL     1       3.959   1.482   0.515  0.00  0.00    -0.269 N 
ATOM     23  C   UNL     1       2.773   1.270  -0.197  0.00  0.00    +0.308 C 
ATOM     36  H   UNL     1       1.874   2.363   1.317  0.00  0.00    +0.157 HD
ATOM     37  H   UNL     1       3.906   2.115   1.309  0.00  0.00    +0.156 HD
BRANCH   9  29
ATOM     29  C   UNL     1       5.234   0.924   0.264  0.00  0.00    +0.035 A 
ATOM     30  C   UNL     1       6.296   1.259   1.089  0.00  0.00    +0.023 A 
ATOM     31  C   UNL     1       5.396   0.053  -0.801  0.00  0.00    +0.023 A 
ATOM     32  C   UNL     1       7.553   0.708   0.842  0.00  0.00    +0.002 A 
ATOM     33  C   UNL     1       6.653  -0.498  -1.048  0.00  0.00    +0.002 A 
ATOM     34  C   UNL     1       7.732  -0.171  -0.226  0.00  0.00    +0.000 A 
ENDBRANCH   9  29
ENDBRANCH  20   8
TORSDOF 3
