REMARK  Name = 75368486
REMARK  4 active torsions:
REMARK  status: ('A' for Active; 'I' for Inactive)
REMARK    1  A    between atoms: O_3  and  C_24
REMARK    2  A    between atoms: O_3  and  C_27
REMARK    3  A    between atoms: N_4  and  C_9
REMARK    4  A    between atoms: N_7  and  C_21
REMARK                            x       y       z     vdW  Elec       q    Type
REMARK                         _______ _______ _______ _____ _____    ______ ____
ROOT
ATOM      1  O   UNL     1       4.269  -2.417   0.209  0.00  0.00    -0.252 OA
ATOM      2  O   UNL     1      -2.636  -2.721   0.220  0.00  0.00    -0.252 OA
ATOM      4  N   UNL     1       3.659  -0.140   0.142  0.00  0.00    -0.281 N 
ATOM      5  N   UNL     1       2.037  -1.687   0.301  0.00  0.00    -0.278 N 
ATOM      6  N   UNL     1      -0.676  -1.612  -0.296  0.00  0.00    -0.282 N 
ATOM      7  N   UNL     1      -2.617  -0.402   0.276  0.00  0.00    -0.269 N 
ATOM      8  C   UNL     1       1.342  -0.414   0.405  0.00  0.00    +0.112 C 
ATOM     10  C   UNL     1       2.420   0.615   0.075  0.00  0.00    +0.133 C 
ATOM     13  C   UNL     1       0.136  -0.399  -0.527  0.00  0.00    +0.133 C 
ATOM     14  C   UNL     1       3.428  -1.528   0.220  0.00  0.00    +0.305 C 
ATOM     15  C   UNL     1       1.290  -2.931   0.390  0.00  0.00    +0.128 C 
ATOM     19  C   UNL     1       0.057  -2.869  -0.512  0.00  0.00    +0.128 C 
ATOM     20  C   UNL     1      -2.037  -1.653   0.072  0.00  0.00    +0.307 C 
ATOM     28  H   UNL     1      -2.019   0.357   0.585  0.00  0.00    +0.156 HD
ENDROOT
BRANCH   4   9
ATOM      9  C   UNL     1       4.948   0.493  -0.003  0.00  0.00    +0.078 C 
ATOM     11  C   UNL     1       5.247   1.383   1.206  0.00  0.00    +0.022 C 
ATOM     12  C   UNL     1       5.019   1.285  -1.311  0.00  0.00    +0.022 C 
ATOM     16  C   UNL     1       6.582   2.107   1.054  0.00  0.00    +0.002 C 
ATOM     17  C   UNL     1       6.355   2.008  -1.458  0.00  0.00    +0.002 C 
ATOM     18  C   UNL     1       6.652   2.894  -0.252  0.00  0.00    +0.000 C 
ENDBRANCH   4   9
BRANCH   7  21
ATOM     21  C   UNL     1      -3.972  -0.040   0.074  0.00  0.00    +0.038 A 
ATOM     22  C   UNL     1      -4.390   1.266   0.329  0.00  0.00    +0.069 A 
ATOM     23  C   UNL     1      -4.887  -0.989  -0.380  0.00  0.00    +0.023 A 
ATOM     24  C   UNL     1      -5.724   1.623   0.130  0.00  0.00    +0.122 A 
ATOM     25  C   UNL     1      -6.221  -0.633  -0.579  0.00  0.00    +0.005 A 
ATOM     26  C   UNL     1      -6.640   0.673  -0.324  0.00  0.00    +0.046 A 
BRANCH  24   3
ATOM      3  O   UNL     1      -6.132   2.897   0.381  0.00  0.00    -0.495 OA
ATOM     27  C   UNL     1      -7.510   3.192   0.158  0.00  0.00    +0.277 C 
ENDBRANCH  24   3
ENDBRANCH   7  21
TORSDOF 3
