REMARK  Name = 45783463
REMARK  11 active torsions:
REMARK  status: ('A' for Active; 'I' for Inactive)
REMARK    1  A    between atoms: O_5  and  C_22
REMARK    2  A    between atoms: O_5  and  C_29
REMARK    3  A    between atoms: O_6  and  C_27
REMARK    4  A    between atoms: O_6  and  C_31
REMARK    5  A    between atoms: O_7  and  C_32
REMARK    6  A    between atoms: O_7  and  C_33
REMARK    7  A    between atoms: N_8  and  C_16
REMARK    8  A    between atoms: C_12  and  C_17
REMARK    9  A    between atoms: C_16  and  C_18
REMARK   10  A    between atoms: C_21  and  C_25
REMARK   11  A    between atoms: C_31  and  C_32
REMARK                            x       y       z     vdW  Elec       q    Type
REMARK                         _______ _______ _______ _____ _____    ______ ____
ROOT
ATOM      8  N   UNL     1      -3.414   0.256  -1.527  0.00  0.00    -0.287 NA
ATOM     12  C   UNL     1      -3.422  -1.183  -1.196  0.00  0.00    +0.146 C 
ATOM     13  C   UNL     1      -3.434  -1.898  -2.559  0.00  0.00    +0.030 C 
ATOM     14  C   UNL     1      -3.494  -0.783  -3.593  0.00  0.00    +0.017 C 
ATOM     15  C   UNL     1      -4.078   0.385  -2.824  0.00  0.00    +0.085 C 
ENDROOT
BRANCH  12  17
ATOM      4  O   UNL     1      -2.540  -2.172   0.858  0.00  0.00    -0.336 OA
ATOM      9  N   UNL     1      -0.963  -1.458  -0.563  0.00  0.00    -0.189 NA
ATOM     10  N   UNL     1      -1.311  -2.453   1.467  0.00  0.00    -0.054 NA
ATOM     17  C   UNL     1      -2.245  -1.588  -0.333  0.00  0.00    +0.245 A 
ATOM     21  C   UNL     1      -0.430  -2.002   0.569  0.00  0.00    +0.221 A 
BRANCH  21  25
ATOM     11  N   UNL     1       1.383  -2.645   1.935  0.00  0.00    -0.252 NA
ATOM     25  C   UNL     1       0.988  -2.083   0.770  0.00  0.00    +0.115 A 
ATOM     26  C   UNL     1       1.859  -1.602  -0.194  0.00  0.00    +0.077 A 
ATOM     27  C   UNL     1       3.224  -1.705   0.053  0.00  0.00    +0.124 A 
ATOM     28  C   UNL     1       2.716  -2.727   2.140  0.00  0.00    +0.115 A 
ATOM     30  C   UNL     1       3.669  -2.277   1.240  0.00  0.00    +0.065 A 
BRANCH  27   6
ATOM      6  O   UNL     1       4.120  -1.248  -0.863  0.00  0.00    -0.490 OA
BRANCH   6  31
ATOM     31  C   UNL     1       3.713  -0.149  -1.678  0.00  0.00    +0.257 C 
BRANCH  31  32
ATOM     32  C   UNL     1       4.931   0.682  -2.031  0.00  0.00    +0.200 C 
BRANCH  32   7
ATOM      7  O   UNL     1       5.517   1.180  -0.834  0.00  0.00    -0.380 OA
ATOM     33  C   UNL     1       6.679   1.951  -1.105  0.00  0.00    +0.194 C 
ENDBRANCH  32   7
ENDBRANCH  31  32
ENDBRANCH   6  31
ENDBRANCH  27   6
ENDBRANCH  21  25
ENDBRANCH  12  17
BRANCH   8  16
ATOM     16  C   UNL     1      -4.041   1.085  -0.505  0.00  0.00    +0.120 C 
BRANCH  16  18
ATOM     18  C   UNL     1      -3.118   1.336   0.657  0.00  0.00    -0.030 A 
ATOM     19  C   UNL     1      -1.886   1.956   0.448  0.00  0.00    +0.051 A 
ATOM     20  C   UNL     1      -3.493   0.948   1.943  0.00  0.00    +0.005 A 
ATOM     22  C   UNL     1      -1.030   2.189   1.524  0.00  0.00    +0.130 A 
ATOM     23  C   UNL     1      -2.637   1.180   3.020  0.00  0.00    +0.004 A 
ATOM     24  C   UNL     1      -1.406   1.801   2.811  0.00  0.00    +0.046 A 
BRANCH  22   5
ATOM      5  O   UNL     1       0.172   2.793   1.319  0.00  0.00    -0.406 OA
BRANCH   5  29
ATOM      1  F   UNL     1       0.503   1.401  -0.465  0.00  0.00    -0.133 F 
ATOM      2  F   UNL     1       2.156   2.638   0.254  0.00  0.00    -0.133 F 
ATOM      3  F   UNL     1       0.494   3.586  -0.802  0.00  0.00    -0.133 F 
ATOM     29  C   UNL     1       0.817   2.603   0.065  0.00  0.00    +0.575 C 
ENDBRANCH   5  29
ENDBRANCH  22   5
ENDBRANCH  16  18
ENDBRANCH   8  16
TORSDOF 10
