REMARK  Name = 75536951
REMARK  6 active torsions:
REMARK  status: ('A' for Active; 'I' for Inactive)
REMARK    1  A    between atoms: O_2  and  C_6
REMARK    2  A    between atoms: N_3  and  C_8
REMARK    3  A    between atoms: N_4  and  C_14
REMARK    4  A    between atoms: N_4  and  C_17
REMARK    5  A    between atoms: N_4  and  C_18
REMARK    6  A    between atoms: C_8  and  C_11
REMARK                            x       y       z     vdW  Elec       q    Type
REMARK                         _______ _______ _______ _____ _____    ______ ____
ROOT
ATOM      8  C   UNL     1       0.725  -1.547   0.321  0.00  0.00    +0.119 C 
ENDROOT
BRANCH   8   3
ATOM      1  O   UNL     1       3.659   1.898   0.615  0.00  0.00    -0.376 OA
ATOM      3  N   UNL     1       1.737  -0.509   0.125  0.00  0.00    -0.293 NA
ATOM      5  C   UNL     1       2.982  -1.106  -0.372  0.00  0.00    +0.118 C 
ATOM      6  C   UNL     1       4.268  -0.270  -0.272  0.00  0.00    +0.154 C 
ATOM      7  C   UNL     1       1.899   0.315   1.325  0.00  0.00    +0.113 C 
ATOM      9  C   UNL     1       4.077   1.213  -0.560  0.00  0.00    +0.192 C 
ATOM     10  C   UNL     1       2.282   1.742   0.930  0.00  0.00    +0.175 C 
BRANCH   6   2
ATOM      2  O   UNL     1       5.207  -0.785  -1.217  0.00  0.00    -0.388 OA
ATOM     19  H   UNL     1       5.351  -1.723  -1.004  0.00  0.00    +0.210 HD
ENDBRANCH   6   2
ENDBRANCH   8   3
BRANCH   8  11
ATOM     11  C   UNL     1      -0.671  -1.005   0.163  0.00  0.00    -0.033 A 
ATOM     12  C   UNL     1      -1.583  -1.106   1.214  0.00  0.00    +0.007 A 
ATOM     13  C   UNL     1      -1.053  -0.401  -1.035  0.00  0.00    +0.007 A 
ATOM     14  C   UNL     1      -3.257   0.000  -0.131  0.00  0.00    +0.029 A 
ATOM     15  C   UNL     1      -2.875  -0.604   1.067  0.00  0.00    +0.023 A 
ATOM     16  C   UNL     1      -2.346   0.102  -1.182  0.00  0.00    +0.023 A 
BRANCH  14   4
ATOM      4  N   UNL     1      -4.564   0.509  -0.279  0.00  0.00    -0.336 N 
ATOM     17  C   UNL     1      -4.968   1.145  -1.518  0.00  0.00    +0.129 C 
ATOM     18  C   UNL     1      -5.518   0.409   0.807  0.00  0.00    +0.129 C 
ENDBRANCH  14   4
ENDBRANCH   8  11
TORSDOF 4
