REMARK  Name = 26742618
REMARK  10 active torsions:
REMARK  status: ('A' for Active; 'I' for Inactive)
REMARK    1  A    between atoms: O_4  and  C_28
REMARK    2  A    between atoms: O_4  and  C_29
REMARK    3  A    between atoms: N_6  and  C_20
REMARK    4  A    between atoms: N_6  and  C_21
REMARK    5  A    between atoms: C_9  and  C_14
REMARK    6  A    between atoms: C_10  and  C_15
REMARK    7  A    between atoms: C_14  and  C_17
REMARK    8  A    between atoms: C_15  and  C_16
REMARK    9  A    between atoms: C_19  and  C_22
REMARK   10  A    between atoms: C_20  and  C_23
REMARK                            x       y       z     vdW  Elec       q    Type
REMARK                         _______ _______ _______ _____ _____    ______ ____
ROOT
ATOM      5  N   UNL     1       1.405   3.055   1.611  0.00  0.00    -0.316 NA
ATOM      9  C   UNL     1       2.796   1.529  -0.497  0.00  0.00    +0.004 C 
ATOM     10  C   UNL     1       1.292   1.342  -0.183  0.00  0.00    +0.012 C 
ATOM     11  C   UNL     1       3.231   2.934  -0.048  0.00  0.00    +0.019 C 
ATOM     12  C   UNL     1       0.968   1.699   1.277  0.00  0.00    +0.085 C 
ATOM     13  C   UNL     1       2.840   3.231   1.399  0.00  0.00    +0.081 C 
ATOM     30  H   UNL     1       1.182   3.252   2.586  0.00  0.00    +0.122 HD
ENDROOT
BRANCH   9  14
ATOM     14  C   UNL     1       3.700   0.455   0.119  0.00  0.00    +0.100 C 
BRANCH  14  17
ATOM      1  O   UNL     1       5.306   1.081  -1.546  0.00  0.00    -0.276 OA
ATOM      6  N   UNL     1       5.927  -0.605  -0.079  0.00  0.00    -0.296 N 
ATOM     17  C   UNL     1       5.042   0.352  -0.586  0.00  0.00    +0.216 C 
ATOM     21  C   UNL     1       7.252  -0.823  -0.648  0.00  0.00    +0.132 C 
BRANCH   6  20
ATOM     20  C   UNL     1       5.591  -1.458   1.059  0.00  0.00    +0.202 C 
BRANCH  20  23
ATOM      3  O   UNL     1       4.675  -2.953  -0.611  0.00  0.00    -0.274 OA
ATOM      8  N   UNL     1       4.607  -3.580   1.600  0.00  0.00    -0.328 N 
ATOM     23  C   UNL     1       4.933  -2.726   0.568  0.00  0.00    +0.228 C 
ATOM     31  H   UNL     1       4.817  -3.365   2.569  0.00  0.00    +0.145 HD
ATOM     32  H   UNL     1       4.145  -4.465   1.418  0.00  0.00    +0.145 HD
ENDBRANCH  20  23
ENDBRANCH   6  20
ENDBRANCH  14  17
ENDBRANCH   9  14
BRANCH  10  15
ATOM     15  C   UNL     1       0.779  -0.059  -0.520  0.00  0.00    +0.064 C 
BRANCH  15  16
ATOM      2  O   UNL     1      -2.596   0.081  -1.766  0.00  0.00    -0.354 OA
ATOM      7  N   UNL     1      -1.219   0.152  -1.936  0.00  0.00    -0.083 NA
ATOM     16  C   UNL     1      -0.709  -0.063  -0.720  0.00  0.00    +0.085 A 
ATOM     18  C   UNL     1      -1.706  -0.273   0.248  0.00  0.00    +0.076 A 
ATOM     19  C   UNL     1      -2.874  -0.172  -0.461  0.00  0.00    +0.167 A 
BRANCH  19  22
ATOM     22  C   UNL     1      -4.266  -0.274  -0.131  0.00  0.00    +0.020 A 
ATOM     24  C   UNL     1      -4.654  -0.532   1.184  0.00  0.00    +0.015 A 
ATOM     25  C   UNL     1      -5.232  -0.115  -1.125  0.00  0.00    +0.015 A 
ATOM     26  C   UNL     1      -6.008  -0.631   1.505  0.00  0.00    +0.046 A 
ATOM     27  C   UNL     1      -6.585  -0.214  -0.804  0.00  0.00    +0.046 A 
ATOM     28  C   UNL     1      -6.973  -0.472   0.511  0.00  0.00    +0.120 A 
BRANCH  28   4
ATOM      4  O   UNL     1      -8.295  -0.568   0.824  0.00  0.00    -0.495 OA
ATOM     29  C   UNL     1      -9.228  -0.394  -0.241  0.00  0.00    +0.277 C 
ENDBRANCH  28   4
ENDBRANCH  19  22
ENDBRANCH  15  16
ENDBRANCH  10  15
TORSDOF 8
