REMARK  Name = 75367106
REMARK  6 active torsions:
REMARK  status: ('A' for Active; 'I' for Inactive)
REMARK    1  A    between atoms: O_2  and  C_9
REMARK    2  A    between atoms: N_4  and  C_7
REMARK    3  A    between atoms: N_4  and  C_8
REMARK    4  A    between atoms: N_5  and  C_17
REMARK    5  A    between atoms: N_6  and  C_19
REMARK    6  A    between atoms: C_12  and  C_17
REMARK                            x       y       z     vdW  Elec       q    Type
REMARK                         _______ _______ _______ _____ _____    ______ ____
ROOT
ATOM      1  O   UNL     1      -0.698  -0.595  -1.253  0.00  0.00    -0.371 OA
ATOM      8  C   UNL     1      -2.673  -0.387   0.049  0.00  0.00    +0.111 C 
ATOM      9  C   UNL     1      -1.674  -1.249   0.799  0.00  0.00    +0.164 C 
ATOM     12  C   UNL     1      -0.371  -0.842   0.125  0.00  0.00    +0.165 C 
ATOM     13  C   UNL     1      -2.124  -0.454  -1.367  0.00  0.00    +0.181 C 
ENDROOT
BRANCH   9   2
ATOM      2  O   UNL     1      -1.656  -0.980   2.188  0.00  0.00    -0.388 OA
ATOM     26  H   UNL     1      -1.475  -0.033   2.314  0.00  0.00    +0.210 HD
ENDBRANCH   9   2
BRANCH   8   4
ATOM      4  N   UNL     1      -4.044  -0.862   0.148  0.00  0.00    -0.306 NA
ATOM     25  H   UNL     1      -4.251  -1.139   1.107  0.00  0.00    +0.123 HD
BRANCH   4   7
ATOM      7  C   UNL     1      -4.982   0.171  -0.285  0.00  0.00    +0.054 C 
ATOM     10  C   UNL     1      -6.324  -0.468  -0.661  0.00  0.00    +0.019 C 
ATOM     11  C   UNL     1      -5.158   1.213   0.825  0.00  0.00    +0.019 C 
ATOM     14  C   UNL     1      -7.356   0.591  -1.046  0.00  0.00    +0.002 C 
ATOM     15  C   UNL     1      -6.191   2.270   0.437  0.00  0.00    +0.002 C 
ATOM     16  C   UNL     1      -7.525   1.637   0.051  0.00  0.00    +0.000 C 
ENDBRANCH   4   7
ENDBRANCH   8   4
BRANCH  12  17
ATOM     17  C   UNL     1       0.709  -1.905   0.214  0.00  0.00    +0.140 C 
BRANCH  17   5
ATOM      3  O   UNL     1       2.889  -0.481   1.407  0.00  0.00    -0.253 OA
ATOM      5  N   UNL     1       1.914  -1.480  -0.437  0.00  0.00    -0.297 N 
ATOM      6  N   UNL     1       3.988  -0.503  -0.666  0.00  0.00    -0.269 N 
ATOM     18  C   UNL     1       2.943  -0.783   0.217  0.00  0.00    +0.304 C 
ATOM     27  H   UNL     1       2.022  -1.684  -1.426  0.00  0.00    +0.150 HD
ATOM     28  H   UNL     1       3.874  -0.825  -1.624  0.00  0.00    +0.156 HD
BRANCH   6  19
ATOM     19  C   UNL     1       5.197   0.179  -0.393  0.00  0.00    +0.035 A 
ATOM     20  C   UNL     1       6.135   0.370  -1.408  0.00  0.00    +0.023 A 
ATOM     21  C   UNL     1       5.451   0.660   0.891  0.00  0.00    +0.023 A 
ATOM     22  C   UNL     1       7.327   1.042  -1.139  0.00  0.00    +0.002 A 
ATOM     23  C   UNL     1       6.643   1.333   1.160  0.00  0.00    +0.002 A 
ATOM     24  C   UNL     1       7.581   1.523   0.145  0.00  0.00    +0.000 A 
ENDBRANCH   6  19
ENDBRANCH  17   5
ENDBRANCH  12  17
TORSDOF 6
