REMARK  Name = 38028459
REMARK  11 active torsions:
REMARK  status: ('A' for Active; 'I' for Inactive)
REMARK    1  A    between atoms: N_3  and  C_14
REMARK    2  A    between atoms: N_4  and  C_19
REMARK    3  A    between atoms: N_5  and  C_27
REMARK    4  A    between atoms: C_7  and  C_11
REMARK    5  A    between atoms: C_8  and  C_14
REMARK    6  A    between atoms: C_10  and  C_15
REMARK    7  A    between atoms: C_11  and  C_16
REMARK    8  A    between atoms: C_11  and  C_17
REMARK    9  A    between atoms: C_12  and  C_18
REMARK   10  A    between atoms: C_15  and  C_22
REMARK   11  A    between atoms: C_27  and  C_28
REMARK                            x       y       z     vdW  Elec       q    Type
REMARK                         _______ _______ _______ _____ _____    ______ ____
ROOT
ATOM      7  C   UNL     1       0.239  -2.191  -0.900  0.00  0.00    +0.000 C 
ATOM      8  C   UNL     1      -0.954  -3.178  -0.936  0.00  0.00    +0.032 C 
ATOM      9  C   UNL     1       1.259  -2.621   0.165  0.00  0.00    +0.012 C 
ATOM     10  C   UNL     1       0.638  -2.688   1.573  0.00  0.00    +0.023 C 
ATOM     12  C   UNL     1      -0.687  -3.422   1.569  0.00  0.00    -0.073 C 
ATOM     13  C   UNL     1      -1.377  -3.644   0.437  0.00  0.00    -0.022 C 
ATOM     18  C   UNL     1      -1.179  -3.937   2.893  0.00  0.00    +0.039 C 
ENDROOT
BRANCH   7  11
ATOM     11  C   UNL     1       0.928  -2.081  -2.264  0.00  0.00    -0.013 C 
ATOM     16  C   UNL     1       1.653  -0.744  -2.388  0.00  0.00    +0.007 C 
ATOM     17  C   UNL     1       1.897  -3.242  -2.465  0.00  0.00    +0.007 C 
ENDBRANCH   7  11
BRANCH   8  14
ATOM     14  C   UNL     1      -2.157  -2.566  -1.662  0.00  0.00    +0.113 C 
BRANCH  14   3
ATOM      2  O   UNL     1      -2.366   0.148  -2.588  0.00  0.00    -0.253 OA
ATOM      3  N   UNL     1      -2.675  -1.451  -0.933  0.00  0.00    -0.299 N 
ATOM      4  N   UNL     1      -3.289   0.744  -0.543  0.00  0.00    -0.297 N 
ATOM     26  C   UNL     1      -2.744  -0.154  -1.457  0.00  0.00    +0.300 C 
ATOM     33  H   UNL     1      -3.076  -1.613  -0.014  0.00  0.00    +0.150 HD
ATOM     34  H   UNL     1      -3.495   0.403   0.391  0.00  0.00    +0.151 HD
BRANCH   4  19
ATOM     19  C   UNL     1      -3.473   2.150  -0.828  0.00  0.00    +0.074 C 
ATOM     20  C   UNL     1      -4.705   2.702  -0.102  0.00  0.00    +0.022 C 
ATOM     21  C   UNL     1      -2.216   2.953  -0.478  0.00  0.00    +0.022 C 
ATOM     23  C   UNL     1      -4.488   2.827   1.405  0.00  0.00    +0.002 C 
ATOM     24  C   UNL     1      -2.003   3.078   1.031  0.00  0.00    +0.002 C 
ATOM     25  C   UNL     1      -3.237   3.639   1.729  0.00  0.00    +0.000 C 
ENDBRANCH   4  19
ENDBRANCH  14   3
ENDBRANCH   8  14
BRANCH  10  15
ATOM     15  C   UNL     1       0.488  -1.287   2.177  0.00  0.00    +0.103 C 
BRANCH  15  22
ATOM      1  O   UNL     1       2.894  -1.058   2.272  0.00  0.00    -0.276 OA
ATOM      5  N   UNL     1       1.571   0.840   2.052  0.00  0.00    -0.311 N 
ATOM     22  C   UNL     1       1.793  -0.523   2.175  0.00  0.00    +0.214 C 
ATOM     35  H   UNL     1       0.620   1.188   1.973  0.00  0.00    +0.149 HD
BRANCH   5  27
ATOM     27  C   UNL     1       2.638   1.814   2.022  0.00  0.00    +0.141 C 
BRANCH  27  28
ATOM      6  N   UNL     1       4.937   2.066  -0.970  0.00  0.00    -0.263 NA
ATOM     28  C   UNL     1       3.120   2.078   0.625  0.00  0.00    -0.012 A 
ATOM     29  C   UNL     1       2.256   2.563  -0.351  0.00  0.00    +0.008 A 
ATOM     30  C   UNL     1       4.439   1.848   0.268  0.00  0.00    +0.115 A 
ATOM     31  C   UNL     1       2.732   2.800  -1.636  0.00  0.00    +0.020 A 
ATOM     32  C   UNL     1       4.068   2.538  -1.892  0.00  0.00    +0.111 A 
ENDBRANCH  27  28
ENDBRANCH   5  27
ENDBRANCH  15  22
ENDBRANCH  10  15
TORSDOF 8
