REMARK  Name = 11941400
REMARK  7 active torsions:
REMARK  status: ('A' for Active; 'I' for Inactive)
REMARK    1  A    between atoms: S_1  and  C_21
REMARK    2  A    between atoms: S_1  and  C_28
REMARK    3  A    between atoms: O_5  and  C_29
REMARK    4  A    between atoms: O_5  and  C_30
REMARK    5  A    between atoms: N_7  and  C_9
REMARK    6  A    between atoms: C_17  and  C_21
REMARK    7  A    between atoms: C_20  and  C_23
REMARK                            x       y       z     vdW  Elec       q    Type
REMARK                         _______ _______ _______ _____ _____    ______ ____
ROOT
ATOM      2  O   UNL     1      -3.118  -3.250   0.459  0.00  0.00    -0.273 OA
ATOM      3  O   UNL     1      -0.221  -0.045  -2.556  0.00  0.00    -0.270 OA
ATOM      6  N   UNL     1      -1.938  -0.621  -1.139  0.00  0.00    -0.284 N 
ATOM      8  N   UNL     1      -0.882  -2.820   0.507  0.00  0.00    -0.283 N 
ATOM      9  C   UNL     1      -3.937  -0.574   0.123  0.00  0.00    +0.104 C 
ATOM     10  C   UNL     1      -2.450  -0.950   0.178  0.00  0.00    +0.183 C 
ATOM     11  C   UNL     1      -4.283  -0.704  -1.362  0.00  0.00    +0.043 C 
ATOM     12  C   UNL     1      -3.006  -0.262  -2.060  0.00  0.00    +0.111 C 
ATOM     13  C   UNL     1      -2.199  -2.436   0.354  0.00  0.00    +0.240 C 
ATOM     14  C   UNL     1      -0.607  -0.484  -1.473  0.00  0.00    +0.249 C 
ATOM     15  C   UNL     1       0.412  -0.913  -0.480  0.00  0.00    +0.059 A 
ATOM     16  C   UNL     1       0.285  -2.041   0.348  0.00  0.00    +0.046 A 
ATOM     18  C   UNL     1       1.635  -0.218  -0.520  0.00  0.00    +0.023 A 
ATOM     19  C   UNL     1       1.409  -2.485   1.066  0.00  0.00    +0.024 A 
ATOM     20  C   UNL     1       2.725  -0.646   0.236  0.00  0.00    -0.017 A 
ATOM     22  C   UNL     1       2.616  -1.788   1.020  0.00  0.00    +0.010 A 
ATOM     32  H   UNL     1      -0.741  -3.764   0.858  0.00  0.00    +0.155 HD
ENDROOT
BRANCH  20  23
ATOM     23  C   UNL     1       3.974   0.083   0.186  0.00  0.00    -0.018 A 
ATOM     24  C   UNL     1       5.183  -0.592   0.356  0.00  0.00    +0.012 A 
ATOM     25  C   UNL     1       3.968   1.461  -0.030  0.00  0.00    +0.012 A 
ATOM     26  C   UNL     1       6.386   0.111   0.309  0.00  0.00    +0.046 A 
ATOM     27  C   UNL     1       5.172   2.164  -0.077  0.00  0.00    +0.046 A 
ATOM     29  C   UNL     1       6.381   1.489   0.092  0.00  0.00    +0.120 A 
BRANCH  29   5
ATOM      5  O   UNL     1       7.555   2.176   0.047  0.00  0.00    -0.495 OA
ATOM     30  C   UNL     1       8.754   1.424   0.230  0.00  0.00    +0.277 C 
ENDBRANCH  29   5
ENDBRANCH  20  23
BRANCH   9   7
ATOM      4  O   UNL     1      -6.344   0.518   1.304  0.00  0.00    -0.275 OA
ATOM      7  N   UNL     1      -4.146   0.776   0.592  0.00  0.00    -0.309 N 
ATOM     17  C   UNL     1      -5.340   1.210   1.146  0.00  0.00    +0.223 C 
ATOM     31  H   UNL     1      -3.397   1.447   0.448  0.00  0.00    +0.149 HD
BRANCH  17  21
ATOM     21  C   UNL     1      -5.310   2.668   1.540  0.00  0.00    +0.164 C 
BRANCH  21   1
ATOM      1  S   UNL     1      -6.615   3.545   0.644  0.00  0.00    -0.155 S 
ATOM     28  C   UNL     1      -6.059   3.204  -1.042  0.00  0.00    +0.085 C 
ENDBRANCH  21   1
ENDBRANCH  17  21
ENDBRANCH   9   7
TORSDOF 5
