REMARK  Name = 11941403
REMARK  5 active torsions:
REMARK  status: ('A' for Active; 'I' for Inactive)
REMARK    1  A    between atoms: S_1  and  C_31
REMARK    2  A    between atoms: S_1  and  C_32
REMARK    3  A    between atoms: N_6  and  C_8
REMARK    4  A    between atoms: C_11  and  C_17
REMARK    5  A    between atoms: C_24  and  C_26
REMARK                            x       y       z     vdW  Elec       q    Type
REMARK                         _______ _______ _______ _____ _____    ______ ____
ROOT
ATOM      3  O   UNL     1       3.070   3.201   1.415  0.00  0.00    -0.273 OA
ATOM      4  O   UNL     1      -0.247   1.935  -2.479  0.00  0.00    -0.270 OA
ATOM      5  N   UNL     1       1.651   1.766  -1.191  0.00  0.00    -0.284 N 
ATOM      7  N   UNL     1       0.854   2.679   1.490  0.00  0.00    -0.283 N 
ATOM      8  C   UNL     1       3.799   1.172  -0.400  0.00  0.00    +0.104 C 
ATOM      9  C   UNL     1       2.338   1.371   0.025  0.00  0.00    +0.183 C 
ATOM     10  C   UNL     1       3.947   2.095  -1.611  0.00  0.00    +0.043 C 
ATOM     12  C   UNL     1       2.583   2.019  -2.280  0.00  0.00    +0.111 C 
ATOM     18  C   UNL     1       2.132   2.516   1.000  0.00  0.00    +0.240 C 
ATOM     19  C   UNL     1       0.286   1.750  -1.385  0.00  0.00    +0.249 C 
ATOM     20  C   UNL     1      -0.586   1.521  -0.204  0.00  0.00    +0.059 A 
ATOM     21  C   UNL     1      -0.335   2.038   1.079  0.00  0.00    +0.046 A 
ATOM     22  C   UNL     1      -1.813   0.884  -0.464  0.00  0.00    +0.023 A 
ATOM     23  C   UNL     1      -1.348   1.962   2.050  0.00  0.00    +0.024 A 
ATOM     24  C   UNL     1      -2.788   0.777   0.527  0.00  0.00    -0.017 A 
ATOM     25  C   UNL     1      -2.560   1.327   1.782  0.00  0.00    +0.010 A 
ATOM     34  H   UNL     1       0.774   3.280   2.307  0.00  0.00    +0.155 HD
ENDROOT
BRANCH  24  26
ATOM     26  C   UNL     1      -4.042   0.114   0.243  0.00  0.00    -0.018 A 
ATOM     27  C   UNL     1      -5.208   0.521   0.891  0.00  0.00    +0.009 A 
ATOM     28  C   UNL     1      -4.085  -0.932  -0.679  0.00  0.00    +0.009 A 
ATOM     29  C   UNL     1      -6.418  -0.118   0.617  0.00  0.00    +0.015 A 
ATOM     30  C   UNL     1      -5.295  -1.571  -0.953  0.00  0.00    +0.015 A 
ATOM     31  C   UNL     1      -6.461  -1.164  -0.305  0.00  0.00    +0.008 A 
BRANCH  31   1
ATOM      1  S   UNL     1      -8.006  -1.980  -0.654  0.00  0.00    -0.129 S 
ATOM     32  C   UNL     1      -7.636  -3.692  -0.175  0.00  0.00    +0.090 C 
ENDBRANCH  31   1
ENDBRANCH  24  26
BRANCH   8   6
ATOM      2  O   UNL     1       4.821  -0.939   1.311  0.00  0.00    -0.276 OA
ATOM      6  N   UNL     1       4.050  -0.205  -0.759  0.00  0.00    -0.310 N 
ATOM     17  C   UNL     1       4.540  -1.143   0.133  0.00  0.00    +0.216 C 
ATOM     33  H   UNL     1       3.790  -0.506  -1.694  0.00  0.00    +0.149 HD
BRANCH  17  11
ATOM     11  C   UNL     1       4.683  -2.498  -0.490  0.00  0.00    +0.075 C 
ATOM     13  C   UNL     1       3.396  -3.309  -0.300  0.00  0.00    +0.013 C 
ATOM     14  C   UNL     1       5.795  -3.293   0.196  0.00  0.00    +0.013 C 
ATOM     15  C   UNL     1       3.815  -4.597   0.401  0.00  0.00    +0.001 C 
ATOM     16  C   UNL     1       5.067  -4.212   1.168  0.00  0.00    +0.001 C 
ENDBRANCH  17  11
ENDBRANCH   8   6
TORSDOF 4
