REMARK  Name = 26742270
REMARK  7 active torsions:
REMARK  status: ('A' for Active; 'I' for Inactive)
REMARK    1  A    between atoms: O_1  and  C_10
REMARK    2  A    between atoms: O_4  and  C_25
REMARK    3  A    between atoms: O_4  and  C_30
REMARK    4  A    between atoms: N_6  and  C_9
REMARK    5  A    between atoms: N_7  and  C_18
REMARK    6  A    between atoms: C_16  and  C_17
REMARK    7  A    between atoms: C_26  and  C_29
REMARK                            x       y       z     vdW  Elec       q    Type
REMARK                         _______ _______ _______ _____ _____    ______ ____
ROOT
ATOM      2  O   UNL     1      -2.875   2.761   0.454  0.00  0.00    -0.252 OA
ATOM      5  N   UNL     1      -3.386   0.809  -0.675  0.00  0.00    -0.284 N 
ATOM      7  N   UNL     1      -1.143   1.530  -0.486  0.00  0.00    -0.269 N 
ATOM      9  C   UNL     1      -2.710  -1.605  -0.433  0.00  0.00    +0.119 C 
ATOM     10  C   UNL     1      -3.568  -1.716   0.841  0.00  0.00    +0.136 C 
ATOM     11  C   UNL     1      -5.043  -1.333   0.686  0.00  0.00    +0.035 C 
ATOM     12  C   UNL     1      -3.028  -0.434  -1.371  0.00  0.00    +0.134 C 
ATOM     13  C   UNL     1      -5.292   0.173   0.792  0.00  0.00    +0.022 C 
ATOM     14  C   UNL     1      -4.816   0.978  -0.411  0.00  0.00    +0.109 C 
ATOM     15  C   UNL     1      -2.482   1.782  -0.186  0.00  0.00    +0.307 C 
ATOM     33  H   UNL     1      -0.915   0.685  -0.997  0.00  0.00    +0.156 HD
ENDROOT
BRANCH   7  18
ATOM     18  C   UNL     1      -0.011   2.310  -0.139  0.00  0.00    +0.036 A 
ATOM     21  C   UNL     1       1.264   1.901  -0.528  0.00  0.00    +0.042 A 
ATOM     22  C   UNL     1      -0.173   3.487   0.592  0.00  0.00    +0.023 A 
ATOM     26  C   UNL     1       2.378   2.668  -0.187  0.00  0.00    +0.054 A 
ATOM     27  C   UNL     1       0.941   4.255   0.933  0.00  0.00    +0.003 A 
ATOM     28  C   UNL     1       2.216   3.845   0.544  0.00  0.00    +0.019 A 
BRANCH  26  29
ATOM      8  N   UNL     1       4.746   1.909  -0.909  0.00  0.00    -0.191 NA
ATOM     29  C   UNL     1       3.685   2.249  -0.586  0.00  0.00    +0.099 C 
ENDBRANCH  26  29
ENDBRANCH   7  18
BRANCH   9   6
ATOM      3  O   UNL     1      -0.531  -2.742  -1.914  0.00  0.00    -0.270 OA
ATOM      6  N   UNL     1      -1.310  -1.593  -0.058  0.00  0.00    -0.305 N 
ATOM     16  C   UNL     1      -0.332  -2.172  -0.845  0.00  0.00    +0.244 C 
ATOM     31  H   UNL     1      -1.052  -1.042   0.755  0.00  0.00    +0.149 HD
BRANCH  16  17
ATOM     17  C   UNL     1       1.052  -2.098  -0.308  0.00  0.00    +0.037 A 
ATOM     19  C   UNL     1       2.140  -2.111  -1.180  0.00  0.00    +0.016 A 
ATOM     20  C   UNL     1       1.262  -2.016   1.069  0.00  0.00    +0.016 A 
ATOM     23  C   UNL     1       3.439  -2.042  -0.676  0.00  0.00    +0.046 A 
ATOM     24  C   UNL     1       2.561  -1.947   1.573  0.00  0.00    +0.046 A 
ATOM     25  C   UNL     1       3.649  -1.960   0.700  0.00  0.00    +0.120 A 
BRANCH  25   4
ATOM      4  O   UNL     1       4.917  -1.893   1.192  0.00  0.00    -0.495 OA
ATOM     30  C   UNL     1       5.983  -1.912   0.245  0.00  0.00    +0.277 C 
ENDBRANCH  25   4
ENDBRANCH  16  17
ENDBRANCH   9   6
BRANCH  10   1
ATOM      1  O   UNL     1      -3.533  -3.083   1.274  0.00  0.00    -0.390 OA
ATOM     32  H   UNL     1      -3.963  -3.128   2.144  0.00  0.00    +0.210 HD
ENDBRANCH  10   1
TORSDOF 6
