REMARK  Name = 40777891
REMARK  10 active torsions:
REMARK  status: ('A' for Active; 'I' for Inactive)
REMARK    1  A    between atoms: O_3  and  C_11
REMARK    2  A    between atoms: O_4  and  C_12
REMARK    3  A    between atoms: O_5  and  C_21
REMARK    4  A    between atoms: O_5  and  C_23
REMARK    5  A    between atoms: N_9  and  C_20
REMARK    6  A    between atoms: C_10  and  C_15
REMARK    7  A    between atoms: C_13  and  C_20
REMARK    8  A    between atoms: C_14  and  C_21
REMARK    9  A    between atoms: C_15  and  C_19
REMARK   10  A    between atoms: C_22  and  C_24
REMARK                            x       y       z     vdW  Elec       q    Type
REMARK                         _______ _______ _______ _____ _____    ______ ____
ROOT
ATOM      2  O   UNL     1      -2.388   0.974   0.789  0.00  0.00    -0.366 OA
ATOM     10  C   UNL     1      -2.308   1.535  -0.541  0.00  0.00    +0.159 C 
ATOM     11  C   UNL     1      -3.506   0.988  -1.311  0.00  0.00    +0.175 C 
ATOM     12  C   UNL     1      -3.740  -0.342  -0.625  0.00  0.00    +0.176 C 
ATOM     13  C   UNL     1      -3.453   0.008   0.825  0.00  0.00    +0.167 C 
ENDROOT
BRANCH  11   3
ATOM      3  O   UNL     1      -4.612   1.862  -1.087  0.00  0.00    -0.387 OA
ATOM     30  H   UNL     1      -4.408   2.708  -1.521  0.00  0.00    +0.210 HD
ENDBRANCH  11   3
BRANCH  12   4
ATOM      4  O   UNL     1      -5.049  -0.839  -0.802  0.00  0.00    -0.387 OA
ATOM     31  H   UNL     1      -5.205  -0.919  -1.758  0.00  0.00    +0.210 HD
ENDBRANCH  12   4
BRANCH  10  15
ATOM     15  C   UNL     1      -0.973   1.120  -1.144  0.00  0.00    +0.130 C 
BRANCH  15  19
ATOM      6  O   UNL     1      -0.120   2.861   0.238  0.00  0.00    -0.276 OA
ATOM      8  N   UNL     1       1.411   1.667  -1.022  0.00  0.00    -0.296 N 
ATOM     14  C   UNL     1       2.587   2.453  -0.644  0.00  0.00    +0.102 C 
ATOM     16  C   UNL     1       3.640   2.052  -1.680  0.00  0.00    +0.026 C 
ATOM     17  C   UNL     1       1.758   0.621  -1.981  0.00  0.00    +0.108 C 
ATOM     18  C   UNL     1       3.279   0.609  -2.010  0.00  0.00    +0.021 C 
ATOM     19  C   UNL     1       0.135   1.969  -0.574  0.00  0.00    +0.218 C 
BRANCH  14  21
ATOM     21  C   UNL     1       3.033   2.141   0.782  0.00  0.00    +0.181 C 
BRANCH  21   5
ATOM      5  O   UNL     1       2.275   2.936   1.674  0.00  0.00    -0.381 OA
ATOM     23  C   UNL     1       2.636   2.699   3.030  0.00  0.00    +0.194 C 
ENDBRANCH  21   5
ENDBRANCH  14  21
ENDBRANCH  15  19
ENDBRANCH  10  15
BRANCH  13  20
ATOM     20  C   UNL     1      -3.030  -1.188   1.660  0.00  0.00    +0.138 C 
BRANCH  20   9
ATOM      7  O   UNL     1      -0.327  -0.526   2.365  0.00  0.00    -0.270 OA
ATOM      9  N   UNL     1      -1.839  -1.789   1.139  0.00  0.00    -0.309 N 
ATOM     22  C   UNL     1      -0.561  -1.404   1.539  0.00  0.00    +0.244 C 
ATOM     32  H   UNL     1      -1.961  -2.560   0.491  0.00  0.00    +0.149 HD
BRANCH  22  24
ATOM      1  F   UNL     1       1.333  -3.807  -2.241  0.00  0.00    -0.205 F 
ATOM     24  C   UNL     1       0.572  -2.107   0.884  0.00  0.00    +0.039 A 
ATOM     25  C   UNL     1       0.417  -2.638  -0.396  0.00  0.00    +0.051 A 
ATOM     26  C   UNL     1       1.791  -2.236   1.550  0.00  0.00    +0.013 A 
ATOM     27  C   UNL     1       1.482  -3.297  -1.011  0.00  0.00    +0.124 A 
ATOM     28  C   UNL     1       2.855  -2.895   0.936  0.00  0.00    +0.004 A 
ATOM     29  C   UNL     1       2.701  -3.426  -0.345  0.00  0.00    +0.038 A 
ENDBRANCH  22  24
ENDBRANCH  20   9
ENDBRANCH  13  20
TORSDOF 9
