REMARK  Name = 45784193
REMARK  6 active torsions:
REMARK  status: ('A' for Active; 'I' for Inactive)
REMARK    1  A    between atoms: O_2  and  C_14
REMARK    2  A    between atoms: O_2  and  C_24
REMARK    3  A    between atoms: N_3  and  C_9
REMARK    4  A    between atoms: C_5  and  C_10
REMARK    5  A    between atoms: C_9  and  C_11
REMARK    6  A    between atoms: C_18  and  C_23
REMARK                            x       y       z     vdW  Elec       q    Type
REMARK                         _______ _______ _______ _____ _____    ______ ____
ROOT
ATOM      3  N   UNL     1      -1.613   0.041   0.036  0.00  0.00    -0.297 NA
ATOM      5  C   UNL     1       0.554  -0.518   0.735  0.00  0.00    +0.090 C 
ATOM      6  C   UNL     1      -0.066   0.479   1.730  0.00  0.00    +0.029 C 
ATOM      7  C   UNL     1      -0.339  -0.432  -0.509  0.00  0.00    +0.097 C 
ATOM      8  C   UNL     1      -1.249   1.089   0.990  0.00  0.00    +0.085 C 
ENDROOT
BRANCH   5  10
ATOM      1  O   UNL     1       2.860  -1.309   0.731  0.00  0.00    -0.439 OA
ATOM      4  N   UNL     1       2.580   0.784  -0.092  0.00  0.00    -0.213 NA
ATOM     10  C   UNL     1       2.016  -0.283   0.429  0.00  0.00    +0.201 A 
ATOM     12  C   UNL     1       3.911   0.445  -0.142  0.00  0.00    +0.110 A 
ATOM     13  C   UNL     1       4.086  -0.835   0.361  0.00  0.00    +0.155 A 
ATOM     16  C   UNL     1       5.033   1.155  -0.595  0.00  0.00    +0.035 A 
ATOM     17  C   UNL     1       5.308  -1.489   0.455  0.00  0.00    +0.049 A 
ATOM     18  C   UNL     1       6.285   0.528  -0.516  0.00  0.00    -0.048 A 
ATOM     21  C   UNL     1       6.417  -0.768  -0.001  0.00  0.00    +0.007 A 
ATOM     23  C   UNL     1       7.499   1.257  -0.990  0.00  0.00    +0.044 C 
ENDBRANCH   5  10
BRANCH   3   9
ATOM      9  C   UNL     1      -2.516   0.523  -0.999  0.00  0.00    +0.123 C 
BRANCH   9  11
ATOM     11  C   UNL     1      -3.939   0.591  -0.514  0.00  0.00    +0.008 A 
ATOM     14  C   UNL     1      -4.706  -0.567  -0.388  0.00  0.00    +0.124 A 
ATOM     15  C   UNL     1      -4.490   1.831  -0.189  0.00  0.00    +0.008 A 
ATOM     19  C   UNL     1      -6.024  -0.486   0.063  0.00  0.00    +0.046 A 
ATOM     20  C   UNL     1      -5.808   1.912   0.262  0.00  0.00    +0.001 A 
ATOM     22  C   UNL     1      -6.575   0.754   0.388  0.00  0.00    +0.004 A 
BRANCH  14   2
ATOM      2  O   UNL     1      -4.184  -1.786  -0.702  0.00  0.00    -0.495 OA
ATOM     24  C   UNL     1      -5.039  -2.917  -0.543  0.00  0.00    +0.277 C 
ENDBRANCH  14   2
ENDBRANCH   9  11
ENDBRANCH   3   9
TORSDOF 4
