REMARK  Name = 28962489
REMARK  10 active torsions:
REMARK  status: ('A' for Active; 'I' for Inactive)
REMARK    1  A    between atoms: O_1  and  C_10
REMARK    2  A    between atoms: N_4  and  C_14
REMARK    3  A    between atoms: N_5  and  C_24
REMARK    4  A    between atoms: C_7  and  C_17
REMARK    5  A    between atoms: C_9  and  C_19
REMARK    6  A    between atoms: C_13  and  C_18
REMARK    7  A    between atoms: C_18  and  C_20
REMARK    8  A    between atoms: C_18  and  C_21
REMARK    9  A    between atoms: C_22  and  C_23
REMARK   10  A    between atoms: C_24  and  C_25
REMARK                            x       y       z     vdW  Elec       q    Type
REMARK                         _______ _______ _______ _____ _____    ______ ____
ROOT
ATOM      7  C   UNL     1      -1.413   0.498   1.150  0.00  0.00    -0.027 C 
ATOM      8  C   UNL     1      -1.751  -0.425  -0.067  0.00  0.00    +0.028 C 
ATOM      9  C   UNL     1      -3.284  -0.767  -0.100  0.00  0.00    +0.012 C 
ATOM     10  C   UNL     1      -0.792  -1.649  -0.131  0.00  0.00    +0.122 C 
ATOM     11  C   UNL     1       0.078   0.907   1.089  0.00  0.00    +0.007 C 
ATOM     12  C   UNL     1      -2.259   1.788   1.055  0.00  0.00    +0.009 C 
ATOM     13  C   UNL     1       0.698  -1.239  -0.087  0.00  0.00    +0.029 C 
ATOM     14  C   UNL     1      -4.127   0.539  -0.120  0.00  0.00    +0.076 C 
ATOM     15  C   UNL     1       1.022  -0.289   1.066  0.00  0.00    +0.007 C 
ATOM     16  C   UNL     1      -3.755   1.519   0.993  0.00  0.00    +0.023 C 
ATOM     17  C   UNL     1      -1.684  -0.191   2.511  0.00  0.00    +0.011 C 
ATOM     19  C   UNL     1      -3.693  -1.651  -1.291  0.00  0.00    +0.010 C 
ENDROOT
BRANCH  14   4
ATOM      3  O   UNL     1      -6.296   2.062  -1.306  0.00  0.00    -0.276 OA
ATOM      4  N   UNL     1      -5.546   0.263  -0.033  0.00  0.00    -0.312 N 
ATOM     22  C   UNL     1      -6.506   1.053  -0.637  0.00  0.00    +0.210 C 
ATOM     23  C   UNL     1      -7.899   0.528  -0.410  0.00  0.00    +0.109 C 
ATOM     30  H   UNL     1      -5.844  -0.516   0.548  0.00  0.00    +0.149 HD
ENDBRANCH  14   4
BRANCH  10   1
ATOM      1  O   UNL     1      -0.988  -2.345  -1.363  0.00  0.00    -0.391 OA
ATOM     31  H   UNL     1      -0.800  -1.729  -2.092  0.00  0.00    +0.210 HD
ENDBRANCH  10   1
BRANCH  13  18
ATOM     18  C   UNL     1       1.623  -2.460  -0.019  0.00  0.00    +0.077 C 
ATOM     20  C   UNL     1       1.312  -3.285   1.225  0.00  0.00    +0.017 C 
BRANCH  18  21
ATOM      2  O   UNL     1       3.872  -2.283   0.861  0.00  0.00    -0.276 OA
ATOM      5  N   UNL     1       3.394  -1.273  -1.172  0.00  0.00    -0.311 N 
ATOM     21  C   UNL     1       3.080  -2.011  -0.039  0.00  0.00    +0.216 C 
ATOM     32  H   UNL     1       2.696  -1.136  -1.896  0.00  0.00    +0.149 HD
BRANCH   5  24
ATOM     24  C   UNL     1       4.713  -0.737  -1.414  0.00  0.00    +0.141 C 
BRANCH  24  25
ATOM      6  N   UNL     1       5.774   2.070   0.887  0.00  0.00    -0.263 NA
ATOM     25  C   UNL     1       4.872   0.643  -0.843  0.00  0.00    -0.012 A 
ATOM     26  C   UNL     1       4.299   1.747  -1.465  0.00  0.00    +0.008 A 
ATOM     27  C   UNL     1       5.594   0.856   0.320  0.00  0.00    +0.115 A 
ATOM     28  C   UNL     1       4.462   3.012  -0.912  0.00  0.00    +0.020 A 
ATOM     29  C   UNL     1       5.202   3.119   0.255  0.00  0.00    +0.111 A 
ENDBRANCH  24  25
ENDBRANCH   5  24
ENDBRANCH  18  21
ENDBRANCH  13  18
TORSDOF 6
