REMARK  Name = 25388788
REMARK  9 active torsions:
REMARK  status: ('A' for Active; 'I' for Inactive)
REMARK    1  A    between atoms: N_6  and  C_15
REMARK    2  A    between atoms: N_6  and  C_17
REMARK    3  A    between atoms: N_6  and  C_18
REMARK    4  A    between atoms: N_7  and  C_16
REMARK    5  A    between atoms: C_9  and  C_15
REMARK    6  A    between atoms: C_10  and  C_16
REMARK    7  A    between atoms: C_17  and  C_20
REMARK    8  A    between atoms: C_19  and  C_21
REMARK    9  A    between atoms: C_31  and  C_32
REMARK                            x       y       z     vdW  Elec       q    Type
REMARK                         _______ _______ _______ _____ _____    ______ ____
ROOT
ATOM      5  N   UNL     1       2.870  -3.049   0.184  0.00  0.00    -0.298 NA
ATOM      8  C   UNL     1       3.352  -0.926  -1.242  0.00  0.00    -0.003 C 
ATOM      9  C   UNL     1       4.301  -1.000  -0.024  0.00  0.00    +0.020 C 
ATOM     10  C   UNL     1       1.612  -2.287  -0.037  0.00  0.00    +0.074 C 
ATOM     11  C   UNL     1       1.892  -0.946  -0.752  0.00  0.00    +0.024 C 
ATOM     12  C   UNL     1       3.877  -2.195   0.860  0.00  0.00    +0.089 C 
ATOM     13  C   UNL     1       3.576  -2.211  -2.062  0.00  0.00    +0.019 C 
ATOM     14  C   UNL     1       3.409  -3.435  -1.143  0.00  0.00    +0.085 C 
ENDROOT
BRANCH   9  15
ATOM     15  C   UNL     1       4.358   0.299   0.775  0.00  0.00    +0.089 C 
BRANCH  15   6
ATOM      6  N   UNL     1       4.756   1.396  -0.055  0.00  0.00    -0.301 NA
ATOM     18  C   UNL     1       6.216   1.422  -0.254  0.00  0.00    +0.105 C 
BRANCH   6  17
ATOM     17  C   UNL     1       4.320   2.687   0.506  0.00  0.00    +0.119 C 
BRANCH  17  20
ATOM     20  C   UNL     1       2.849   2.922   0.291  0.00  0.00    -0.033 A 
ATOM     22  C   UNL     1       2.407   3.570  -0.863  0.00  0.00    +0.005 A 
ATOM     23  C   UNL     1       1.927   2.493   1.246  0.00  0.00    +0.005 A 
ATOM     26  C   UNL     1       1.043   3.788  -1.062  0.00  0.00    +0.000 A 
ATOM     27  C   UNL     1       0.564   2.710   1.047  0.00  0.00    +0.000 A 
ATOM     28  C   UNL     1       0.122   3.358  -0.107  0.00  0.00    +0.000 A 
ENDBRANCH  17  20
ENDBRANCH   6  17
ENDBRANCH  15   6
ENDBRANCH   9  15
BRANCH  10  16
ATOM     16  C   UNL     1       0.817  -2.086   1.255  0.00  0.00    +0.123 C 
BRANCH  16   7
ATOM      4  O   UNL     1      -1.659  -3.415   0.662  0.00  0.00    -0.270 OA
ATOM      7  N   UNL     1      -0.444  -1.465   0.987  0.00  0.00    -0.310 N 
ATOM     19  C   UNL     1      -1.601  -2.189   0.707  0.00  0.00    +0.244 C 
ATOM     33  H   UNL     1      -0.453  -0.451   0.948  0.00  0.00    +0.149 HD
BRANCH  19  21
ATOM     21  C   UNL     1      -2.824  -1.394   0.425  0.00  0.00    +0.037 A 
ATOM     24  C   UNL     1      -3.830  -1.925  -0.382  0.00  0.00    +0.013 A 
ATOM     25  C   UNL     1      -2.966  -0.116   0.966  0.00  0.00    +0.013 A 
ATOM     29  C   UNL     1      -4.979  -1.179  -0.648  0.00  0.00    +0.013 A 
ATOM     30  C   UNL     1      -4.114   0.630   0.700  0.00  0.00    +0.013 A 
ATOM     31  C   UNL     1      -5.120   0.099  -0.107  0.00  0.00    +0.055 A 
BRANCH  31  32
ATOM      1  F   UNL     1      -7.052   1.234   0.731  0.00  0.00    -0.166 F 
ATOM      2  F   UNL     1      -7.232   0.234  -1.191  0.00  0.00    -0.166 F 
ATOM      3  F   UNL     1      -6.098   2.081  -1.022  0.00  0.00    -0.166 F 
ATOM     32  C   UNL     1      -6.348   0.897  -0.390  0.00  0.00    +0.417 C 
ENDBRANCH  31  32
ENDBRANCH  19  21
ENDBRANCH  16   7
ENDBRANCH  10  16
TORSDOF 8
