REMARK  Name = 45783688
REMARK  6 active torsions:
REMARK  status: ('A' for Active; 'I' for Inactive)
REMARK    1  A    between atoms: O_3  and  C_25
REMARK    2  A    between atoms: O_3  and  C_26
REMARK    3  A    between atoms: N_4  and  C_12
REMARK    4  A    between atoms: C_8  and  C_13
REMARK    5  A    between atoms: C_12  and  C_14
REMARK    6  A    between atoms: C_17  and  C_20
REMARK                            x       y       z     vdW  Elec       q    Type
REMARK                         _______ _______ _______ _____ _____    ______ ____
ROOT
ATOM      4  N   UNL     1      -2.332  -1.530  -0.178  0.00  0.00    -0.287 NA
ATOM      8  C   UNL     1      -1.408  -2.632   0.158  0.00  0.00    +0.146 C 
ATOM      9  C   UNL     1      -1.551  -3.630  -1.006  0.00  0.00    +0.030 C 
ATOM     10  C   UNL     1      -2.619  -3.034  -1.913  0.00  0.00    +0.017 C 
ATOM     11  C   UNL     1      -3.397  -2.116  -0.992  0.00  0.00    +0.085 C 
ENDROOT
BRANCH   8  13
ATOM      2  O   UNL     1       0.795  -2.903   1.181  0.00  0.00    -0.336 OA
ATOM      5  N   UNL     1       0.626  -1.123  -0.169  0.00  0.00    -0.190 NA
ATOM      6  N   UNL     1       2.048  -2.279   1.200  0.00  0.00    -0.056 NA
ATOM     13  C   UNL     1       0.017  -2.159   0.351  0.00  0.00    +0.245 A 
ATOM     17  C   UNL     1       1.869  -1.238   0.381  0.00  0.00    +0.204 A 
BRANCH  17  20
ATOM      7  N   UNL     1       5.193   0.429   0.426  0.00  0.00    -0.221 NA
ATOM     20  C   UNL     1       2.911  -0.296   0.091  0.00  0.00    +0.041 A 
ATOM     22  C   UNL     1       2.689   0.775  -0.768  0.00  0.00    +0.018 A 
ATOM     23  C   UNL     1       4.169  -0.423   0.657  0.00  0.00    +0.126 A 
ATOM     24  C   UNL     1       3.718   1.673  -1.030  0.00  0.00    +0.068 A 
ATOM     25  C   UNL     1       4.940   1.458  -0.413  0.00  0.00    +0.214 A 
BRANCH  25   3
ATOM      3  O   UNL     1       5.970   2.329  -0.656  0.00  0.00    -0.480 OA
ATOM     26  C   UNL     1       7.202   2.062   0.002  0.00  0.00    +0.279 C 
ENDBRANCH  25   3
ENDBRANCH  17  20
ENDBRANCH   8  13
BRANCH   4  12
ATOM     12  C   UNL     1      -2.854  -0.841   0.995  0.00  0.00    +0.120 C 
BRANCH  12  14
ATOM      1 CL   UNL     1      -4.910   4.647  -0.365  0.00  0.00    -0.084 Cl
ATOM     14  C   UNL     1      -3.369   0.533   0.656  0.00  0.00    -0.033 A 
ATOM     15  C   UNL     1      -2.513   1.632   0.713  0.00  0.00    +0.006 A 
ATOM     16  C   UNL     1      -4.702   0.706   0.283  0.00  0.00    +0.006 A 
ATOM     18  C   UNL     1      -2.990   2.905   0.398  0.00  0.00    +0.020 A 
ATOM     19  C   UNL     1      -5.179   1.978  -0.031  0.00  0.00    +0.020 A 
ATOM     21  C   UNL     1      -4.323   3.078   0.026  0.00  0.00    +0.041 A 
ENDBRANCH  12  14
ENDBRANCH   4  12
TORSDOF 5
