REMARK  Name = 25390234
REMARK  9 active torsions:
REMARK  status: ('A' for Active; 'I' for Inactive)
REMARK    1  A    between atoms: S_1  and  N_9
REMARK    2  A    between atoms: S_1  and  C_23
REMARK    3  A    between atoms: O_3  and  C_11
REMARK    4  A    between atoms: O_4  and  C_12
REMARK    5  A    between atoms: N_9  and  C_20
REMARK    6  A    between atoms: C_10  and  C_14
REMARK    7  A    between atoms: C_13  and  C_20
REMARK    8  A    between atoms: C_14  and  C_21
REMARK    9  A    between atoms: C_15  and  C_22
REMARK                            x       y       z     vdW  Elec       q    Type
REMARK                         _______ _______ _______ _____ _____    ______ ____
ROOT
ATOM      2  O   UNL     1       1.446   0.787  -0.847  0.00  0.00    -0.366 OA
ATOM     10  C   UNL     1       0.503   1.591  -0.117  0.00  0.00    +0.158 C 
ATOM     11  C   UNL     1       1.304   2.264   0.985  0.00  0.00    +0.175 C 
ATOM     12  C   UNL     1       2.628   2.509   0.292  0.00  0.00    +0.175 C 
ATOM     13  C   UNL     1       2.784   1.246  -0.548  0.00  0.00    +0.165 C 
ENDROOT
BRANCH  11   3
ATOM      3  O   UNL     1       0.685   3.447   1.443  0.00  0.00    -0.387 OA
ATOM     24  H   UNL     1       1.302   3.881   2.056  0.00  0.00    +0.210 HD
ENDBRANCH  11   3
BRANCH  12   4
ATOM      4  O   UNL     1       2.524   3.621  -0.595  0.00  0.00    -0.387 OA
ATOM     25  H   UNL     1       3.382   3.717  -1.043  0.00  0.00    +0.210 HD
ENDBRANCH  12   4
BRANCH  10  14
ATOM     14  C   UNL     1      -0.621   0.714   0.405  0.00  0.00    +0.130 C 
BRANCH  14  21
ATOM      5  O   UNL     1      -1.397   0.883  -1.827  0.00  0.00    -0.276 OA
ATOM      8  N   UNL     1      -2.665  -0.425  -0.386  0.00  0.00    -0.301 N 
ATOM     15  C   UNL     1      -5.387  -1.084   0.371  0.00  0.00    -0.011 C 
ATOM     16  C   UNL     1      -4.333  -0.676   1.412  0.00  0.00    +0.022 C 
ATOM     17  C   UNL     1      -5.052  -0.464  -0.994  0.00  0.00    +0.022 C 
ATOM     18  C   UNL     1      -2.921  -1.012   0.934  0.00  0.00    +0.108 C 
ATOM     19  C   UNL     1      -3.627  -0.806  -1.422  0.00  0.00    +0.108 C 
ATOM     21  C   UNL     1      -1.590   0.402  -0.708  0.00  0.00    +0.218 C 
ATOM     22  C   UNL     1      -6.786  -0.675   0.826  0.00  0.00    +0.007 C 
ENDBRANCH  14  21
ENDBRANCH  10  14
BRANCH  13  20
ATOM     20  C   UNL     1       3.507   0.126   0.188  0.00  0.00    +0.139 C 
BRANCH  20   9
ATOM      9  N   UNL     1       3.629  -1.041  -0.636  0.00  0.00    -0.192 NA
ATOM     26  H   UNL     1       4.216  -0.911  -1.470  0.00  0.00    +0.148 HD
BRANCH   9   1
ATOM      1  S   UNL     1       3.696  -2.612   0.078  0.00  0.00    +0.027 S 
ATOM      6  O   UNL     1       4.093  -3.573  -0.932  0.00  0.00    -0.158 OA
ATOM      7  O   UNL     1       2.513  -2.832   0.888  0.00  0.00    -0.158 OA
ATOM     23  C   UNL     1       5.066  -2.390   1.190  0.00  0.00    +0.214 C 
ENDBRANCH   9   1
ENDBRANCH  20   9
ENDBRANCH  13  20
TORSDOF 7
