REMARK  Name = 56775321
REMARK  5 active torsions:
REMARK  status: ('A' for Active; 'I' for Inactive)
REMARK    1  A    between atoms: O_5  and  C_16
REMARK    2  A    between atoms: O_5  and  C_22
REMARK    3  A    between atoms: N_7  and  C_13
REMARK    4  A    between atoms: C_13  and  C_16
REMARK    5  A    between atoms: C_15  and  C_17
REMARK                            x       y       z     vdW  Elec       q    Type
REMARK                         _______ _______ _______ _____ _____    ______ ____
ROOT
ATOM      2  O   UNL     1       1.754   2.281  -0.876  0.00  0.00    -0.364 OA
ATOM      3  O   UNL     1       3.792  -0.383  -2.066  0.00  0.00    -0.273 OA
ATOM      4  O   UNL     1      -2.660   2.623   0.982  0.00  0.00    -0.270 OA
ATOM      6  N   UNL     1      -0.744   1.393   0.527  0.00  0.00    -0.293 N 
ATOM      7  N   UNL     1       2.367  -0.352  -0.227  0.00  0.00    -0.290 N 
ATOM      8  C   UNL     1       1.397   0.390   0.569  0.00  0.00    +0.124 C 
ATOM      9  C   UNL     1       1.559   1.906   0.485  0.00  0.00    +0.158 C 
ATOM     10  C   UNL     1      -0.046   0.181   0.100  0.00  0.00    +0.133 C 
ATOM     11  C   UNL     1       0.201   2.425   0.940  0.00  0.00    +0.141 C 
ATOM     12  C   UNL     1       3.066   0.230  -1.281  0.00  0.00    +0.242 C 
ATOM     14  C   UNL     1       2.957   1.742  -1.375  0.00  0.00    +0.256 C 
ATOM     15  C   UNL     1      -2.114   1.584   0.617  0.00  0.00    +0.247 C 
ENDROOT
BRANCH  15  17
ATOM      1  F   UNL     1      -5.425  -2.723  -0.742  0.00  0.00    -0.205 F 
ATOM     17  C   UNL     1      -2.983   0.452   0.260  0.00  0.00    +0.037 A 
ATOM     18  C   UNL     1      -3.373  -0.464   1.238  0.00  0.00    +0.016 A 
ATOM     19  C   UNL     1      -3.419   0.295  -1.056  0.00  0.00    +0.016 A 
ATOM     20  C   UNL     1      -4.197  -1.536   0.899  0.00  0.00    +0.039 A 
ATOM     21  C   UNL     1      -4.244  -0.778  -1.394  0.00  0.00    +0.039 A 
ATOM     23  C   UNL     1      -4.633  -1.694  -0.416  0.00  0.00    +0.123 A 
ENDBRANCH  15  17
BRANCH   7  13
ATOM     13  C   UNL     1       2.461  -1.785   0.017  0.00  0.00    +0.136 C 
BRANCH  13  16
ATOM     16  C   UNL     1       3.572  -2.111   0.999  0.00  0.00    +0.178 C 
BRANCH  16   5
ATOM      5  O   UNL     1       4.818  -1.693   0.458  0.00  0.00    -0.381 OA
ATOM     22  C   UNL     1       5.893  -1.983   1.341  0.00  0.00    +0.194 C 
ENDBRANCH  16   5
ENDBRANCH  13  16
ENDBRANCH   7  13
TORSDOF 4
