REMARK  Name = 45783645
REMARK  9 active torsions:
REMARK  status: ('A' for Active; 'I' for Inactive)
REMARK    1  A    between atoms: O_2  and  C_32
REMARK    2  A    between atoms: O_2  and  C_33
REMARK    3  A    between atoms: N_4  and  C_14
REMARK    4  A    between atoms: N_5  and  C_23
REMARK    5  A    between atoms: N_9  and  C_30
REMARK    6  A    between atoms: C_10  and  C_15
REMARK    7  A    between atoms: C_14  and  C_16
REMARK    8  A    between atoms: C_21  and  C_26
REMARK    9  A    between atoms: C_31  and  C_32
REMARK                            x       y       z     vdW  Elec       q    Type
REMARK                         _______ _______ _______ _____ _____    ______ ____
ROOT
ATOM      1  O   UNL     1      -2.669   2.366  -1.357  0.00  0.00    -0.336 OA
ATOM      6  N   UNL     1      -1.591   1.202   0.224  0.00  0.00    -0.190 NA
ATOM      7  N   UNL     1      -1.309   2.427  -1.688  0.00  0.00    -0.056 NA
ATOM     15  C   UNL     1      -2.747   1.628  -0.219  0.00  0.00    +0.245 A 
ATOM     21  C   UNL     1      -0.739   1.717  -0.709  0.00  0.00    +0.204 A 
ENDROOT
BRANCH  21  26
ATOM      8  N   UNL     1       2.873   1.872  -1.577  0.00  0.00    -0.239 NA
ATOM     26  C   UNL     1       0.678   1.505  -0.634  0.00  0.00    +0.041 A 
ATOM     27  C   UNL     1       1.237   0.763   0.400  0.00  0.00    +0.016 A 
ATOM     28  C   UNL     1       1.531   2.034  -1.589  0.00  0.00    +0.124 A 
ATOM     29  C   UNL     1       2.614   0.574   0.446  0.00  0.00    +0.044 A 
ATOM     30  C   UNL     1       3.381   1.144  -0.557  0.00  0.00    +0.125 A 
BRANCH  30   9
ATOM      3  O   UNL     1       5.061  -0.358   1.437  0.00  0.00    -0.273 OA
ATOM      9  N   UNL     1       4.766   0.948  -0.501  0.00  0.00    -0.268 N 
ATOM     31  C   UNL     1       5.497   0.236   0.455  0.00  0.00    +0.244 C 
ATOM     34  H   UNL     1       5.284   1.386  -1.259  0.00  0.00    +0.156 HD
BRANCH  31  32
ATOM     32  C   UNL     1       6.983   0.261   0.171  0.00  0.00    +0.255 C 
BRANCH  32   2
ATOM      2  O   UNL     1       7.652  -0.470   1.177  0.00  0.00    -0.374 OA
ATOM     33  C   UNL     1       9.061  -0.488   0.971  0.00  0.00    +0.194 C 
ENDBRANCH  32   2
ENDBRANCH  31  32
ENDBRANCH  30   9
ENDBRANCH  21  26
BRANCH  15  10
ATOM      4  N   UNL     1      -4.239   0.160   1.128  0.00  0.00    -0.287 NA
ATOM     10  C   UNL     1      -4.133   1.412   0.351  0.00  0.00    +0.146 C 
ATOM     11  C   UNL     1      -4.550   2.520   1.336  0.00  0.00    +0.030 C 
ATOM     12  C   UNL     1      -5.264   0.390   2.145  0.00  0.00    +0.085 C 
ATOM     13  C   UNL     1      -4.929   1.791   2.617  0.00  0.00    +0.017 C 
BRANCH   4  14
ATOM     14  C   UNL     1      -4.535  -1.004   0.303  0.00  0.00    +0.122 C 
BRANCH  14  16
ATOM      5  N   UNL     1      -1.895  -2.162  -1.983  0.00  0.00    -0.349 N 
ATOM     16  C   UNL     1      -3.306  -1.527  -0.392  0.00  0.00    -0.008 A 
ATOM     17  C   UNL     1      -2.108  -1.976   0.230  0.00  0.00    +0.004 A 
ATOM     18  C   UNL     1      -3.145  -1.654  -1.753  0.00  0.00    +0.091 A 
ATOM     19  C   UNL     1      -1.239  -2.369  -0.790  0.00  0.00    +0.049 A 
ATOM     20  C   UNL     1      -1.677  -2.085   1.567  0.00  0.00    +0.010 A 
ATOM     22  C   UNL     1       0.044  -2.868  -0.539  0.00  0.00    +0.026 A 
ATOM     23  C   UNL     1      -1.356  -2.437  -3.297  0.00  0.00    +0.149 C 
ATOM     24  C   UNL     1      -0.397  -2.583   1.833  0.00  0.00    +0.001 A 
ATOM     25  C   UNL     1       0.449  -2.968   0.795  0.00  0.00    +0.002 A 
ENDBRANCH  14  16
ENDBRANCH   4  14
ENDBRANCH  15  10
TORSDOF 7
