REMARK  Name = 26742268
REMARK  9 active torsions:
REMARK  status: ('A' for Active; 'I' for Inactive)
REMARK    1  A    between atoms: O_1  and  C_12
REMARK    2  A    between atoms: O_5  and  C_25
REMARK    3  A    between atoms: O_5  and  C_29
REMARK    4  A    between atoms: N_7  and  C_11
REMARK    5  A    between atoms: N_8  and  C_22
REMARK    6  A    between atoms: N_9  and  C_26
REMARK    7  A    between atoms: C_18  and  C_21
REMARK    8  A    between atoms: C_22  and  C_25
REMARK    9  A    between atoms: C_34  and  C_37
REMARK                            x       y       z     vdW  Elec       q    Type
REMARK                         _______ _______ _______ _____ _____    ______ ____
ROOT
ATOM      2  O   UNL     1      -3.848   3.245  -0.265  0.00  0.00    -0.252 OA
ATOM      6  N   UNL     1      -4.903   1.197  -0.460  0.00  0.00    -0.284 N 
ATOM      9  N   UNL     1      -2.661   1.460  -1.162  0.00  0.00    -0.269 N 
ATOM     11  C   UNL     1      -4.438  -1.123   0.406  0.00  0.00    +0.119 C 
ATOM     12  C   UNL     1      -4.834  -0.672   1.824  0.00  0.00    +0.136 C 
ATOM     13  C   UNL     1      -6.229  -0.055   1.962  0.00  0.00    +0.035 C 
ATOM     14  C   UNL     1      -4.925  -0.243  -0.752  0.00  0.00    +0.134 C 
ATOM     15  C   UNL     1      -6.271   1.433   1.605  0.00  0.00    +0.022 C 
ATOM     16  C   UNL     1      -6.139   1.729   0.116  0.00  0.00    +0.109 C 
ATOM     17  C   UNL     1      -3.792   2.061  -0.609  0.00  0.00    +0.307 C 
ATOM     40  H   UNL     1      -2.798   0.653  -1.760  0.00  0.00    +0.156 HD
ENDROOT
BRANCH   9  26
ATOM     26  C   UNL     1      -1.301   1.787  -0.933  0.00  0.00    +0.036 A 
ATOM     32  C   UNL     1      -0.293   1.072  -1.580  0.00  0.00    +0.042 A 
ATOM     33  C   UNL     1      -0.970   2.823  -0.060  0.00  0.00    +0.023 A 
ATOM     34  C   UNL     1       1.046   1.393  -1.354  0.00  0.00    +0.054 A 
ATOM     35  C   UNL     1       0.368   3.145   0.166  0.00  0.00    +0.003 A 
ATOM     36  C   UNL     1       1.376   2.430  -0.481  0.00  0.00    +0.019 A 
BRANCH  34  37
ATOM     10  N   UNL     1       2.917   0.067  -2.555  0.00  0.00    -0.191 NA
ATOM     37  C   UNL     1       2.078   0.661  -2.017  0.00  0.00    +0.099 C 
ENDBRANCH  34  37
ENDBRANCH   9  26
BRANCH  11   7
ATOM      4  O   UNL     1      -3.001  -3.073  -1.133  0.00  0.00    -0.270 OA
ATOM      7  N   UNL     1      -2.999  -1.291   0.349  0.00  0.00    -0.305 N 
ATOM     18  C   UNL     1      -2.402  -2.266  -0.428  0.00  0.00    +0.244 C 
ATOM     38  H   UNL     1      -2.432  -0.591   0.815  0.00  0.00    +0.149 HD
BRANCH  18  21
ATOM     21  C   UNL     1      -0.919  -2.325  -0.356  0.00  0.00    +0.037 A 
ATOM     27  C   UNL     1      -0.188  -2.821  -1.436  0.00  0.00    +0.016 A 
ATOM     28  C   UNL     1      -0.258  -1.885   0.791  0.00  0.00    +0.016 A 
ATOM     29  C   UNL     1       1.865  -2.436  -0.222  0.00  0.00    +0.121 A 
ATOM     30  C   UNL     1       1.205  -2.876  -1.369  0.00  0.00    +0.046 A 
ATOM     31  C   UNL     1       1.134  -1.940   0.858  0.00  0.00    +0.046 A 
BRANCH  29   5
ATOM      5  O   UNL     1       3.224  -2.491  -0.155  0.00  0.00    -0.491 OA
BRANCH   5  25
ATOM     25  C   UNL     1       3.875  -1.505   0.645  0.00  0.00    +0.244 C 
BRANCH  25  22
ATOM     22  C   UNL     1       5.259  -1.246   0.072  0.00  0.00    +0.125 C 
BRANCH  22   8
ATOM      3  O   UNL     1       7.634   2.061   1.089  0.00  0.00    -0.377 OA
ATOM      8  N   UNL     1       5.958  -0.227   0.852  0.00  0.00    -0.295 NA
ATOM     19  C   UNL     1       5.476   1.118   0.505  0.00  0.00    +0.112 C 
ATOM     20  C   UNL     1       7.410  -0.312   0.640  0.00  0.00    +0.112 C 
ATOM     23  C   UNL     1       6.229   2.164   1.322  0.00  0.00    +0.175 C 
ATOM     24  C   UNL     1       8.116   0.768   1.454  0.00  0.00    +0.175 C 
ENDBRANCH  22   8
ENDBRANCH  25  22
ENDBRANCH   5  25
ENDBRANCH  29   5
ENDBRANCH  18  21
ENDBRANCH  11   7
BRANCH  12   1
ATOM      1  O   UNL     1      -4.799  -1.826   2.675  0.00  0.00    -0.390 OA
ATOM     39  H   UNL     1      -4.920  -1.521   3.590  0.00  0.00    +0.210 HD
ENDBRANCH  12   1
TORSDOF 9
