REMARK  Name = 45783618
REMARK  13 active torsions:
REMARK  status: ('A' for Active; 'I' for Inactive)
REMARK    1  A    between atoms: O_2  and  C_23
REMARK    2  A    between atoms: O_2  and  C_29
REMARK    3  A    between atoms: O_3  and  C_24
REMARK    4  A    between atoms: O_3  and  C_30
REMARK    5  A    between atoms: O_4  and  C_25
REMARK    6  A    between atoms: O_4  and  C_31
REMARK    7  A    between atoms: O_6  and  C_34
REMARK    8  A    between atoms: O_6  and  C_35
REMARK    9  A    between atoms: N_7  and  C_17
REMARK   10  A    between atoms: C_13  and  C_18
REMARK   11  A    between atoms: C_17  and  C_19
REMARK   12  A    between atoms: C_22  and  C_26
REMARK   13  A    between atoms: C_33  and  C_34
REMARK                            x       y       z     vdW  Elec       q    Type
REMARK                         _______ _______ _______ _____ _____    ______ ____
ROOT
ATOM      7  N   UNL     1      -0.659  -3.234  -0.177  0.00  0.00    -0.287 NA
ATOM     13  C   UNL     1      -0.712  -3.006   1.281  0.00  0.00    +0.146 C 
ATOM     14  C   UNL     1       0.344  -3.962   1.865  0.00  0.00    +0.030 C 
ATOM     15  C   UNL     1       0.891  -4.729   0.670  0.00  0.00    +0.017 C 
ATOM     16  C   UNL     1      -0.212  -4.615  -0.363  0.00  0.00    +0.085 C 
ENDROOT
BRANCH  13  18
ATOM      1  O   UNL     1      -1.023  -1.125   2.810  0.00  0.00    -0.336 OA
ATOM      8  N   UNL     1       0.231  -0.647   1.017  0.00  0.00    -0.190 NA
ATOM      9  N   UNL     1      -0.656   0.221   2.938  0.00  0.00    -0.056 NA
ATOM     18  C   UNL     1      -0.459  -1.559   1.653  0.00  0.00    +0.245 A 
ATOM     22  C   UNL     1       0.081   0.428   1.843  0.00  0.00    +0.207 A 
BRANCH  22  26
ATOM      5  O   UNL     1       4.417   1.555  -0.719  0.00  0.00    -0.273 OA
ATOM     10  N   UNL     1       2.522   0.692   0.380  0.00  0.00    -0.268 N 
ATOM     11  N   UNL     1       2.426   3.034   0.564  0.00  0.00    -0.220 NA
ATOM     12  N   UNL     1       0.601   4.095   1.725  0.00  0.00    -0.243 NA
ATOM     26  C   UNL     1       0.683   1.696   1.547  0.00  0.00    +0.081 A 
ATOM     27  C   UNL     1       1.861   1.841   0.843  0.00  0.00    +0.139 A 
ATOM     28  C   UNL     1       0.091   2.870   1.968  0.00  0.00    +0.127 A 
ATOM     32  C   UNL     1       1.753   4.104   1.028  0.00  0.00    +0.223 A 
ATOM     33  C   UNL     1       3.713   0.622  -0.344  0.00  0.00    +0.244 C 
ATOM     36  H   UNL     1       2.087  -0.200   0.600  0.00  0.00    +0.156 HD
BRANCH  33  34
ATOM     34  C   UNL     1       4.097  -0.806  -0.664  0.00  0.00    +0.255 C 
BRANCH  34   6
ATOM      6  O   UNL     1       5.303  -0.800  -1.400  0.00  0.00    -0.374 OA
ATOM     35  C   UNL     1       5.726  -2.118  -1.737  0.00  0.00    +0.194 C 
ENDBRANCH  34   6
ENDBRANCH  33  34
ENDBRANCH  22  26
ENDBRANCH  13  18
BRANCH   7  17
ATOM     17  C   UNL     1      -1.928  -2.974  -0.845  0.00  0.00    +0.120 C 
BRANCH  17  19
ATOM     19  C   UNL     1      -2.150  -1.502  -1.073  0.00  0.00    -0.026 A 
ATOM     20  C   UNL     1      -3.273  -0.875  -0.535  0.00  0.00    +0.054 A 
ATOM     21  C   UNL     1      -1.232  -0.767  -1.823  0.00  0.00    +0.054 A 
ATOM     23  C   UNL     1      -1.437   0.597  -2.034  0.00  0.00    +0.165 A 
ATOM     24  C   UNL     1      -3.478   0.489  -0.746  0.00  0.00    +0.165 A 
ATOM     25  C   UNL     1      -2.561   1.224  -1.496  0.00  0.00    +0.204 A 
BRANCH  23   2
ATOM      2  O   UNL     1      -0.533   1.304  -2.768  0.00  0.00    -0.491 OA
ATOM     29  C   UNL     1       0.587   0.586  -3.282  0.00  0.00    +0.277 C 
ENDBRANCH  23   2
BRANCH  24   3
ATOM      3  O   UNL     1      -4.580   1.089  -0.216  0.00  0.00    -0.491 OA
ATOM     30  C   UNL     1      -5.468   0.265   0.537  0.00  0.00    +0.277 C 
ENDBRANCH  24   3
BRANCH  25   4
ATOM      4  O   UNL     1      -2.762   2.557  -1.703  0.00  0.00    -0.488 OA
ATOM     31  C   UNL     1      -2.204   3.452  -0.744  0.00  0.00    +0.277 C 
ENDBRANCH  25   4
ENDBRANCH  17  19
ENDBRANCH   7  17
TORSDOF 9
