REMARK  Name = 38030234
REMARK  13 active torsions:
REMARK  status: ('A' for Active; 'I' for Inactive)
REMARK    1  A    between atoms: N_3  and  C_14
REMARK    2  A    between atoms: N_3  and  C_20
REMARK    3  A    between atoms: N_6  and  C_21
REMARK    4  A    between atoms: C_7  and  C_11
REMARK    5  A    between atoms: C_8  and  C_14
REMARK    6  A    between atoms: C_10  and  C_15
REMARK    7  A    between atoms: C_11  and  C_16
REMARK    8  A    between atoms: C_11  and  C_17
REMARK    9  A    between atoms: C_12  and  C_18
REMARK   10  A    between atoms: C_15  and  C_19
REMARK   11  A    between atoms: C_20  and  C_21
REMARK   12  A    between atoms: C_22  and  C_23
REMARK   13  A    between atoms: C_24  and  C_27
REMARK                            x       y       z     vdW  Elec       q    Type
REMARK                         _______ _______ _______ _____ _____    ______ ____
ROOT
ATOM      7  C   UNL     1      -0.990   1.848   0.982  0.00  0.00    +0.000 C 
ATOM      8  C   UNL     1      -2.070   2.329  -0.016  0.00  0.00    +0.029 C 
ATOM      9  C   UNL     1       0.298   1.468   0.239  0.00  0.00    +0.012 C 
ATOM     10  C   UNL     1       0.869   2.615  -0.622  0.00  0.00    +0.024 C 
ATOM     12  C   UNL     1      -0.209   3.416  -1.337  0.00  0.00    -0.073 C 
ATOM     13  C   UNL     1      -1.517   3.265  -1.060  0.00  0.00    -0.023 C 
ATOM     18  C   UNL     1       0.239   4.443  -2.341  0.00  0.00    +0.039 C 
ENDROOT
BRANCH   7  11
ATOM     11  C   UNL     1      -0.717   2.904   2.062  0.00  0.00    -0.013 C 
ATOM     16  C   UNL     1       0.308   2.385   3.066  0.00  0.00    +0.007 C 
ATOM     17  C   UNL     1      -2.013   3.294   2.765  0.00  0.00    +0.007 C 
ENDBRANCH   7  11
BRANCH   8  14
ATOM     14  C   UNL     1      -2.763   1.152  -0.710  0.00  0.00    +0.088 C 
BRANCH  14   3
ATOM      3  N   UNL     1      -3.297   0.239   0.251  0.00  0.00    -0.314 NA
ATOM     31  H   UNL     1      -3.958   0.716   0.864  0.00  0.00    +0.122 HD
BRANCH   3  20
ATOM     20  C   UNL     1      -3.957  -0.906  -0.385  0.00  0.00    +0.099 C 
BRANCH  20  21
ATOM     21  C   UNL     1      -4.545  -1.831   0.669  0.00  0.00    +0.119 C 
BRANCH  21   6
ATOM      2  O   UNL     1      -7.338  -1.991  -0.107  0.00  0.00    -0.276 OA
ATOM      6  N   UNL     1      -5.221  -2.946   0.065  0.00  0.00    -0.314 N 
ATOM     24  C   UNL     1      -6.567  -2.933  -0.274  0.00  0.00    +0.210 C 
ATOM     27  C   UNL     1      -7.014  -4.220  -0.915  0.00  0.00    +0.109 C 
ATOM     32  H   UNL     1      -4.672  -3.778  -0.136  0.00  0.00    +0.149 HD
ENDBRANCH  21   6
ENDBRANCH  20  21
ENDBRANCH   3  20
ENDBRANCH  14   3
ENDBRANCH   8  14
BRANCH  10  15
ATOM     15  C   UNL     1       1.915   2.034  -1.581  0.00  0.00    +0.105 C 
BRANCH  15  19
ATOM      1  O   UNL     1       2.877  -0.103  -0.899  0.00  0.00    -0.420 OA
ATOM      4  N   UNL     1       3.978   1.685  -0.128  0.00  0.00    -0.112 NA
ATOM      5  N   UNL     1       4.626   0.553   0.330  0.00  0.00    -0.107 NA
ATOM     19  C   UNL     1       2.964   1.254  -0.841  0.00  0.00    +0.218 A 
ATOM     22  C   UNL     1       3.949  -0.466  -0.144  0.00  0.00    +0.248 A 
BRANCH  22  23
ATOM     23  C   UNL     1       4.161  -1.876   0.008  0.00  0.00    +0.038 A 
ATOM     25  C   UNL     1       3.112  -2.768  -0.222  0.00  0.00    +0.013 A 
ATOM     26  C   UNL     1       5.414  -2.357   0.386  0.00  0.00    +0.013 A 
ATOM     28  C   UNL     1       3.318  -4.139  -0.075  0.00  0.00    +0.001 A 
ATOM     29  C   UNL     1       5.620  -3.729   0.533  0.00  0.00    +0.001 A 
ATOM     30  C   UNL     1       4.572  -4.620   0.303  0.00  0.00    +0.000 A 
ENDBRANCH  22  23
ENDBRANCH  15  19
ENDBRANCH  10  15
TORSDOF 9
