REMARK  Name = 28962329
REMARK  10 active torsions:
REMARK  status: ('A' for Active; 'I' for Inactive)
REMARK    1  A    between atoms: O_3  and  C_11
REMARK    2  A    between atoms: O_4  and  C_14
REMARK    3  A    between atoms: N_6  and  C_9
REMARK    4  A    between atoms: N_6  and  C_15
REMARK    5  A    between atoms: N_6  and  C_16
REMARK    6  A    between atoms: N_7  and  C_13
REMARK    7  A    between atoms: N_8  and  C_24
REMARK    8  A    between atoms: C_10  and  C_13
REMARK    9  A    between atoms: C_12  and  C_14
REMARK   10  A    between atoms: C_15  and  C_17
REMARK                            x       y       z     vdW  Elec       q    Type
REMARK                         _______ _______ _______ _____ _____    ______ ____
ROOT
ATOM      2  O   UNL     1      -3.877  -1.512  -0.849  0.00  0.00    -0.365 OA
ATOM      9  C   UNL     1      -2.845   0.053   0.595  0.00  0.00    +0.118 C 
ATOM     10  C   UNL     1      -2.584  -1.089  -0.380  0.00  0.00    +0.155 C 
ATOM     11  C   UNL     1      -4.037   0.725  -0.060  0.00  0.00    +0.165 C 
ATOM     12  C   UNL     1      -4.837  -0.473  -0.572  0.00  0.00    +0.174 C 
ENDROOT
BRANCH  11   3
ATOM      3  O   UNL     1      -4.751   1.534   0.850  0.00  0.00    -0.388 OA
ATOM     30  H   UNL     1      -5.536   1.873   0.387  0.00  0.00    +0.210 HD
ENDBRANCH  11   3
BRANCH   9   6
ATOM      6  N   UNL     1      -1.705   0.943   0.747  0.00  0.00    -0.293 NA
ATOM     16  C   UNL     1      -1.879   1.812   1.913  0.00  0.00    +0.105 C 
BRANCH   6  15
ATOM     15  C   UNL     1      -1.514   1.750  -0.461  0.00  0.00    +0.119 C 
BRANCH  15  17
ATOM     17  C   UNL     1      -0.118   2.308  -0.547  0.00  0.00    -0.033 A 
ATOM     19  C   UNL     1       0.172   3.551   0.015  0.00  0.00    +0.005 A 
ATOM     20  C   UNL     1       0.885   1.581  -1.188  0.00  0.00    +0.005 A 
ATOM     21  C   UNL     1       1.465   4.068  -0.064  0.00  0.00    +0.000 A 
ATOM     22  C   UNL     1       2.178   2.098  -1.268  0.00  0.00    +0.000 A 
ATOM     23  C   UNL     1       2.469   3.341  -0.706  0.00  0.00    +0.000 A 
ENDBRANCH  15  17
ENDBRANCH   6  15
ENDBRANCH   9   6
BRANCH  10  13
ATOM     13  C   UNL     1      -1.849  -2.268   0.233  0.00  0.00    +0.139 C 
BRANCH  13   7
ATOM      5  O   UNL     1       0.628  -2.273  -1.205  0.00  0.00    -0.253 OA
ATOM      7  N   UNL     1      -0.564  -1.878   0.737  0.00  0.00    -0.297 N 
ATOM      8  N   UNL     1       1.704  -1.474   0.722  0.00  0.00    -0.269 N 
ATOM     18  C   UNL     1       0.611  -1.908  -0.032  0.00  0.00    +0.304 C 
ATOM     31  H   UNL     1      -0.505  -1.551   1.697  0.00  0.00    +0.150 HD
ATOM     33  H   UNL     1       1.516  -1.204   1.684  0.00  0.00    +0.156 HD
BRANCH   8  24
ATOM      1 CL   UNL     1       6.546  -0.237   1.903  0.00  0.00    -0.083 Cl
ATOM     24  C   UNL     1       3.053  -1.360   0.310  0.00  0.00    +0.036 A 
ATOM     25  C   UNL     1       4.021  -0.907   1.206  0.00  0.00    +0.043 A 
ATOM     26  C   UNL     1       3.414  -1.703  -0.993  0.00  0.00    +0.023 A 
ATOM     27  C   UNL     1       5.351  -0.797   0.799  0.00  0.00    +0.043 A 
ATOM     28  C   UNL     1       4.743  -1.593  -1.400  0.00  0.00    +0.003 A 
ATOM     29  C   UNL     1       5.712  -1.140  -0.504  0.00  0.00    +0.020 A 
ENDBRANCH   8  24
ENDBRANCH  13   7
ENDBRANCH  10  13
BRANCH  12  14
ATOM     14  C   UNL     1      -5.864  -1.031   0.406  0.00  0.00    +0.190 C 
BRANCH  14   4
ATOM      4  O   UNL     1      -6.529  -2.121  -0.208  0.00  0.00    -0.392 OA
ATOM     32  H   UNL     1      -7.176  -2.460   0.433  0.00  0.00    +0.210 HD
ENDBRANCH  14   4
ENDBRANCH  12  14
TORSDOF 9
