REMARK  Name = 7155482
REMARK  3 active torsions:
REMARK  status: ('A' for Active; 'I' for Inactive)
REMARK    1  A    between atoms: N_7  and  C_18
REMARK    2  A    between atoms: C_17  and  C_20
REMARK    3  A    between atoms: C_25  and  C_29
REMARK                            x       y       z     vdW  Elec       q    Type
REMARK                         _______ _______ _______ _____ _____    ______ ____
ROOT
ATOM      2  O   UNL     1       0.989   3.043   1.231  0.00  0.00    -0.266 OA
ATOM      3  O   UNL     1      -3.108   0.211   2.631  0.00  0.00    -0.270 OA
ATOM      5  N   UNL     1      -3.498   1.000   0.463  0.00  0.00    -0.297 N 
ATOM      6  N   UNL     1      -0.793   2.525  -0.188  0.00  0.00    -0.310 N 
ATOM      8  C   UNL     1      -3.157   3.447   0.164  0.00  0.00    +0.027 C 
ATOM      9  C   UNL     1      -2.708   1.913  -1.708  0.00  0.00    +0.054 C 
ATOM     10  C   UNL     1      -3.296   3.275  -1.345  0.00  0.00    +0.018 C 
ATOM     11  C   UNL     1      -3.916   2.331   0.904  0.00  0.00    +0.113 C 
ATOM     12  C   UNL     1      -1.666   3.469   0.524  0.00  0.00    +0.130 C 
ATOM     13  C   UNL     1      -3.503   0.800  -0.995  0.00  0.00    +0.117 C 
ATOM     14  C   UNL     1      -1.245   1.828  -1.313  0.00  0.00    +0.027 A 
ATOM     15  C   UNL     1      -0.398   1.058  -2.018  0.00  0.00    +0.024 A 
ATOM     16  C   UNL     1       0.541   2.437   0.257  0.00  0.00    +0.273 A 
ATOM     17  C   UNL     1      -3.115   0.050   1.412  0.00  0.00    +0.247 C 
ATOM     18  C   UNL     1       1.446   1.548  -0.539  0.00  0.00    +0.099 A 
ATOM     19  C   UNL     1       0.974   0.917  -1.619  0.00  0.00    +0.030 A 
ENDROOT
BRANCH  17  20
ATOM     20  C   UNL     1      -2.659  -1.258   0.929  0.00  0.00    +0.037 A 
ATOM     21  C   UNL     1      -1.308  -1.463   0.657  0.00  0.00    +0.021 A 
ATOM     22  C   UNL     1      -3.576  -2.285   0.747  0.00  0.00    +0.013 A 
ATOM     23  C   UNL     1      -0.856  -2.710   0.194  0.00  0.00    -0.017 A 
ATOM     24  C   UNL     1      -3.144  -3.530   0.288  0.00  0.00    +0.009 A 
ATOM     26  C   UNL     1      -1.788  -3.759   0.007  0.00  0.00    -0.018 A 
ATOM     27  C   UNL     1       0.501  -2.939  -0.086  0.00  0.00    +0.008 A 
ATOM     28  C   UNL     1      -1.335  -5.005  -0.456  0.00  0.00    +0.008 A 
ATOM     30  C   UNL     1       0.933  -4.183  -0.545  0.00  0.00    +0.001 A 
ATOM     31  C   UNL     1       0.017  -5.214  -0.730  0.00  0.00    +0.001 A 
ENDBRANCH  17  20
BRANCH  18   7
ATOM      4  O   UNL     1       3.128  -0.721  -0.951  0.00  0.00    -0.269 OA
ATOM      7  N   UNL     1       2.740   1.421  -0.129  0.00  0.00    -0.277 N 
ATOM     25  C   UNL     1       3.509   0.288  -0.361  0.00  0.00    +0.255 C 
ATOM     35  H   UNL     1       3.064   2.115   0.537  0.00  0.00    +0.155 HD
BRANCH  25  29
ATOM      1  S   UNL     1       5.876  -1.010  -0.119  0.00  0.00    -0.092 S 
ATOM     29  C   UNL     1       4.906   0.343   0.140  0.00  0.00    +0.074 A 
ATOM     32  C   UNL     1       5.490   1.364   0.785  0.00  0.00    +0.021 A 
ATOM     33  C   UNL     1       6.840   1.035   1.102  0.00  0.00    +0.008 A 
ATOM     34  C   UNL     1       7.180  -0.227   0.668  0.00  0.00    +0.046 A 
ENDBRANCH  25  29
ENDBRANCH  18   7
TORSDOF 3
