REMARK  Name = 11882073
REMARK  10 active torsions:
REMARK  status: ('A' for Active; 'I' for Inactive)
REMARK    1  A    between atoms: O_6  and  C_35
REMARK    2  A    between atoms: O_6  and  C_38
REMARK    3  A    between atoms: N_8  and  C_14
REMARK    4  A    between atoms: N_9  and  C_20
REMARK    5  A    between atoms: N_10  and  C_27
REMARK    6  A    between atoms: C_15  and  C_18
REMARK    7  A    between atoms: C_19  and  C_22
REMARK    8  A    between atoms: C_20  and  C_23
REMARK    9  A    between atoms: C_20  and  C_24
REMARK   10  A    between atoms: C_23  and  C_26
REMARK                            x       y       z     vdW  Elec       q    Type
REMARK                         _______ _______ _______ _____ _____    ______ ____
ROOT
ATOM      3  O   UNL     1      -2.680  -1.063   1.350  0.00  0.00    -0.268 OA
ATOM      7  N   UNL     1      -1.618  -1.628  -0.645  0.00  0.00    -0.283 N 
ATOM     14  C   UNL     1       0.323  -0.829  -1.746  0.00  0.00    +0.105 C 
ATOM     15  C   UNL     1      -0.737  -0.467  -0.707  0.00  0.00    +0.182 C 
ATOM     16  C   UNL     1      -0.403  -1.808  -2.670  0.00  0.00    +0.043 C 
ATOM     17  C   UNL     1      -1.341  -2.562  -1.735  0.00  0.00    +0.111 C 
ATOM     19  C   UNL     1      -2.455  -1.857   0.439  0.00  0.00    +0.267 C 
ENDROOT
BRANCH  14   8
ATOM      4  O   UNL     1       2.724   0.471  -0.878  0.00  0.00    -0.252 OA
ATOM      8  N   UNL     1       1.468  -1.454  -1.128  0.00  0.00    -0.294 N 
ATOM     10  N   UNL     1       3.547  -1.609  -0.166  0.00  0.00    -0.269 N 
ATOM     21  C   UNL     1       2.607  -0.743  -0.732  0.00  0.00    +0.304 C 
ATOM     39  H   UNL     1       1.421  -2.445  -0.911  0.00  0.00    +0.151 HD
ATOM     41  H   UNL     1       3.293  -2.592  -0.121  0.00  0.00    +0.156 HD
BRANCH  10  27
ATOM     27  C   UNL     1       4.821  -1.285   0.355  0.00  0.00    +0.038 A 
ATOM     30  C   UNL     1       5.266   0.037   0.340  0.00  0.00    +0.069 A 
ATOM     32  C   UNL     1       5.633  -2.288   0.884  0.00  0.00    +0.023 A 
ATOM     35  C   UNL     1       6.523   0.355   0.854  0.00  0.00    +0.122 A 
ATOM     36  C   UNL     1       6.890  -1.970   1.399  0.00  0.00    +0.005 A 
ATOM     37  C   UNL     1       7.335  -0.648   1.383  0.00  0.00    +0.046 A 
BRANCH  35   6
ATOM      6  O   UNL     1       6.957   1.645   0.840  0.00  0.00    -0.495 OA
ATOM     38  C   UNL     1       6.077   2.621   0.284  0.00  0.00    +0.277 C 
ENDBRANCH  35   6
ENDBRANCH  10  27
ENDBRANCH  14   8
BRANCH  19  22
ATOM     11  N   UNL     1      -2.325  -4.248   0.559  0.00  0.00    -0.247 NA
ATOM     13  N   UNL     1      -5.121  -4.461   0.573  0.00  0.00    -0.259 NA
ATOM     22  C   UNL     1      -3.123  -3.164   0.506  0.00  0.00    +0.144 A 
ATOM     25  C   UNL     1      -4.497  -3.268   0.513  0.00  0.00    +0.143 A 
ATOM     29  C   UNL     1      -2.949  -5.441   0.619  0.00  0.00    +0.131 A 
ATOM     31  C   UNL     1      -4.323  -5.546   0.626  0.00  0.00    +0.130 A 
ENDBRANCH  19  22
BRANCH  15  18
ATOM      2  O   UNL     1      -2.547   0.526  -1.906  0.00  0.00    -0.274 OA
ATOM      9  N   UNL     1      -1.138   1.894  -0.656  0.00  0.00    -0.302 N 
ATOM     18  C   UNL     1      -1.586   0.684  -1.158  0.00  0.00    +0.236 C 
ATOM     40  H   UNL     1      -0.281   1.912  -0.111  0.00  0.00    +0.150 HD
BRANCH   9  20
ATOM     20  C   UNL     1      -1.769   3.158  -0.960  0.00  0.00    +0.163 C 
BRANCH  20  24
ATOM      5  O   UNL     1       0.025   3.493  -2.565  0.00  0.00    -0.274 OA
ATOM     12  N   UNL     1      -2.066   4.297  -3.071  0.00  0.00    -0.328 N 
ATOM     24  C   UNL     1      -1.151   3.665  -2.255  0.00  0.00    +0.231 C 
ATOM     42  H   UNL     1      -1.788   4.669  -3.973  0.00  0.00    +0.145 HD
ATOM     43  H   UNL     1      -3.037   4.430  -2.804  0.00  0.00    +0.145 HD
ENDBRANCH  20  24
BRANCH  20  23
ATOM     23  C   UNL     1      -1.580   4.187   0.161  0.00  0.00    +0.074 C 
BRANCH  23  26
ATOM      1  S   UNL     1      -3.584   5.230   1.791  0.00  0.00    -0.102 S 
ATOM     26  C   UNL     1      -2.534   3.965   1.311  0.00  0.00    -0.008 A 
ATOM     28  C   UNL     1      -2.701   2.835   2.081  0.00  0.00    +0.011 A 
ATOM     33  C   UNL     1      -3.704   3.010   3.077  0.00  0.00    +0.008 A 
ATOM     34  C   UNL     1      -4.265   4.267   3.032  0.00  0.00    +0.045 A 
ENDBRANCH  23  26
ENDBRANCH  20  23
ENDBRANCH   9  20
ENDBRANCH  15  18
TORSDOF 9
