REMARK  Name = 40778240
REMARK  8 active torsions:
REMARK  status: ('A' for Active; 'I' for Inactive)
REMARK    1  A    between atoms: O_3  and  C_13
REMARK    2  A    between atoms: O_4  and  C_14
REMARK    3  A    between atoms: N_7  and  C_17
REMARK    4  A    between atoms: N_9  and  C_25
REMARK    5  A    between atoms: C_10  and  C_19
REMARK    6  A    between atoms: C_11  and  C_17
REMARK    7  A    between atoms: C_12  and  C_18
REMARK    8  A    between atoms: C_18  and  C_20
REMARK                            x       y       z     vdW  Elec       q    Type
REMARK                         _______ _______ _______ _____ _____    ______ ____
ROOT
ATOM      2  O   UNL     1      -3.543  -0.358  -0.419  0.00  0.00    -0.366 OA
ATOM     11  C   UNL     1      -4.904  -0.349   0.068  0.00  0.00    +0.167 C 
ATOM     12  C   UNL     1      -2.982  -1.666  -0.211  0.00  0.00    +0.159 C 
ATOM     13  C   UNL     1      -5.234  -1.788   0.449  0.00  0.00    +0.176 C 
ATOM     14  C   UNL     1      -3.872  -2.336   0.822  0.00  0.00    +0.175 C 
ENDROOT
BRANCH  13   3
ATOM      3  O   UNL     1      -5.733  -2.450  -0.713  0.00  0.00    -0.387 OA
ATOM     32  H   UNL     1      -6.587  -2.042  -0.936  0.00  0.00    +0.210 HD
ENDBRANCH  13   3
BRANCH  14   4
ATOM      4  O   UNL     1      -3.797  -3.744   0.753  0.00  0.00    -0.387 OA
ATOM     33  H   UNL     1      -4.472  -4.101   1.355  0.00  0.00    +0.210 HD
ENDBRANCH  14   4
BRANCH  11  17
ATOM     17  C   UNL     1      -4.970   0.610   1.249  0.00  0.00    +0.138 C 
BRANCH  17   7
ATOM      5  O   UNL     1      -2.369   1.907   1.161  0.00  0.00    -0.276 OA
ATOM      7  N   UNL     1      -4.672   1.973   0.833  0.00  0.00    -0.313 N 
ATOM     19  C   UNL     1      -3.396   2.488   0.831  0.00  0.00    +0.216 C 
ATOM     31  H   UNL     1      -5.449   2.557   0.537  0.00  0.00    +0.149 HD
BRANCH  19  10
ATOM     10  C   UNL     1      -3.323   3.905   0.365  0.00  0.00    +0.075 C 
ATOM     15  C   UNL     1      -2.409   4.253  -0.773  0.00  0.00    +0.013 C 
ATOM     16  C   UNL     1      -3.896   4.263  -0.974  0.00  0.00    +0.013 C 
ENDBRANCH  19  10
ENDBRANCH  17   7
ENDBRANCH  11  17
BRANCH  12  18
ATOM     18  C   UNL     1      -1.536  -1.537   0.233  0.00  0.00    +0.130 C 
BRANCH  18  20
ATOM      6  O   UNL     1      -1.157  -1.163  -2.081  0.00  0.00    -0.276 OA
ATOM      8  N   UNL     1       0.701  -1.058  -0.690  0.00  0.00    -0.298 N 
ATOM      9  N   UNL     1       3.495  -0.459  -0.227  0.00  0.00    -0.327 N 
ATOM     20  C   UNL     1      -0.657  -1.235  -0.956  0.00  0.00    +0.218 C 
ATOM     21  C   UNL     1       1.618  -0.767  -1.790  0.00  0.00    +0.126 C 
ATOM     22  C   UNL     1       1.292  -1.133   0.648  0.00  0.00    +0.126 C 
ATOM     23  C   UNL     1       2.768   0.137  -1.351  0.00  0.00    +0.124 C 
ATOM     24  C   UNL     1       2.792  -1.429   0.617  0.00  0.00    +0.124 C 
BRANCH   9  25
ATOM      1  F   UNL     1       8.786   0.819   0.702  0.00  0.00    -0.205 F 
ATOM     25  C   UNL     1       4.830  -0.137   0.007  0.00  0.00    +0.030 A 
ATOM     26  C   UNL     1       5.316   1.121  -0.349  0.00  0.00    +0.026 A 
ATOM     27  C   UNL     1       5.680  -1.071   0.600  0.00  0.00    +0.026 A 
ATOM     28  C   UNL     1       6.653   1.444  -0.115  0.00  0.00    +0.040 A 
ATOM     29  C   UNL     1       7.016  -0.748   0.834  0.00  0.00    +0.040 A 
ATOM     30  C   UNL     1       7.503   0.509   0.477  0.00  0.00    +0.124 A 
ENDBRANCH   9  25
ENDBRANCH  18  20
ENDBRANCH  12  18
TORSDOF 8
