REMARK  Name = 11884043
REMARK  8 active torsions:
REMARK  status: ('A' for Active; 'I' for Inactive)
REMARK    1  A    between atoms: S_1  and  N_9
REMARK    2  A    between atoms: S_1  and  C_17
REMARK    3  A    between atoms: O_4  and  C_14
REMARK    4  A    between atoms: O_4  and  C_18
REMARK    5  A    between atoms: O_8  and  C_33
REMARK    6  A    between atoms: O_8  and  C_34
REMARK    7  A    between atoms: N_9  and  C_13
REMARK    8  A    between atoms: N_10  and  C_24
REMARK                            x       y       z     vdW  Elec       q    Type
REMARK                         _______ _______ _______ _____ _____    ______ ____
ROOT
ATOM      2  O   UNL     1       1.542   2.859   0.251  0.00  0.00    -0.369 OA
ATOM      3  O   UNL     1       3.105   0.736   1.836  0.00  0.00    -0.368 OA
ATOM     11  C   UNL     1       3.034   1.022   0.423  0.00  0.00    +0.171 C 
ATOM     12  C   UNL     1       1.604   1.428   0.128  0.00  0.00    +0.191 C 
ATOM     13  C   UNL     1       3.837   2.260   0.109  0.00  0.00    +0.133 C 
ATOM     14  C   UNL     1       0.832   0.738   1.227  0.00  0.00    +0.235 C 
ATOM     15  C   UNL     1       2.867   3.380   0.429  0.00  0.00    +0.183 C 
ATOM     16  C   UNL     1       1.787   0.836   2.395  0.00  0.00    +0.207 C 
ENDROOT
BRANCH  13   9
ATOM      9  N   UNL     1       4.178   2.289  -1.334  0.00  0.00    -0.182 NA
ATOM     40  H   UNL     1       3.387   2.297  -1.990  0.00  0.00    +0.148 HD
BRANCH   9   1
ATOM      1  S   UNL     1       5.678   1.693  -1.859  0.00  0.00    +0.059 S 
ATOM      5  O   UNL     1       6.743   2.352  -1.127  0.00  0.00    -0.153 OA
ATOM      6  O   UNL     1       5.692   1.677  -3.309  0.00  0.00    -0.153 OA
BRANCH   1  17
ATOM     17  C   UNL     1       5.609   0.010  -1.326  0.00  0.00    +0.106 A 
ATOM     19  C   UNL     1       6.078  -0.340  -0.059  0.00  0.00    +0.037 A 
ATOM     20  C   UNL     1       5.089  -0.967  -2.170  0.00  0.00    +0.029 A 
ATOM     21  C   UNL     1       6.031  -1.673   0.380  0.00  0.00    -0.016 A 
ATOM     22  C   UNL     1       5.034  -2.296  -1.750  0.00  0.00    +0.010 A 
ATOM     23  C   UNL     1       5.501  -2.666  -0.479  0.00  0.00    -0.018 A 
ATOM     25  C   UNL     1       6.497  -2.043   1.652  0.00  0.00    +0.008 A 
ATOM     26  C   UNL     1       5.455  -4.000  -0.040  0.00  0.00    +0.008 A 
ATOM     27  C   UNL     1       6.444  -3.373   2.071  0.00  0.00    +0.001 A 
ATOM     30  C   UNL     1       5.923  -4.349   1.227  0.00  0.00    +0.001 A 
ENDBRANCH   1  17
ENDBRANCH   9   1
ENDBRANCH  13   9
BRANCH  14   4
ATOM      4  O   UNL     1      -0.411   1.341   1.506  0.00  0.00    -0.442 OA
BRANCH   4  18
ATOM      7  O   UNL     1      -1.435  -0.086   0.041  0.00  0.00    -0.226 OA
ATOM     10  N   UNL     1      -2.641   1.534   1.225  0.00  0.00    -0.251 N 
ATOM     18  C   UNL     1      -1.511   0.839   0.841  0.00  0.00    +0.405 C 
ATOM     41  H   UNL     1      -2.502   2.275   1.908  0.00  0.00    +0.158 HD
BRANCH  10  24
ATOM     24  C   UNL     1      -3.971   1.343   0.788  0.00  0.00    +0.037 A 
ATOM     28  C   UNL     1      -4.993   2.148   1.291  0.00  0.00    +0.027 A 
ATOM     29  C   UNL     1      -4.262   0.351  -0.149  0.00  0.00    +0.027 A 
ATOM     31  C   UNL     1      -6.306   1.960   0.858  0.00  0.00    +0.048 A 
ATOM     32  C   UNL     1      -5.574   0.163  -0.582  0.00  0.00    +0.048 A 
ATOM     33  C   UNL     1      -6.596   0.968  -0.078  0.00  0.00    +0.129 A 
BRANCH  33   8
ATOM      8  O   UNL     1      -7.877   0.787  -0.502  0.00  0.00    -0.456 OA
BRANCH   8  34
ATOM     34  C   UNL     1      -8.352  -0.512  -0.577  0.00  0.00    +0.128 A 
ATOM     35  C   UNL     1      -8.113  -1.403   0.469  0.00  0.00    +0.046 A 
ATOM     36  C   UNL     1      -9.070  -0.929  -1.698  0.00  0.00    +0.046 A 
ATOM     37  C   UNL     1      -8.591  -2.712   0.394  0.00  0.00    +0.004 A 
ATOM     38  C   UNL     1      -9.548  -2.237  -1.773  0.00  0.00    +0.004 A 
ATOM     39  C   UNL     1      -9.309  -3.128  -0.727  0.00  0.00    +0.000 A 
ENDBRANCH   8  34
ENDBRANCH  33   8
ENDBRANCH  10  24
ENDBRANCH   4  18
ENDBRANCH  14   4
TORSDOF 8
