REMARK  Name = 11883392
REMARK  6 active torsions:
REMARK  status: ('A' for Active; 'I' for Inactive)
REMARK    1  A    between atoms: O_6  and  C_14
REMARK    2  A    between atoms: O_6  and  C_24
REMARK    3  A    between atoms: N_9  and  C_13
REMARK    4  A    between atoms: N_10  and  C_25
REMARK    5  A    between atoms: C_17  and  C_20
REMARK    6  A    between atoms: C_28  and  C_31
REMARK                            x       y       z     vdW  Elec       q    Type
REMARK                         _______ _______ _______ _____ _____    ______ ____
ROOT
ATOM      4  O   UNL     1      -1.123   1.239   1.162  0.00  0.00    -0.368 OA
ATOM      5  O   UNL     1      -2.312   2.603  -1.314  0.00  0.00    -0.368 OA
ATOM     11  C   UNL     1      -2.618   1.345  -0.676  0.00  0.00    +0.173 C 
ATOM     12  C   UNL     1      -1.304   0.771  -0.185  0.00  0.00    +0.192 C 
ATOM     13  C   UNL     1      -3.405   1.584   0.592  0.00  0.00    +0.130 C 
ATOM     14  C   UNL     1      -0.303   1.390  -1.132  0.00  0.00    +0.235 C 
ATOM     15  C   UNL     1      -2.311   1.921   1.591  0.00  0.00    +0.185 C 
ATOM     16  C   UNL     1      -0.887   2.766  -1.358  0.00  0.00    +0.207 C 
ENDROOT
BRANCH  13   9
ATOM      7  O   UNL     1      -6.167   0.926  -0.016  0.00  0.00    -0.276 OA
ATOM      9  N   UNL     1      -4.131   0.403   0.987  0.00  0.00    -0.307 N 
ATOM     20  C   UNL     1      -5.456   0.175   0.647  0.00  0.00    +0.216 C 
ATOM     32  H   UNL     1      -3.620  -0.321   1.484  0.00  0.00    +0.149 HD
BRANCH  20  17
ATOM     17  C   UNL     1      -5.960  -1.141   1.163  0.00  0.00    +0.075 C 
ATOM     18  C   UNL     1      -7.454  -1.069   1.488  0.00  0.00    +0.013 C 
ATOM     19  C   UNL     1      -5.623  -2.259   0.174  0.00  0.00    +0.013 C 
ATOM     21  C   UNL     1      -8.348  -1.105   0.249  0.00  0.00    +0.001 C 
ATOM     22  C   UNL     1      -6.531  -2.265  -1.055  0.00  0.00    +0.001 C 
ATOM     23  C   UNL     1      -8.005  -2.275  -0.665  0.00  0.00    +0.000 C 
ENDBRANCH  20  17
ENDBRANCH  13   9
BRANCH  14   6
ATOM      6  O   UNL     1       1.005   1.447  -0.610  0.00  0.00    -0.442 OA
BRANCH   6  24
ATOM      8  O   UNL     1       1.491  -0.558  -1.597  0.00  0.00    -0.226 OA
ATOM     10  N   UNL     1       3.078   0.604  -0.327  0.00  0.00    -0.251 N 
ATOM     24  C   UNL     1       1.843   0.393  -0.910  0.00  0.00    +0.405 C 
ATOM     33  H   UNL     1       3.180   1.461   0.211  0.00  0.00    +0.158 HD
BRANCH  10  25
ATOM     25  C   UNL     1       4.220  -0.226  -0.384  0.00  0.00    +0.037 A 
ATOM     26  C   UNL     1       5.391   0.151   0.273  0.00  0.00    +0.035 A 
ATOM     27  C   UNL     1       4.176  -1.424  -1.098  0.00  0.00    +0.023 A 
ATOM     28  C   UNL     1       6.518  -0.668   0.215  0.00  0.00    +0.057 A 
ATOM     29  C   UNL     1       5.303  -2.244  -1.155  0.00  0.00    +0.002 A 
ATOM     30  C   UNL     1       6.474  -1.866  -0.498  0.00  0.00    +0.012 A 
BRANCH  28  31
ATOM      1  F   UNL     1       8.792  -1.161   0.775  0.00  0.00    -0.166 F 
ATOM      2  F   UNL     1       8.281   0.926   0.484  0.00  0.00    -0.166 F 
ATOM      3  F   UNL     1       7.595  -0.120   2.263  0.00  0.00    -0.166 F 
ATOM     31  C   UNL     1       7.771  -0.265   0.917  0.00  0.00    +0.417 C 
ENDBRANCH  28  31
ENDBRANCH  10  25
ENDBRANCH   6  24
ENDBRANCH  14   6
TORSDOF 6
