REMARK  Name = 11886423
REMARK  6 active torsions:
REMARK  status: ('A' for Active; 'I' for Inactive)
REMARK    1  A    between atoms: S_1  and  N_8
REMARK    2  A    between atoms: S_1  and  C_22
REMARK    3  A    between atoms: S_3  and  C_27
REMARK    4  A    between atoms: S_3  and  C_28
REMARK    5  A    between atoms: N_10  and  C_20
REMARK    6  A    between atoms: C_26  and  C_27
REMARK                            x       y       z     vdW  Elec       q    Type
REMARK                         _______ _______ _______ _____ _____    ______ ____
ROOT
ATOM      6  O   UNL     1       1.751   2.087   1.717  0.00  0.00    -0.266 OA
ATOM      8  N   UNL     1      -2.717   0.373   0.332  0.00  0.00    -0.175 NA
ATOM      9  N   UNL     1      -0.010   1.998   0.184  0.00  0.00    -0.310 N 
ATOM     11  C   UNL     1      -2.374   2.812   0.738  0.00  0.00    +0.025 C 
ATOM     12  C   UNL     1      -1.899   1.867  -1.479  0.00  0.00    +0.052 C 
ATOM     13  C   UNL     1      -2.479   3.081  -0.758  0.00  0.00    +0.017 C 
ATOM     14  C   UNL     1      -3.173   1.555   1.119  0.00  0.00    +0.114 C 
ATOM     15  C   UNL     1      -2.733   0.619  -1.141  0.00  0.00    +0.119 C 
ATOM     16  C   UNL     1      -0.893   2.704   1.122  0.00  0.00    +0.130 C 
ATOM     17  C   UNL     1      -0.446   1.651  -1.099  0.00  0.00    +0.026 A 
ATOM     18  C   UNL     1       0.412   1.108  -1.979  0.00  0.00    +0.024 A 
ATOM     19  C   UNL     1       1.318   1.783   0.605  0.00  0.00    +0.273 A 
ATOM     20  C   UNL     1       2.236   1.155  -0.398  0.00  0.00    +0.099 A 
ATOM     21  C   UNL     1       1.779   0.855  -1.619  0.00  0.00    +0.030 A 
ENDROOT
BRANCH  20  10
ATOM      7  O   UNL     1       3.923  -0.945  -1.365  0.00  0.00    -0.275 OA
ATOM     10  N   UNL     1       3.526   0.919  -0.025  0.00  0.00    -0.281 N 
ATOM     26  C   UNL     1       4.297  -0.115  -0.537  0.00  0.00    +0.227 C 
ATOM     29  H   UNL     1       3.848   1.386   0.819  0.00  0.00    +0.155 HD
BRANCH  26  27
ATOM     27  C   UNL     1       5.690  -0.150   0.046  0.00  0.00    +0.164 C 
BRANCH  27   3
ATOM      3  S   UNL     1       5.950  -1.753   0.844  0.00  0.00    -0.155 S 
ATOM     28  C   UNL     1       4.619  -1.664   2.065  0.00  0.00    +0.085 C 
ENDBRANCH  27   3
ENDBRANCH  26  27
ENDBRANCH  20  10
BRANCH   8   1
ATOM      1  S   UNL     1      -3.345  -1.137   0.837  0.00  0.00    +0.067 S 
ATOM      4  O   UNL     1      -4.666  -1.301   0.267  0.00  0.00    -0.152 OA
ATOM      5  O   UNL     1      -3.094  -1.308   2.252  0.00  0.00    -0.152 OA
BRANCH   1  22
ATOM      2  S   UNL     1      -0.775  -2.523   0.684  0.00  0.00    -0.077 S 
ATOM     22  C   UNL     1      -2.355  -2.415   0.068  0.00  0.00    +0.143 A 
ATOM     23  C   UNL     1      -2.626  -3.311  -0.913  0.00  0.00    +0.036 A 
ATOM     24  C   UNL     1      -1.495  -4.134  -1.183  0.00  0.00    +0.010 A 
ATOM     25  C   UNL     1      -0.419  -3.812  -0.385  0.00  0.00    +0.047 A 
ENDBRANCH   1  22
ENDBRANCH   8   1
TORSDOF 5
