REMARK  Name = 7143040
REMARK  9 active torsions:
REMARK  status: ('A' for Active; 'I' for Inactive)
REMARK    1  A    between atoms: O_4  and  C_28
REMARK    2  A    between atoms: O_4  and  C_33
REMARK    3  A    between atoms: N_7  and  C_21
REMARK    4  A    between atoms: N_8  and  C_27
REMARK    5  A    between atoms: C_16  and  C_19
REMARK    6  A    between atoms: C_19  and  C_20
REMARK    7  A    between atoms: C_20  and  C_23
REMARK    8  A    between atoms: C_20  and  C_24
REMARK    9  A    between atoms: C_20  and  C_25
REMARK                            x       y       z     vdW  Elec       q    Type
REMARK                         _______ _______ _______ _____ _____    ______ ____
ROOT
ATOM      1  O   UNL     1      -4.253  -1.469   1.758  0.00  0.00    -0.276 OA
ATOM      2  O   UNL     1      -0.238   2.073   1.831  0.00  0.00    -0.266 OA
ATOM      5  N   UNL     1      -4.478   0.068   0.030  0.00  0.00    -0.301 N 
ATOM      6  N   UNL     1      -1.901   1.955   0.194  0.00  0.00    -0.310 N 
ATOM      9  C   UNL     1      -4.360   2.478   0.678  0.00  0.00    +0.027 C 
ATOM     10  C   UNL     1      -3.681   1.788  -1.582  0.00  0.00    +0.054 C 
ATOM     11  C   UNL     1      -4.423   2.866  -0.794  0.00  0.00    +0.018 C 
ATOM     12  C   UNL     1      -5.024   1.109   0.904  0.00  0.00    +0.113 C 
ATOM     13  C   UNL     1      -4.386   0.431  -1.392  0.00  0.00    +0.117 C 
ATOM     14  C   UNL     1      -2.896   2.491   1.133  0.00  0.00    +0.130 C 
ATOM     15  C   UNL     1      -2.234   1.684  -1.137  0.00  0.00    +0.027 A 
ATOM     16  C   UNL     1      -4.170  -1.185   0.560  0.00  0.00    +0.216 C 
ATOM     17  C   UNL     1      -1.283   1.305  -2.007  0.00  0.00    +0.024 A 
ATOM     18  C   UNL     1      -0.582   1.829   0.674  0.00  0.00    +0.273 A 
ATOM     21  C   UNL     1       0.443   1.381  -0.322  0.00  0.00    +0.100 A 
ATOM     22  C   UNL     1       0.081   1.151  -1.588  0.00  0.00    +0.030 A 
ENDROOT
BRANCH  21   7
ATOM      3  O   UNL     1       2.361  -0.439  -1.370  0.00  0.00    -0.252 OA
ATOM      7  N   UNL     1       1.730   1.234   0.106  0.00  0.00    -0.265 N 
ATOM      8  N   UNL     1       3.871   0.414   0.211  0.00  0.00    -0.266 N 
ATOM     26  C   UNL     1       2.638   0.321  -0.445  0.00  0.00    +0.308 C 
ATOM     34  H   UNL     1       1.960   1.627   1.015  0.00  0.00    +0.157 HD
ATOM     35  H   UNL     1       3.938   1.096   0.962  0.00  0.00    +0.156 HD
BRANCH   8  27
ATOM     27  C   UNL     1       5.047  -0.330  -0.040  0.00  0.00    +0.077 A 
ATOM     28  C   UNL     1       6.201  -0.112   0.713  0.00  0.00    +0.141 A 
ATOM     29  C   UNL     1       5.045  -1.291  -1.051  0.00  0.00    +0.027 A 
ATOM     30  C   UNL     1       7.354  -0.854   0.453  0.00  0.00    +0.047 A 
ATOM     31  C   UNL     1       6.198  -2.032  -1.311  0.00  0.00    +0.002 A 
ATOM     32  C   UNL     1       7.352  -1.814  -0.558  0.00  0.00    +0.004 A 
BRANCH  28   4
ATOM      4  O   UNL     1       6.224   0.822   1.706  0.00  0.00    -0.493 OA
ATOM     33  C   UNL     1       6.613   2.145   1.342  0.00  0.00    +0.277 C 
ENDBRANCH  28   4
ENDBRANCH   8  27
ENDBRANCH  21   7
BRANCH  16  19
ATOM     19  C   UNL     1      -3.701  -2.234  -0.415  0.00  0.00    +0.102 C 
BRANCH  19  20
ATOM     20  C   UNL     1      -3.437  -3.596   0.252  0.00  0.00    -0.029 C 
ATOM     23  C   UNL     1      -4.749  -4.062   0.910  0.00  0.00    +0.011 C 
ATOM     24  C   UNL     1      -3.006  -4.648  -0.784  0.00  0.00    +0.011 C 
ATOM     25  C   UNL     1      -2.357  -3.480   1.341  0.00  0.00    +0.011 C 
ENDBRANCH  19  20
ENDBRANCH  16  19
TORSDOF 5
