REMARK  Name = 11912496
REMARK  9 active torsions:
REMARK  status: ('A' for Active; 'I' for Inactive)
REMARK    1  A    between atoms: O_3  and  C_14
REMARK    2  A    between atoms: O_3  and  C_18
REMARK    3  A    between atoms: O_5  and  C_33
REMARK    4  A    between atoms: O_5  and  C_36
REMARK    5  A    between atoms: N_7  and  C_13
REMARK    6  A    between atoms: N_10  and  C_22
REMARK    7  A    between atoms: C_19  and  C_23
REMARK    8  A    between atoms: C_30  and  C_34
REMARK    9  A    between atoms: C_34  and  C_35
REMARK                            x       y       z     vdW  Elec       q    Type
REMARK                         _______ _______ _______ _____ _____    ______ ____
ROOT
ATOM      1  O   UNL     1       0.676   1.101  -1.904  0.00  0.00    -0.368 OA
ATOM      2  O   UNL     1      -1.092  -1.326  -1.276  0.00  0.00    -0.368 OA
ATOM     11  C   UNL     1      -1.016  -0.017  -0.674  0.00  0.00    +0.173 C 
ATOM     12  C   UNL     1       0.446   0.384  -0.680  0.00  0.00    +0.192 C 
ATOM     13  C   UNL     1      -1.678   1.003  -1.570  0.00  0.00    +0.130 C 
ATOM     14  C   UNL     1       1.151  -0.951  -0.673  0.00  0.00    +0.235 C 
ATOM     15  C   UNL     1      -0.578   1.321  -2.569  0.00  0.00    +0.185 C 
ATOM     16  C   UNL     1       0.239  -1.798  -1.531  0.00  0.00    +0.207 C 
ENDROOT
BRANCH  13   7
ATOM      7  N   UNL     1      -2.026   2.187  -0.813  0.00  0.00    -0.306 N 
ATOM      8  N   UNL     1      -4.046   1.270  -0.127  0.00  0.00    -0.214 NA
ATOM      9  N   UNL     1      -3.379   3.481   0.560  0.00  0.00    -0.223 NA
ATOM     17  C   UNL     1      -3.201   2.318  -0.095  0.00  0.00    +0.216 A 
ATOM     19  C   UNL     1      -5.182   1.432   0.583  0.00  0.00    +0.076 A 
ATOM     20  C   UNL     1      -4.535   3.576   1.249  0.00  0.00    +0.116 A 
ATOM     21  C   UNL     1      -5.483   2.574   1.298  0.00  0.00    +0.048 A 
ATOM     37  H   UNL     1      -1.362   2.951  -0.751  0.00  0.00    +0.149 HD
BRANCH  19  23
ATOM     23  C   UNL     1      -6.089   0.310   0.553  0.00  0.00    +0.001 A 
ATOM     26  C   UNL     1      -7.381   0.473   0.052  0.00  0.00    +0.013 A 
ATOM     27  C   UNL     1      -5.676  -0.936   1.024  0.00  0.00    +0.013 A 
ATOM     31  C   UNL     1      -8.259  -0.610   0.024  0.00  0.00    +0.046 A 
ATOM     32  C   UNL     1      -6.554  -2.019   0.996  0.00  0.00    +0.046 A 
ATOM     33  C   UNL     1      -7.846  -1.856   0.496  0.00  0.00    +0.120 A 
BRANCH  33   5
ATOM      5  O   UNL     1      -8.703  -2.913   0.466  0.00  0.00    -0.495 OA
ATOM     36  C   UNL     1      -8.216  -4.158   0.963  0.00  0.00    +0.277 C 
ENDBRANCH  33   5
ENDBRANCH  19  23
ENDBRANCH  13   7
BRANCH  14   3
ATOM      3  O   UNL     1       2.463  -0.897  -1.187  0.00  0.00    -0.442 OA
BRANCH   3  18
ATOM      4  O   UNL     1       3.282  -0.588   0.926  0.00  0.00    -0.226 OA
ATOM     10  N   UNL     1       4.694  -0.679  -0.939  0.00  0.00    -0.251 N 
ATOM     18  C   UNL     1       3.482  -0.707  -0.277  0.00  0.00    +0.405 C 
ATOM     38  H   UNL     1       4.658  -0.796  -1.949  0.00  0.00    +0.158 HD
BRANCH  10  22
ATOM     22  C   UNL     1       5.984  -0.507  -0.387  0.00  0.00    +0.036 A 
ATOM     24  C   UNL     1       7.104  -0.506  -1.218  0.00  0.00    +0.024 A 
ATOM     25  C   UNL     1       6.137  -0.339   0.989  0.00  0.00    +0.024 A 
ATOM     28  C   UNL     1       8.377  -0.338  -0.673  0.00  0.00    +0.013 A 
ATOM     29  C   UNL     1       7.410  -0.171   1.534  0.00  0.00    +0.013 A 
ATOM     30  C   UNL     1       8.530  -0.170   0.703  0.00  0.00    +0.017 A 
BRANCH  30  34
ATOM      6  O   UNL     1      10.038   0.676   2.307  0.00  0.00    -0.292 OA
ATOM     34  C   UNL     1       9.857   0.007   1.270  0.00  0.00    +0.160 C 
ATOM     35  C   UNL     1      11.070  -0.631   0.602  0.00  0.00    +0.091 C 
ENDBRANCH  30  34
ENDBRANCH  10  22
ENDBRANCH   3  18
ENDBRANCH  14   3
TORSDOF 7
