REMARK  Name = 45784302
REMARK  6 active torsions:
REMARK  status: ('A' for Active; 'I' for Inactive)
REMARK    1  A    between atoms: O_4  and  C_21
REMARK    2  A    between atoms: O_4  and  C_27
REMARK    3  A    between atoms: N_5  and  C_13
REMARK    4  A    between atoms: C_8  and  C_12
REMARK    5  A    between atoms: C_13  and  C_14
REMARK    6  A    between atoms: C_25  and  C_26
REMARK                            x       y       z     vdW  Elec       q    Type
REMARK                         _______ _______ _______ _____ _____    ______ ____
ROOT
ATOM      5  N   UNL     1      -1.004  -0.153  -0.281  0.00  0.00    -0.297 NA
ATOM      8  C   UNL     1       1.181  -0.715   0.360  0.00  0.00    +0.070 C 
ATOM      9  C   UNL     1       0.429  -0.120   1.563  0.00  0.00    +0.028 C 
ATOM     10  C   UNL     1       0.330  -0.332  -0.859  0.00  0.00    +0.096 C 
ATOM     11  C   UNL     1      -0.780   0.585   0.962  0.00  0.00    +0.085 C 
ENDROOT
BRANCH   8  12
ATOM      6  N   UNL     1       3.644  -1.185   0.257  0.00  0.00    -0.341 N 
ATOM      7  N   UNL     1       3.060   0.953   0.091  0.00  0.00    -0.232 NA
ATOM     12  C   UNL     1       2.622  -0.278   0.232  0.00  0.00    +0.113 A 
ATOM     15  C   UNL     1       4.821  -0.494   0.122  0.00  0.00    +0.070 A 
ATOM     16  C   UNL     1       4.430   0.838   0.021  0.00  0.00    +0.089 A 
ATOM     19  C   UNL     1       6.153  -0.907   0.082  0.00  0.00    +0.073 A 
ATOM     20  C   UNL     1       5.413   1.831  -0.131  0.00  0.00    +0.033 A 
ATOM     21  C   UNL     1       7.118   0.094  -0.069  0.00  0.00    +0.122 A 
ATOM     24  C   UNL     1       6.757   1.439  -0.174  0.00  0.00    +0.048 A 
ATOM     28  H   UNL     1       3.553  -2.188   0.357  0.00  0.00    +0.167 HD
BRANCH  21   4
ATOM      4  O   UNL     1       8.437  -0.251  -0.115  0.00  0.00    -0.495 OA
ATOM     27  C   UNL     1       8.745  -1.639  -0.003  0.00  0.00    +0.277 C 
ENDBRANCH  21   4
ENDBRANCH   8  12
BRANCH   5  13
ATOM     13  C   UNL     1      -1.911   0.541  -1.182  0.00  0.00    +0.119 C 
BRANCH  13  14
ATOM     14  C   UNL     1      -3.352   0.342  -0.792  0.00  0.00    -0.033 A 
ATOM     17  C   UNL     1      -3.989  -0.867  -1.074  0.00  0.00    +0.005 A 
ATOM     18  C   UNL     1      -4.048   1.365  -0.149  0.00  0.00    +0.005 A 
ATOM     22  C   UNL     1      -5.323  -1.052  -0.712  0.00  0.00    +0.012 A 
ATOM     23  C   UNL     1      -5.383   1.179   0.213  0.00  0.00    +0.012 A 
ATOM     25  C   UNL     1      -6.020  -0.029  -0.068  0.00  0.00    +0.055 A 
BRANCH  25  26
ATOM      1  F   UNL     1      -7.667  -0.114   1.664  0.00  0.00    -0.166 F 
ATOM      2  F   UNL     1      -7.916  -1.464  -0.022  0.00  0.00    -0.166 F 
ATOM      3  F   UNL     1      -8.302   0.663  -0.259  0.00  0.00    -0.166 F 
ATOM     26  C   UNL     1      -7.445  -0.229   0.322  0.00  0.00    +0.417 C 
ENDBRANCH  25  26
ENDBRANCH  13  14
ENDBRANCH   5  13
TORSDOF 5
