REMARK  Name = 11883073
REMARK  8 active torsions:
REMARK  status: ('A' for Active; 'I' for Inactive)
REMARK    1  A    between atoms: O_2  and  C_16
REMARK    2  A    between atoms: O_3  and  C_21
REMARK    3  A    between atoms: C_11  and  C_19
REMARK    4  A    between atoms: C_13  and  C_21
REMARK    5  A    between atoms: C_13  and  C_22
REMARK    6  A    between atoms: C_14  and  C_24
REMARK    7  A    between atoms: C_24  and  C_25
REMARK    8  A    between atoms: C_31  and  C_32
REMARK                            x       y       z     vdW  Elec       q    Type
REMARK                         _______ _______ _______ _____ _____    ______ ____
ROOT
ATOM      1  S   UNL     1      -0.746   2.778   0.577  0.00  0.00    -0.057 S 
ATOM      6  O   UNL     1      -3.978  -0.351  -0.486  0.00  0.00    -0.266 OA
ATOM      8  N   UNL     1      -1.159   0.359  -0.241  0.00  0.00    -0.229 NA
ATOM     10  N   UNL     1      -3.109   1.703   0.207  0.00  0.00    -0.258 N 
ATOM     11  C   UNL     1       2.646   0.026  -0.769  0.00  0.00    -0.019 C 
ATOM     12  C   UNL     1       2.978   1.028   0.422  0.00  0.00    +0.011 C 
ATOM     13  C   UNL     1       4.494   1.409   0.635  0.00  0.00    +0.021 C 
ATOM     14  C   UNL     1       1.175  -0.552  -0.531  0.00  0.00    +0.054 C 
ATOM     15  C   UNL     1       3.646  -1.158  -0.742  0.00  0.00    +0.010 C 
ATOM     16  C   UNL     1       5.358   0.117   0.590  0.00  0.00    +0.123 C 
ATOM     17  C   UNL     1       2.018   2.254   0.419  0.00  0.00    +0.049 C 
ATOM     18  C   UNL     1       5.105  -0.732  -0.651  0.00  0.00    +0.032 C 
ATOM     19  C   UNL     1       2.714   0.702  -2.161  0.00  0.00    +0.012 C 
ATOM     20  C   UNL     1       0.208   0.551  -0.184  0.00  0.00    +0.058 A 
ATOM     22  C   UNL     1       4.666   2.031   2.050  0.00  0.00    +0.016 C 
ATOM     23  C   UNL     1       0.608   1.796   0.258  0.00  0.00    +0.015 A 
ATOM     26  C   UNL     1      -1.762   1.468   0.131  0.00  0.00    +0.165 A 
ATOM     31  C   UNL     1      -4.153   0.802  -0.098  0.00  0.00    +0.285 C 
ATOM     38  H   UNL     1      -3.364   2.639   0.515  0.00  0.00    +0.157 HD
ENDROOT
BRANCH  31  32
ATOM      7  O   UNL     1      -5.591   2.629   0.424  0.00  0.00    -0.458 OA
ATOM     32  C   UNL     1      -5.513   1.354   0.035  0.00  0.00    +0.189 A 
ATOM     33  C   UNL     1      -6.704   0.771  -0.177  0.00  0.00    +0.054 A 
ATOM     34  C   UNL     1      -7.650   1.784   0.109  0.00  0.00    +0.042 A 
ATOM     35  C   UNL     1      -6.923   2.895   0.470  0.00  0.00    +0.196 A 
ENDBRANCH  31  32
BRANCH  16   2
ATOM      2  O   UNL     1       6.747   0.439   0.650  0.00  0.00    -0.391 OA
ATOM     36  H   UNL     1       6.960   0.680   1.566  0.00  0.00    +0.210 HD
ENDBRANCH  16   2
BRANCH  13  21
ATOM     21  C   UNL     1       5.033   2.468  -0.352  0.00  0.00    +0.165 C 
BRANCH  21   3
ATOM      3  O   UNL     1       6.385   2.708  -0.030  0.00  0.00    -0.394 OA
ATOM     37  H   UNL     1       6.414   3.405   0.648  0.00  0.00    +0.209 HD
ENDBRANCH  21   3
ENDBRANCH  13  21
BRANCH  14  24
ATOM     24  C   UNL     1       0.641  -1.428  -1.673  0.00  0.00    +0.106 C 
BRANCH  24  25
ATOM      4  O   UNL     1      -1.684  -1.813  -1.930  0.00  0.00    -0.276 OA
ATOM      5  O   UNL     1      -0.925  -5.044   1.635  0.00  0.00    -0.377 OA
ATOM      9  N   UNL     1      -0.645  -2.880  -0.149  0.00  0.00    -0.297 N 
ATOM     25  C   UNL     1      -0.671  -2.052  -1.269  0.00  0.00    +0.216 C 
ATOM     27  C   UNL     1      -1.832  -3.003   0.698  0.00  0.00    +0.136 C 
ATOM     28  C   UNL     1       0.536  -3.581   0.365  0.00  0.00    +0.136 C 
ATOM     29  C   UNL     1      -2.090  -4.463   1.041  0.00  0.00    +0.179 C 
ATOM     30  C   UNL     1       0.181  -5.017   0.728  0.00  0.00    +0.179 C 
ENDBRANCH  24  25
ENDBRANCH  14  24
TORSDOF 6
