REMARK  Name = 11879864
REMARK  6 active torsions:
REMARK  status: ('A' for Active; 'I' for Inactive)
REMARK    1  A    between atoms: S_1  and  N_9
REMARK    2  A    between atoms: S_1  and  C_29
REMARK    3  A    between atoms: N_9  and  C_21
REMARK    4  A    between atoms: N_10  and  C_38
REMARK    5  A    between atoms: C_20  and  C_23
REMARK    6  A    between atoms: C_39  and  C_40
REMARK                            x       y       z     vdW  Elec       q    Type
REMARK                         _______ _______ _______ _____ _____    ______ ____
ROOT
ATOM      2  O   UNL     1       1.815  -0.271   2.559  0.00  0.00    -0.266 OA
ATOM      3  O   UNL     1       0.092   1.073  -2.561  0.00  0.00    -0.270 OA
ATOM      7  N   UNL     1       0.842   2.844  -1.226  0.00  0.00    -0.297 N 
ATOM      8  N   UNL     1       2.517   1.339   1.008  0.00  0.00    -0.310 N 
ATOM     11  C   UNL     1       1.604   3.731   0.971  0.00  0.00    +0.027 C 
ATOM     12  C   UNL     1       3.264   3.028  -0.707  0.00  0.00    +0.054 C 
ATOM     13  C   UNL     1       2.952   4.085   0.351  0.00  0.00    +0.018 C 
ATOM     14  C   UNL     1       0.504   3.721  -0.106  0.00  0.00    +0.113 C 
ATOM     15  C   UNL     1       1.728   2.378   1.683  0.00  0.00    +0.130 C 
ATOM     16  C   UNL     1       2.179   3.060  -1.803  0.00  0.00    +0.117 C 
ATOM     17  C   UNL     1       3.329   1.642  -0.093  0.00  0.00    +0.027 A 
ATOM     18  C   UNL     1       4.132   0.703  -0.627  0.00  0.00    +0.024 A 
ATOM     19  C   UNL     1       2.494   0.051   1.584  0.00  0.00    +0.274 A 
ATOM     20  C   UNL     1      -0.077   1.881  -1.649  0.00  0.00    +0.247 C 
ATOM     21  C   UNL     1       3.381  -0.947   0.936  0.00  0.00    +0.112 A 
ATOM     22  C   UNL     1       4.161  -0.634  -0.100  0.00  0.00    +0.031 A 
ENDROOT
BRANCH  20  23
ATOM     23  C   UNL     1      -1.375   1.825  -0.967  0.00  0.00    +0.037 A 
ATOM     24  C   UNL     1      -1.534   1.015   0.155  0.00  0.00    +0.021 A 
ATOM     25  C   UNL     1      -2.438   2.581  -1.444  0.00  0.00    +0.013 A 
ATOM     26  C   UNL     1      -2.769   0.951   0.820  0.00  0.00    -0.017 A 
ATOM     27  C   UNL     1      -3.673   2.530  -0.796  0.00  0.00    +0.009 A 
ATOM     28  C   UNL     1      -3.855   1.720   0.337  0.00  0.00    -0.018 A 
ATOM     30  C   UNL     1      -2.951   0.142   1.953  0.00  0.00    +0.008 A 
ATOM     31  C   UNL     1      -5.091   1.656   1.001  0.00  0.00    +0.008 A 
ATOM     34  C   UNL     1      -4.186   0.090   2.600  0.00  0.00    +0.001 A 
ATOM     35  C   UNL     1      -5.253   0.846   2.125  0.00  0.00    +0.001 A 
ENDBRANCH  20  23
BRANCH  21   9
ATOM      9  N   UNL     1       3.429  -2.268   1.415  0.00  0.00    -0.211 N 
ATOM     41  H   UNL     1       3.036  -2.385   2.358  0.00  0.00    +0.174 HD
BRANCH   9   1
ATOM      1  S   UNL     1       2.981  -3.473   0.296  0.00  0.00    +0.072 S 
ATOM      4  O   UNL     1       3.760  -3.336  -0.919  0.00  0.00    -0.150 OA
ATOM      5  O   UNL     1       2.871  -4.742   0.990  0.00  0.00    -0.150 OA
BRANCH   1  29
ATOM     29  C   UNL     1       1.311  -3.095  -0.237  0.00  0.00    +0.109 A 
ATOM     32  C   UNL     1       0.265  -3.631   0.470  0.00  0.00    +0.030 A 
ATOM     33  C   UNL     1       1.146  -2.286  -1.332  0.00  0.00    +0.030 A 
ATOM     36  C   UNL     1      -1.034  -3.337   0.055  0.00  0.00    +0.025 A 
ATOM     37  C   UNL     1      -0.152  -1.991  -1.747  0.00  0.00    +0.025 A 
ATOM     38  C   UNL     1      -1.242  -2.517  -1.054  0.00  0.00    +0.033 A 
BRANCH  38  10
ATOM      6  O   UNL     1      -3.897  -3.376   0.077  0.00  0.00    -0.276 OA
ATOM     10  N   UNL     1      -2.541  -2.222  -1.468  0.00  0.00    -0.286 N 
ATOM     39  C   UNL     1      -3.749  -2.653  -0.903  0.00  0.00    +0.214 C 
ATOM     40  C   UNL     1      -4.941  -2.110  -1.650  0.00  0.00    +0.109 C 
ATOM     42  H   UNL     1      -2.610  -1.616  -2.283  0.00  0.00    +0.155 HD
ENDBRANCH  38  10
ENDBRANCH   1  29
ENDBRANCH   9   1
ENDBRANCH  21   9
TORSDOF 5
