REMARK  Name = 51136974
REMARK  8 active torsions:
REMARK  status: ('A' for Active; 'I' for Inactive)
REMARK    1  A    between atoms: O_2  and  C_12
REMARK    2  A    between atoms: O_3  and  C_19
REMARK    3  A    between atoms: N_5  and  C_10
REMARK    4  A    between atoms: N_6  and  C_20
REMARK    5  A    between atoms: N_7  and  C_16
REMARK    6  A    between atoms: C_11  and  C_16
REMARK    7  A    between atoms: C_13  and  C_19
REMARK    8  A    between atoms: C_21  and  C_24
REMARK                            x       y       z     vdW  Elec       q    Type
REMARK                         _______ _______ _______ _____ _____    ______ ____
ROOT
ATOM      1  O   UNL     1      -1.096  -2.582   0.670  0.00  0.00    -0.365 OA
ATOM     10  C   UNL     1       1.205  -1.971   0.698  0.00  0.00    +0.118 C 
ATOM     11  C   UNL     1      -0.229  -1.426   0.662  0.00  0.00    +0.155 C 
ATOM     12  C   UNL     1       1.062  -3.351   0.074  0.00  0.00    +0.165 C 
ATOM     13  C   UNL     1      -0.290  -3.775   0.637  0.00  0.00    +0.174 C 
ENDROOT
BRANCH  10   5
ATOM      5  N   UNL     1       2.228  -1.127   0.106  0.00  0.00    -0.292 NA
ATOM      6  N   UNL     1       4.627   0.423   0.065  0.00  0.00    -0.327 N 
ATOM     14  C   UNL     1       3.539  -1.785   0.170  0.00  0.00    +0.104 C 
ATOM     15  C   UNL     1       2.285   0.170   0.792  0.00  0.00    +0.104 C 
ATOM     17  C   UNL     1       4.617  -0.930  -0.501  0.00  0.00    +0.120 C 
ATOM     18  C   UNL     1       3.321   1.090   0.141  0.00  0.00    +0.120 C 
BRANCH   6  20
ATOM     20  C   UNL     1       5.766   1.223  -0.070  0.00  0.00    +0.030 A 
ATOM     22  C   UNL     1       6.075   2.168   0.908  0.00  0.00    +0.023 A 
ATOM     23  C   UNL     1       6.594   1.076  -1.183  0.00  0.00    +0.023 A 
ATOM     25  C   UNL     1       7.211   2.966   0.773  0.00  0.00    +0.002 A 
ATOM     26  C   UNL     1       7.730   1.873  -1.318  0.00  0.00    +0.002 A 
ATOM     27  C   UNL     1       8.039   2.819  -0.340  0.00  0.00    +0.000 A 
ENDBRANCH   6  20
ENDBRANCH  10   5
BRANCH  12   2
ATOM      2  O   UNL     1       1.008  -3.279  -1.344  0.00  0.00    -0.388 OA
ATOM     34  H   UNL     1       1.025  -4.189  -1.686  0.00  0.00    +0.210 HD
ENDBRANCH  12   2
BRANCH  11  16
ATOM     16  C   UNL     1      -0.610  -0.583  -0.550  0.00  0.00    +0.137 C 
BRANCH  16   7
ATOM      4  O   UNL     1      -1.548   1.847   0.658  0.00  0.00    -0.270 OA
ATOM      7  N   UNL     1      -1.969  -0.141  -0.463  0.00  0.00    -0.309 N 
ATOM     21  C   UNL     1      -2.337   1.058   0.143  0.00  0.00    +0.244 C 
ATOM     35  H   UNL     1      -2.677  -0.781  -0.806  0.00  0.00    +0.149 HD
BRANCH  21  24
ATOM      8  N   UNL     1      -7.053   0.804  -1.516  0.00  0.00    -0.344 N 
ATOM      9  N   UNL     1      -7.875   2.095   0.096  0.00  0.00    -0.236 NA
ATOM     24  C   UNL     1      -3.791   1.361   0.175  0.00  0.00    +0.039 A 
ATOM     28  C   UNL     1      -4.622   0.827  -0.815  0.00  0.00    +0.040 A 
ATOM     29  C   UNL     1      -4.302   2.173   1.190  0.00  0.00    +0.015 A 
ATOM     30  C   UNL     1      -5.978   1.145  -0.736  0.00  0.00    +0.067 A 
ATOM     31  C   UNL     1      -5.667   2.479   1.250  0.00  0.00    +0.030 A 
ATOM     32  C   UNL     1      -6.517   1.950   0.263  0.00  0.00    +0.089 A 
ATOM     33  C   UNL     1      -8.162   1.396  -0.979  0.00  0.00    +0.197 A 
ATOM     37  H   UNL     1      -7.029   0.220  -2.341  0.00  0.00    +0.167 HD
ENDBRANCH  21  24
ENDBRANCH  16   7
ENDBRANCH  11  16
BRANCH  13  19
ATOM     19  C   UNL     1      -1.017  -4.849  -0.151  0.00  0.00    +0.190 C 
BRANCH  19   3
ATOM      3  O   UNL     1      -2.244  -5.142   0.497  0.00  0.00    -0.392 OA
ATOM     36  H   UNL     1      -2.687  -5.833  -0.025  0.00  0.00    +0.210 HD
ENDBRANCH  19   3
ENDBRANCH  13  19
TORSDOF 8
