REMARK  Name = 38028448
REMARK  12 active torsions:
REMARK  status: ('A' for Active; 'I' for Inactive)
REMARK    1  A    between atoms: N_3  and  C_14
REMARK    2  A    between atoms: N_4  and  C_21
REMARK    3  A    between atoms: N_5  and  C_22
REMARK    4  A    between atoms: C_7  and  C_11
REMARK    5  A    between atoms: C_8  and  C_14
REMARK    6  A    between atoms: C_10  and  C_15
REMARK    7  A    between atoms: C_11  and  C_16
REMARK    8  A    between atoms: C_11  and  C_17
REMARK    9  A    between atoms: C_12  and  C_18
REMARK   10  A    between atoms: C_15  and  C_19
REMARK   11  A    between atoms: C_21  and  C_23
REMARK   12  A    between atoms: C_22  and  C_24
REMARK                            x       y       z     vdW  Elec       q    Type
REMARK                         _______ _______ _______ _____ _____    ______ ____
ROOT
ATOM      7  C   UNL     1      -3.158   1.340   0.626  0.00  0.00    +0.000 C 
ATOM      8  C   UNL     1      -4.175   0.372  -0.029  0.00  0.00    +0.032 C 
ATOM      9  C   UNL     1      -2.535   2.261  -0.434  0.00  0.00    +0.012 C 
ATOM     10  C   UNL     1      -1.813   1.471  -1.541  0.00  0.00    +0.023 C 
ATOM     12  C   UNL     1      -2.657   0.322  -2.054  0.00  0.00    -0.073 C 
ATOM     13  C   UNL     1      -3.716  -0.147  -1.371  0.00  0.00    -0.022 C 
ATOM     18  C   UNL     1      -2.283  -0.247  -3.395  0.00  0.00    +0.039 C 
ENDROOT
BRANCH   7  11
ATOM     11  C   UNL     1      -3.804   2.183   1.730  0.00  0.00    -0.013 C 
ATOM     16  C   UNL     1      -2.750   2.652   2.728  0.00  0.00    +0.007 C 
ATOM     17  C   UNL     1      -4.545   3.372   1.127  0.00  0.00    +0.007 C 
ENDBRANCH   7  11
BRANCH   8  14
ATOM     14  C   UNL     1      -4.487  -0.810   0.896  0.00  0.00    +0.113 C 
BRANCH  14   3
ATOM      2  O   UNL     1      -2.863  -2.904  -0.218  0.00  0.00    -0.253 OA
ATOM      3  N   UNL     1      -3.287  -1.349   1.454  0.00  0.00    -0.299 N 
ATOM      5  N   UNL     1      -1.426  -2.713   1.595  0.00  0.00    -0.295 N 
ATOM     20  C   UNL     1      -2.549  -2.374   0.847  0.00  0.00    +0.300 C 
ATOM     34  H   UNL     1      -2.966  -0.992   2.349  0.00  0.00    +0.150 HD
ATOM     36  H   UNL     1      -1.238  -2.199   2.450  0.00  0.00    +0.151 HD
BRANCH   5  22
ATOM     22  C   UNL     1      -0.491  -3.741   1.197  0.00  0.00    +0.141 C 
BRANCH  22  24
ATOM     24  C   UNL     1       0.620  -3.191   0.350  0.00  0.00    -0.030 A 
ATOM     27  C   UNL     1       0.483  -3.145  -1.037  0.00  0.00    +0.005 A 
ATOM     28  C   UNL     1       1.790  -2.727   0.951  0.00  0.00    +0.005 A 
ATOM     31  C   UNL     1       1.516  -2.635  -1.824  0.00  0.00    +0.000 A 
ATOM     32  C   UNL     1       2.823  -2.216   0.165  0.00  0.00    +0.000 A 
ATOM     33  C   UNL     1       2.686  -2.171  -1.223  0.00  0.00    +0.000 A 
ENDBRANCH  22  24
ENDBRANCH   5  22
ENDBRANCH  14   3
ENDBRANCH   8  14
BRANCH  10  15
ATOM     15  C   UNL     1      -0.444   0.975  -1.062  0.00  0.00    +0.103 C 
BRANCH  15  19
ATOM      1  O   UNL     1       0.325   3.257  -1.287  0.00  0.00    -0.276 OA
ATOM      4  N   UNL     1       1.797   1.623  -0.537  0.00  0.00    -0.311 N 
ATOM     19  C   UNL     1       0.571   2.093  -0.986  0.00  0.00    +0.214 C 
ATOM     35  H   UNL     1       1.887   0.635  -0.315  0.00  0.00    +0.149 HD
BRANCH   4  21
ATOM     21  C   UNL     1       2.954   2.471  -0.368  0.00  0.00    +0.141 C 
BRANCH  21  23
ATOM      6  N   UNL     1       5.280   0.615   1.965  0.00  0.00    -0.263 NA
ATOM     23  C   UNL     1       4.145   1.705   0.130  0.00  0.00    -0.012 A 
ATOM     25  C   UNL     1       5.193   1.376  -0.723  0.00  0.00    +0.008 A 
ATOM     26  C   UNL     1       4.236   1.305   1.453  0.00  0.00    +0.115 A 
ATOM     29  C   UNL     1       6.284   0.666  -0.234  0.00  0.00    +0.020 A 
ATOM     30  C   UNL     1       6.279   0.313   1.106  0.00  0.00    +0.111 A 
ENDBRANCH  21  23
ENDBRANCH   4  21
ENDBRANCH  15  19
ENDBRANCH  10  15
TORSDOF 9
